# created with PyMOL 2.3.2
@<TRIPOS>MOLECULE
1728
50 53 1                 
SMALL
USER_CHARGES
@<TRIPOS>ATOM
1	  Br	1.519	5.105	1.754	Br	1	UNK0	0.000	
2	   C	-0.237	4.587	1.253	C.2	1	UNK0	0.000	
3	   C	-1.320	5.351	1.628	C.2	1	UNK0	0.000	
4	   C	-2.622	4.933	1.261	C.2	1	UNK0	0.000	
5	   C	-2.734	3.776	0.546	C.2	1	UNK0	0.000	
6	   C	-1.661	2.967	0.145	C.2	1	UNK0	0.000	
7	   C	-0.420	3.425	0.529	C.2	1	UNK0	0.000	
8	   C	-1.902	1.770	-0.584	C.2	1	UNK0	0.000	
9	   N	-1.219	0.904	-1.007	N.2	1	UNK0	0.000	
10	   N	-0.433	0.045	-1.413	N.pl3	1	UNK0	0.000	
11	   C	0.429	-0.901	-1.862	C.2	1	UNK0	0.000	
12	   O	0.359	-1.900	-2.575	O.2	1	UNK0	0.000	
13	   C	1.857	-0.645	-1.332	C.3	1	UNK0	0.000	
14	   N	2.698	-1.754	-1.520	N.pl3	1	UNK0	0.000	
15	   C	2.803	-2.715	-0.526	C.2	1	UNK0	0.000	
16	   C	3.684	-3.635	-0.957	C.2	1	UNK0	0.000	
17	   N	4.095	-3.247	-2.154	N.2	1	UNK0	0.000	
18	   C	3.478	-2.060	-2.522	C.2	1	UNK0	0.000	
19	   C	3.856	-1.514	-3.813	C.2	1	UNK0	0.000	
20	   N	4.796	-2.131	-4.636	N.2	1	UNK0	0.000	
21	   O	4.938	-1.479	-5.718	O.3	1	UNK0	0.000	
22	   N	4.180	-0.457	-5.725	N.2	1	UNK0	0.000	
23	   C	3.479	-0.444	-4.540	C.2	1	UNK0	0.000	
24	   N	2.529	0.557	-4.247	N.4	1	UNK0	0.000	
25	   C	4.035	-4.746	-0.206	C.2	1	UNK0	0.000	
26	   C	3.431	-4.870	1.022	C.2	1	UNK0	0.000	
27	   C	2.517	-3.957	1.512	C.2	1	UNK0	0.000	
28	   C	2.202	-2.858	0.715	C.2	1	UNK0	0.000	
29	   O	-3.690	5.718	1.653	O.3	1	UNK0	0.000	
30	   C	-5.007	5.409	1.349	C.3	1	UNK0	0.000	
31	   C	-5.523	4.104	1.886	C.3	1	UNK0	0.000	
32	   O	-1.214	6.506	2.347	O.2	1	UNK0	0.000	
33	   H	-3.708	3.422	0.257	 H	1	UNK0	0.000	
34	   H	0.476	2.843	0.232	 H	1	UNK0	0.000	
35	   H	-2.986	1.510	-0.859	 H	1	UNK0	0.000	
36	   H	-1.447	-0.596	-2.146	 H	1	UNK0	0.000	
37	   H	1.717	-0.513	-0.204	 H	1	UNK0	0.000	
38	   H	2.177	0.293	-1.747	 H	1	UNK0	0.000	
39	   H	2.346	1.126	-5.157	 H	1	UNK0	0.000	
40	   H	2.935	1.254	-3.611	 H	1	UNK0	0.000	
41	   H	1.613	0.163	-4.048	 H	1	UNK0	0.000	
42	   H	4.750	-5.449	-0.620	 H	1	UNK0	0.000	
43	   H	3.682	-5.744	1.654	 H	1	UNK0	0.000	
44	   H	2.074	-4.098	2.485	 H	1	UNK0	0.000	
45	   H	1.496	-2.119	1.044	 H	1	UNK0	0.000	
46	   H	-5.692	6.255	1.704	 H	1	UNK0	0.000	
47	   H	-5.190	5.398	0.231	 H	1	UNK0	0.000	
48	   H	-5.930	3.514	1.052	 H	1	UNK0	0.000	
49	   H	-4.737	3.570	2.406	 H	1	UNK0	0.000	
50	   H	-6.418	4.300	2.552	 H	1	UNK0	0.000	
@<TRIPOS>BOND
1 1 2 1
2 2 3 2
3 2 7 1
4 3 4 1
5 3 32 1
6 4 5 2
7 4 29 1
8 5 6 1
9 6 7 2
10 6 8 1
11 8 9 2
12 9 10 1
13 10 11 1
14 11 12 2
15 11 13 1
16 13 14 1
17 14 15 1
18 14 18 1
19 15 16 2
20 15 28 1
21 16 17 1
22 16 25 1
23 17 18 2
24 18 19 1
25 19 20 2
26 19 23 1
27 20 21 1
28 21 22 1
29 22 23 2
30 23 24 1
31 25 26 2
32 26 27 1
33 27 28 2
34 29 30 1
35 30 31 1
36 5 33 1
37 7 34 1
38 8 35 1
39 10 36 1
40 13 37 1
41 13 38 1
42 24 39 1
43 24 40 1
44 24 41 1
45 25 42 1
46 26 43 1
47 27 44 1
48 28 45 1
49 30 46 1
50 30 47 1
51 31 48 1
52 31 49 1
53 31 50 1
@<TRIPOS>SUBSTRUCTURE
1	UNK0	1	GROUP	1 ****	UNK
