# created with PyMOL 2.3.2
@<TRIPOS>MOLECULE
1729
58 60 1                 
SMALL
USER_CHARGES
@<TRIPOS>ATOM
1	  Br	4.768	-2.336	6.650	Br	1	UNK0	0.000	
2	   C	3.382	-1.774	5.470	C.2	1	UNK0	0.000	
3	   C	2.255	-1.195	6.024	C.2	1	UNK0	0.000	
4	   C	1.242	-0.777	5.168	C.2	1	UNK0	0.000	
5	   C	1.408	-0.958	3.805	C.2	1	UNK0	0.000	
6	   C	2.501	-1.521	3.234	C.2	1	UNK0	0.000	
7	   C	3.506	-1.937	4.089	C.2	1	UNK0	0.000	
8	   C	2.653	-1.672	1.795	C.2	1	UNK0	0.000	
9	   N	1.924	-1.379	0.912	N.2	1	UNK0	0.000	
10	   N	1.369	-1.181	-0.256	N.pl3	1	UNK0	0.000	
11	   C	1.944	-0.596	-1.411	C.2	1	UNK0	0.000	
12	   O	3.155	-0.233	-1.263	O.2	1	UNK0	0.000	
13	   C	1.282	-0.396	-2.672	C.2	1	UNK0	0.000	
14	   N	1.889	0.279	-3.720	N.pl3	1	UNK0	0.000	
15	   N	1.020	0.267	-4.699	N.2	1	UNK0	0.000	
16	   N	-0.086	-0.352	-4.376	N.2	1	UNK0	0.000	
17	   C	0.055	-0.781	-3.097	C.2	1	UNK0	0.000	
18	   C	-1.028	-1.513	-2.416	C.3	1	UNK0	0.000	
19	   N	-2.170	-1.711	-3.308	N.3	1	UNK0	0.000	
20	   C	-1.870	-2.492	-4.454	C.3	1	UNK0	0.000	
21	   C	-2.559	-2.114	-5.722	C.3	1	UNK0	0.000	
22	   O	-3.847	-1.652	-5.336	O.3	1	UNK0	0.000	
23	   C	-3.598	-0.357	-4.812	C.3	1	UNK0	0.000	
24	   C	-2.914	-0.508	-3.505	C.3	1	UNK0	0.000	
25	   C	3.185	0.856	-3.687	C.2	1	UNK0	0.000	
26	   N	4.394	0.310	-3.810	N.2	1	UNK0	0.000	
27	   O	5.296	1.251	-3.709	O.3	1	UNK0	0.000	
28	   N	4.743	2.405	-3.523	N.2	1	UNK0	0.000	
29	   C	3.426	2.221	-3.501	C.2	1	UNK0	0.000	
30	   N	2.407	3.208	-3.323	N.pl3	1	UNK0	0.000	
31	   O	0.106	-0.199	5.676	O.3	1	UNK0	0.000	
32	   C	-0.977	0.239	4.887	C.3	1	UNK0	0.000	
33	   C	-2.056	0.851	5.740	C.3	1	UNK0	0.000	
34	   O	2.169	-1.054	7.384	O.3	1	UNK0	0.000	
35	  Cl	-0.984	-1.434	0.876	Cl	1	UNK0	0.000	
36	   H	0.613	-0.627	3.139	 H	1	UNK0	0.000	
37	   H	4.402	-2.397	3.692	 H	1	UNK0	0.000	
38	   H	3.616	-2.151	1.429	 H	1	UNK0	0.000	
39	   H	0.356	-1.497	-0.367	 H	1	UNK0	0.000	
40	   H	-1.421	-0.904	-1.581	 H	1	UNK0	0.000	
41	   H	-0.737	-2.525	-2.095	 H	1	UNK0	0.000	
42	   H	-0.776	-2.592	-4.559	 H	1	UNK0	0.000	
43	   H	-2.221	-3.547	-4.218	 H	1	UNK0	0.000	
44	   H	-2.630	-2.992	-6.386	 H	1	UNK0	0.000	
45	   H	-2.065	-1.268	-6.215	 H	1	UNK0	0.000	
46	   H	-4.584	0.129	-4.747	 H	1	UNK0	0.000	
47	   H	-2.934	0.130	-5.584	 H	1	UNK0	0.000	
48	   H	-2.217	0.368	-3.386	 H	1	UNK0	0.000	
49	   H	-3.653	-0.406	-2.683	 H	1	UNK0	0.000	
50	   H	1.575	3.261	-3.944	 H	1	UNK0	0.000	
51	   H	2.480	3.904	-2.555	 H	1	UNK0	0.000	
52	   H	-1.428	-0.692	4.427	 H	1	UNK0	0.000	
53	   H	-0.680	0.876	4.057	 H	1	UNK0	0.000	
54	   H	-3.045	0.697	5.277	 H	1	UNK0	0.000	
55	   H	-1.827	1.907	5.911	 H	1	UNK0	0.000	
56	   H	-2.111	0.370	6.745	 H	1	UNK0	0.000	
57	   H	2.908	-1.360	7.989	 H	1	UNK0	0.000	
58	   H	-0.021	-2.098	0.135	 H	1	UNK0	0.000	
@<TRIPOS>BOND
1 1 2 1
2 2 3 2
3 2 7 1
4 3 4 1
5 3 34 1
6 4 5 2
7 4 31 1
8 5 6 1
9 6 7 2
10 6 8 1
11 8 9 2
12 9 10 1
13 10 11 1
14 11 12 2
15 11 13 1
16 13 14 1
17 13 17 2
18 14 15 1
19 14 25 1
20 15 16 2
21 16 17 1
22 17 18 1
23 18 19 1
24 19 20 1
25 19 24 1
26 20 21 1
27 21 22 1
28 22 23 1
29 23 24 1
30 25 26 2
31 25 29 1
32 26 27 1
33 27 28 1
34 28 29 2
35 29 30 1
36 31 32 1
37 32 33 1
38 5 36 1
39 7 37 1
40 8 38 1
41 10 39 1
42 18 40 1
43 18 41 1
44 20 42 1
45 20 43 1
46 21 44 1
47 21 45 1
48 23 46 1
49 23 47 1
50 24 48 1
51 24 49 1
52 30 50 1
53 30 51 1
54 32 52 1
55 32 53 1
56 33 54 1
57 33 55 1
58 33 56 1
59 34 57 1
60 35 58 1
@<TRIPOS>SUBSTRUCTURE
1	UNK0	1	GROUP	1 ****	UNK
