# created with PyMOL 2.3.2
@<TRIPOS>MOLECULE
1730
58 61 1                 
SMALL
USER_CHARGES
@<TRIPOS>ATOM
1	  Br	4.798	-4.729	3.951	Br	1	UNK0	0.000	
2	   C	3.302	-3.639	3.538	C.2	1	UNK0	0.000	
3	   C	3.115	-2.453	4.202	C.2	1	UNK0	0.000	
4	   C	2.054	-1.638	3.917	C.2	1	UNK0	0.000	
5	   C	1.173	-2.053	2.932	C.2	1	UNK0	0.000	
6	   C	1.321	-3.261	2.223	C.2	1	UNK0	0.000	
7	   C	2.389	-4.011	2.560	C.2	1	UNK0	0.000	
8	   C	0.320	-3.507	1.224	C.2	1	UNK0	0.000	
9	   N	-0.825	-2.865	1.283	N.2	1	UNK0	0.000	
10	   N	-1.801	-3.016	0.346	N.pl3	1	UNK0	0.000	
11	   C	-1.413	-3.068	-1.018	C.2	1	UNK0	0.000	
12	   O	-0.294	-3.195	-1.442	O.2	1	UNK0	0.000	
13	   C	-2.522	-2.872	-2.014	C.2	1	UNK0	0.000	
14	   N	-3.485	-3.318	-2.638	N.2	1	UNK0	0.000	
15	   N	-4.102	-2.347	-3.343	N.2	1	UNK0	0.000	
16	   N	-3.473	-1.188	-3.147	N.pl3	1	UNK0	0.000	
17	   C	-2.487	-1.391	-2.359	C.2	1	UNK0	0.000	
18	   C	-1.495	-0.623	-1.631	C.3	1	UNK0	0.000	
19	   N	-0.321	-0.135	-2.145	N.3	1	UNK0	0.000	
20	   C	0.713	0.066	-1.144	C.3	1	UNK0	0.000	
21	   C	0.732	1.409	-0.578	C.3	1	UNK0	0.000	
22	   C	0.604	2.502	-1.584	C.3	1	UNK0	0.000	
23	   C	1.297	2.299	-2.866	C.3	1	UNK0	0.000	
24	   C	1.292	1.010	-3.546	C.3	1	UNK0	0.000	
25	   C	0.009	0.191	-3.424	C.3	1	UNK0	0.000	
26	   C	-4.051	0.073	-3.552	C.2	1	UNK0	0.000	
27	   N	-3.751	1.114	-4.258	N.2	1	UNK0	0.000	
28	   O	-4.715	2.032	-4.151	O.3	1	UNK0	0.000	
29	   N	-5.662	1.634	-3.384	N.2	1	UNK0	0.000	
30	   C	-5.327	0.404	-2.960	C.2	1	UNK0	0.000	
31	   N	-6.036	-0.462	-2.104	N.pl3	1	UNK0	0.000	
32	   O	1.843	-0.428	4.552	O.3	1	UNK0	0.000	
33	   C	0.817	0.471	4.301	C.3	1	UNK0	0.000	
34	   O	4.002	-2.028	5.203	O.3	1	UNK0	0.000	
35	   H	0.320	-1.429	2.710	 H	1	UNK0	0.000	
36	   H	2.532	-4.956	2.041	 H	1	UNK0	0.000	
37	   H	0.441	-4.181	0.400	 H	1	UNK0	0.000	
38	   H	-2.780	-3.082	0.695	 H	1	UNK0	0.000	
39	   H	-2.139	0.462	-1.616	 H	1	UNK0	0.000	
40	   H	-1.544	-0.775	-0.515	 H	1	UNK0	0.000	
41	   H	1.644	-0.305	-1.584	 H	1	UNK0	0.000	
42	   H	0.484	-0.692	-0.344	 H	1	UNK0	0.000	
43	   H	1.571	1.552	0.118	 H	1	UNK0	0.000	
44	   H	-0.182	1.503	0.086	 H	1	UNK0	0.000	
45	   H	-0.501	2.716	-1.742	 H	1	UNK0	0.000	
46	   H	0.959	3.433	-1.117	 H	1	UNK0	0.000	
47	   H	2.373	2.623	-2.763	 H	1	UNK0	0.000	
48	   H	0.882	3.081	-3.576	 H	1	UNK0	0.000	
49	   H	1.382	1.195	-4.654	 H	1	UNK0	0.000	
50	   H	2.210	0.373	-3.356	 H	1	UNK0	0.000	
51	   H	-0.756	0.716	-4.066	 H	1	UNK0	0.000	
52	   H	0.235	-0.767	-4.014	 H	1	UNK0	0.000	
53	   H	-5.724	-0.641	-1.096	 H	1	UNK0	0.000	
54	   H	-6.902	-0.992	-2.407	 H	1	UNK0	0.000	
55	   H	0.555	0.970	5.255	 H	1	UNK0	0.000	
56	   H	1.179	1.269	3.573	 H	1	UNK0	0.000	
57	   H	-0.095	0.023	3.890	 H	1	UNK0	0.000	
58	   H	4.794	-2.566	5.437	 H	1	UNK0	0.000	
@<TRIPOS>BOND
1 1 2 1
2 2 3 2
3 2 7 1
4 3 4 1
5 3 34 1
6 4 5 2
7 4 32 1
8 5 6 1
9 6 7 2
10 6 8 1
11 8 9 2
12 9 10 1
13 10 11 1
14 11 12 2
15 11 13 1
16 13 14 1
17 13 17 2
18 14 15 2
19 15 16 1
20 16 17 1
21 16 26 1
22 17 18 1
23 18 19 1
24 19 20 1
25 19 25 1
26 20 21 1
27 21 22 1
28 22 23 1
29 23 24 1
30 24 25 1
31 26 27 2
32 26 30 1
33 27 28 1
34 28 29 1
35 29 30 2
36 30 31 1
37 32 33 1
38 5 35 1
39 7 36 1
40 8 37 1
41 10 38 1
42 18 39 1
43 18 40 1
44 20 41 1
45 20 42 1
46 21 43 1
47 21 44 1
48 22 45 1
49 22 46 1
50 23 47 1
51 23 48 1
52 24 49 1
53 24 50 1
54 25 51 1
55 25 52 1
56 31 53 1
57 31 54 1
58 33 55 1
59 33 56 1
60 33 57 1
61 34 58 1
@<TRIPOS>SUBSTRUCTURE
1	UNK0	1	GROUP	1 ****	UNK
