# created with PyMOL 2.3.2
@<TRIPOS>MOLECULE
1734
32 35 1                 
SMALL
USER_CHARGES
@<TRIPOS>ATOM
1	  Br	-3.675	-0.154	-0.167	Br	1	UNK0	0.000	
2	   C	-2.970	0.195	-1.903	C.2	1	UNK0	0.000	
3	   C	-1.635	0.289	-2.239	C.2	1	UNK0	0.000	
4	   N	-1.618	0.541	-3.553	N.pl3	1	UNK0	0.000	
5	   N	-2.869	0.605	-4.025	N.2	1	UNK0	0.000	
6	   C	-3.751	0.393	-3.022	C.2	1	UNK0	0.000	
7	   C	-5.242	0.382	-3.134	C.3	1	UNK0	0.000	
8	   C	-0.415	0.717	-4.333	C.3	1	UNK0	0.000	
9	   C	-0.465	0.147	-1.369	C.2	1	UNK0	0.000	
10	   N	0.834	0.239	-1.702	N.2	1	UNK0	0.000	
11	   N	1.609	0.048	-0.621	N.pl3	1	UNK0	0.000	
12	   C	0.792	-0.171	0.426	C.2	1	UNK0	0.000	
13	   N	-0.467	-0.107	-0.047	N.2	1	UNK0	0.000	
14	   C	1.370	-0.395	1.658	C.2	1	UNK0	0.000	
15	   C	2.735	-0.403	1.855	C.2	1	UNK0	0.000	
16	   N	3.014	-0.647	3.155	N.pl3	1	UNK0	0.000	
17	   N	1.850	-0.795	3.790	N.2	1	UNK0	0.000	
18	   C	0.825	-0.646	2.901	C.2	1	UNK0	0.000	
19	   C	4.325	-0.738	3.777	C.3	1	UNK0	0.000	
20	   N	3.487	-0.176	0.761	N.2	1	UNK0	0.000	
21	   C	2.948	0.045	-0.451	C.2	1	UNK0	0.000	
22	   H	-5.603	-0.097	-4.042	 H	1	UNK0	0.000	
23	   H	-5.662	-0.201	-2.263	 H	1	UNK0	0.000	
24	   H	-5.652	1.420	-2.986	 H	1	UNK0	0.000	
25	   H	0.264	1.365	-3.740	 H	1	UNK0	0.000	
26	   H	0.040	-0.252	-4.611	 H	1	UNK0	0.000	
27	   H	-0.662	1.219	-5.305	 H	1	UNK0	0.000	
28	   H	-0.215	-0.716	3.150	 H	1	UNK0	0.000	
29	   H	4.922	-1.499	3.239	 H	1	UNK0	0.000	
30	   H	4.232	-0.916	4.844	 H	1	UNK0	0.000	
31	   H	4.875	0.225	3.650	 H	1	UNK0	0.000	
32	   H	3.545	0.228	-1.338	 H	1	UNK0	0.000	
@<TRIPOS>BOND
1 1 2 1
2 2 3 2
3 2 6 1
4 3 4 1
5 3 9 1
6 4 5 1
7 4 8 1
8 5 6 2
9 6 7 1
10 9 10 2
11 9 13 1
12 10 11 1
13 11 12 1
14 11 21 1
15 12 13 2
16 12 14 1
17 14 15 2
18 14 18 1
19 15 16 1
20 15 20 1
21 16 17 1
22 16 19 1
23 17 18 2
24 20 21 2
25 7 22 1
26 7 23 1
27 7 24 1
28 8 25 1
29 8 26 1
30 8 27 1
31 18 28 1
32 19 29 1
33 19 30 1
34 19 31 1
35 21 32 1
@<TRIPOS>SUBSTRUCTURE
1	UNK0	1	GROUP	1 ****	UNK
