# created with PyMOL 2.3.2
@<TRIPOS>MOLECULE
1736
54 58 1                 
SMALL
USER_CHARGES
@<TRIPOS>ATOM
1	  Cl	-3.082	1.603	2.490	Cl	1	UNK0	0.000	
2	   C	-1.385	1.386	2.948	C.2	1	UNK0	0.000	
3	   C	-0.556	0.572	2.217	C.2	1	UNK0	0.000	
4	   C	0.755	0.410	2.578	C.2	1	UNK0	0.000	
5	   C	1.235	1.070	3.681	C.2	1	UNK0	0.000	
6	   C	0.417	1.904	4.443	C.2	1	UNK0	0.000	
7	   C	-0.896	2.046	4.054	C.2	1	UNK0	0.000	
8	   N	2.603	0.778	3.897	N.pl3	1	UNK0	0.000	
9	   C	2.993	-0.117	2.866	C.2	1	UNK0	0.000	
10	   O	4.133	-0.608	2.721	O.2	1	UNK0	0.000	
11	   C	1.847	-0.390	1.978	C.3	1	UNK0	0.000	
12	   N	1.524	-1.794	1.907	N.3	1	UNK0	0.000	
13	   C	1.110	-2.079	0.569	C.3	1	UNK0	0.000	
14	   C	1.890	-1.156	-0.338	C.3	1	UNK0	0.000	
15	   C	2.179	0.001	0.584	C.3	1	UNK0	0.000	
16	   C	1.401	1.154	0.068	C.2	1	UNK0	0.000	
17	   O	1.046	2.201	0.666	O.2	1	UNK0	0.000	
18	   N	1.111	0.846	-1.311	N.pl3	1	UNK0	0.000	
19	   C	1.072	-0.590	-1.441	C.2	1	UNK0	0.000	
20	   O	0.466	-1.260	-2.317	O.2	1	UNK0	0.000	
21	   C	0.895	1.791	-2.386	C.3	1	UNK0	0.000	
22	   C	-0.555	2.137	-2.480	C.2	1	UNK0	0.000	
23	   C	-1.009	3.024	-3.433	C.2	1	UNK0	0.000	
24	   C	-2.358	3.328	-3.500	C.2	1	UNK0	0.000	
25	   C	-3.278	2.767	-2.636	C.2	1	UNK0	0.000	
26	   C	-2.835	1.880	-1.680	C.2	1	UNK0	0.000	
27	   C	-1.492	1.586	-1.624	C.2	1	UNK0	0.000	
28	   O	-0.076	3.591	-4.307	O.3	1	UNK0	0.000	
29	   C	-0.546	4.512	-5.297	C.3	1	UNK0	0.000	
30	   C	1.328	-3.533	0.209	C.3	1	UNK0	0.000	
31	   O	0.898	-3.710	-1.103	O.3	1	UNK0	0.000	
32	   C	0.378	-4.343	1.085	C.3	1	UNK0	0.000	
33	   H	-1.007	0.086	1.362	 H	1	UNK0	0.000	
34	   H	0.789	2.427	5.313	 H	1	UNK0	0.000	
35	   H	-1.588	2.685	4.610	 H	1	UNK0	0.000	
36	   H	3.249	1.132	4.662	 H	1	UNK0	0.000	
37	   H	0.808	-2.031	2.601	 H	1	UNK0	0.000	
38	   H	0.049	-1.864	0.452	 H	1	UNK0	0.000	
39	   H	2.802	-1.639	-0.736	 H	1	UNK0	0.000	
40	   H	3.279	0.183	0.515	 H	1	UNK0	0.000	
41	   H	1.460	2.738	-2.248	 H	1	UNK0	0.000	
42	   H	1.224	1.385	-3.367	 H	1	UNK0	0.000	
43	   H	-2.721	4.018	-4.239	 H	1	UNK0	0.000	
44	   H	-4.335	2.991	-2.673	 H	1	UNK0	0.000	
45	   H	-3.508	1.407	-0.974	 H	1	UNK0	0.000	
46	   H	-1.162	0.901	-0.885	 H	1	UNK0	0.000	
47	   H	-1.278	3.978	-5.925	 H	1	UNK0	0.000	
48	   H	0.328	4.862	-5.887	 H	1	UNK0	0.000	
49	   H	-1.033	5.383	-4.854	 H	1	UNK0	0.000	
50	   H	2.371	-3.846	0.315	 H	1	UNK0	0.000	
51	   H	-0.085	-3.744	-1.126	 H	1	UNK0	0.000	
52	   H	-0.122	-5.148	0.491	 H	1	UNK0	0.000	
53	   H	0.895	-4.745	1.978	 H	1	UNK0	0.000	
54	   H	-0.454	-3.703	1.463	 H	1	UNK0	0.000	
@<TRIPOS>BOND
1 1 2 1
2 2 3 2
3 2 7 1
4 3 4 1
5 4 5 2
6 4 11 1
7 5 6 1
8 5 8 1
9 6 7 2
10 8 9 1
11 9 10 2
12 9 11 1
13 11 12 1
14 11 15 1
15 12 13 1
16 13 14 1
17 13 30 1
18 14 15 1
19 14 19 1
20 15 16 1
21 16 17 2
22 16 18 1
23 18 19 1
24 18 21 1
25 19 20 2
26 21 22 1
27 22 23 2
28 22 27 1
29 23 24 1
30 23 28 1
31 24 25 2
32 25 26 1
33 26 27 2
34 28 29 1
35 30 31 1
36 30 32 1
37 3 33 1
38 6 34 1
39 7 35 1
40 8 36 1
41 12 37 1
42 13 38 1
43 14 39 1
44 15 40 1
45 21 41 1
46 21 42 1
47 24 43 1
48 25 44 1
49 26 45 1
50 27 46 1
51 29 47 1
52 29 48 1
53 29 49 1
54 30 50 1
55 31 51 1
56 32 52 1
57 32 53 1
58 32 54 1
@<TRIPOS>SUBSTRUCTURE
1	UNK0	1	GROUP	1 ****	UNK
