# created with PyMOL 2.3.2
@<TRIPOS>MOLECULE
1742
47 50 1                 
SMALL
USER_CHARGES
@<TRIPOS>ATOM
1	  Br	0.688	-3.126	0.898	Br	1	UNK0	0.000	
2	   C	-0.134	-1.565	0.193	C.2	1	UNK0	0.000	
3	   C	-0.550	-1.457	-1.088	C.2	1	UNK0	0.000	
4	   N	-1.206	-0.396	-1.567	N.pl3	1	UNK0	0.000	
5	   C	-1.467	0.614	-0.738	C.cat	1	UNK0	0.000	
6	   N	-2.128	1.710	-1.206	N.2	1	UNK0	0.000	
7	   C	-2.532	1.830	-2.463	C.2	1	UNK0	0.000	
8	   C	-2.275	0.800	-3.339	C.2	1	UNK0	0.000	
9	   C	-2.664	0.869	-4.662	C.2	1	UNK0	0.000	
10	   C	-3.335	1.976	-5.183	C.2	1	UNK0	0.000	
11	   C	-3.587	3.001	-4.297	C.2	1	UNK0	0.000	
12	   C	-3.199	2.936	-2.970	C.2	1	UNK0	0.000	
13	   C	-1.601	-0.309	-2.842	C.2	1	UNK0	0.000	
14	   O	-1.360	-1.252	-3.628	O.2	1	UNK0	0.000	
15	   N	-1.060	0.531	0.550	N.pl3	1	UNK0	0.000	
16	   C	-0.405	-0.484	1.097	C.2	1	UNK0	0.000	
17	   N	0.124	-0.592	2.344	N.pl3	1	UNK0	0.000	
18	   C	0.645	-0.698	3.573	C.2	1	UNK0	0.000	
19	   C	1.976	-1.108	3.725	C.2	1	UNK0	0.000	
20	   C	2.461	-1.452	4.944	C.2	1	UNK0	0.000	
21	   C	1.655	-1.399	6.055	C.2	1	UNK0	0.000	
22	   C	0.340	-0.998	5.974	C.2	1	UNK0	0.000	
23	   C	-0.129	-0.657	4.727	C.2	1	UNK0	0.000	
24	   C	2.937	-1.042	2.617	C.2	1	UNK0	0.000	
25	   O	4.104	-1.457	2.832	O.co2	1	UNK0	0.000	
26	   O	2.675	-0.561	1.367	O.3	1	UNK0	0.000	
27	   C	3.649	-0.517	0.342	C.3	1	UNK0	0.000	
28	   C	3.045	0.068	-0.938	C.3	1	UNK0	0.000	
29	   C	4.114	0.103	-2.004	C.3	1	UNK0	0.000	
30	   H	-0.347	-2.270	-1.784	 H	1	UNK0	0.000	
31	   H	-2.436	0.035	-5.290	 H	1	UNK0	0.000	
32	   H	-3.632	2.010	-6.227	 H	1	UNK0	0.000	
33	   H	-4.108	3.881	-4.669	 H	1	UNK0	0.000	
34	   H	-3.388	3.732	-2.267	 H	1	UNK0	0.000	
35	   H	-1.331	1.404	1.109	 H	1	UNK0	0.000	
36	   H	-0.434	0.593	2.735	 H	1	UNK0	0.000	
37	   H	3.501	-1.782	5.102	 H	1	UNK0	0.000	
38	   H	2.071	-1.687	7.010	 H	1	UNK0	0.000	
39	   H	-0.240	-0.977	6.882	 H	1	UNK0	0.000	
40	   H	-1.166	-0.349	4.688	 H	1	UNK0	0.000	
41	   H	4.523	0.115	0.576	 H	1	UNK0	0.000	
42	   H	4.024	-1.532	0.086	 H	1	UNK0	0.000	
43	   H	2.207	-0.557	-1.303	 H	1	UNK0	0.000	
44	   H	2.709	1.117	-0.762	 H	1	UNK0	0.000	
45	   H	4.559	1.112	-2.062	 H	1	UNK0	0.000	
46	   H	4.934	-0.628	-1.773	 H	1	UNK0	0.000	
47	   H	3.681	-0.121	-3.001	 H	1	UNK0	0.000	
@<TRIPOS>BOND
1 1 2 1
2 2 3 2
3 2 16 1
4 3 4 1
5 4 5 1
6 4 13 1
7 5 6 2
8 5 15 1
9 6 7 1
10 7 8 2
11 7 12 1
12 8 9 1
13 8 13 1
14 9 10 2
15 10 11 1
16 11 12 2
17 13 14 2
18 15 16 2
19 16 17 1
20 17 18 1
21 18 19 2
22 18 23 1
23 19 20 1
24 19 24 1
25 20 21 2
26 21 22 1
27 22 23 2
28 24 25 2
29 24 26 1
30 26 27 1
31 27 28 1
32 28 29 1
33 3 30 1
34 9 31 1
35 10 32 1
36 11 33 1
37 12 34 1
38 15 35 1
39 17 36 1
40 20 37 1
41 21 38 1
42 22 39 1
43 23 40 1
44 27 41 1
45 27 42 1
46 28 43 1
47 28 44 1
48 29 45 1
49 29 46 1
50 29 47 1
@<TRIPOS>SUBSTRUCTURE
1	UNK0	1	GROUP	1 ****	UNK
