# created with PyMOL 2.3.2
@<TRIPOS>MOLECULE
1743
47 50 1                 
SMALL
USER_CHARGES
@<TRIPOS>ATOM
1	  Cl	2.536	-0.572	-5.536	Cl	1	UNK0	0.000	
2	   C	2.658	-1.117	-3.879	C.2	1	UNK0	0.000	
3	   C	2.497	-0.251	-2.807	C.2	1	UNK0	0.000	
4	   C	2.591	-0.668	-1.496	C.2	1	UNK0	0.000	
5	   C	2.857	-2.010	-1.320	C.2	1	UNK0	0.000	
6	   C	3.025	-2.912	-2.349	C.2	1	UNK0	0.000	
7	   C	2.924	-2.455	-3.637	C.2	1	UNK0	0.000	
8	   N	2.423	0.219	-0.400	N.pl3	1	UNK0	0.000	
9	   C	2.741	-0.050	0.960	C.2	1	UNK0	0.000	
10	   O	3.621	-0.859	1.346	O.2	1	UNK0	0.000	
11	   C	1.851	0.794	1.798	C.3	1	UNK0	0.000	
12	   C	1.309	1.846	0.880	C.3	1	UNK0	0.000	
13	   C	1.893	1.559	-0.458	C.2	1	UNK0	0.000	
14	   O	1.908	2.343	-1.419	O.2	1	UNK0	0.000	
15	   N	0.880	0.078	2.572	N.4	1	UNK0	0.000	
16	   C	-0.343	0.808	2.822	C.3	1	UNK0	0.000	
17	   C	-1.540	0.422	2.068	C.3	1	UNK0	0.000	
18	   N	-1.462	-0.673	1.168	N.pl3	1	UNK0	0.000	
19	   C	-0.395	-1.621	1.292	C.3	1	UNK0	0.000	
20	   C	0.676	-1.293	2.250	C.3	1	UNK0	0.000	
21	   C	-2.408	-0.914	0.117	C.2	1	UNK0	0.000	
22	   C	-2.566	0.035	-0.859	C.2	1	UNK0	0.000	
23	   C	-3.491	-0.227	-1.879	C.2	1	UNK0	0.000	
24	   C	-4.219	-1.405	-1.899	C.2	1	UNK0	0.000	
25	   C	-4.056	-2.361	-0.911	C.2	1	UNK0	0.000	
26	   C	-3.144	-2.108	0.099	C.2	1	UNK0	0.000	
27	   O	-1.849	1.218	-0.854	O.2	1	UNK0	0.000	
28	   H	2.295	0.758	-3.060	 H	1	UNK0	0.000	
29	   H	2.940	-2.396	-0.316	 H	1	UNK0	0.000	
30	   H	3.235	-3.968	-2.178	 H	1	UNK0	0.000	
31	   H	3.049	-3.130	-4.495	 H	1	UNK0	0.000	
32	   H	2.589	1.349	2.468	 H	1	UNK0	0.000	
33	   H	1.630	2.884	1.189	 H	1	UNK0	0.000	
34	   H	0.237	1.866	0.735	 H	1	UNK0	0.000	
35	   H	1.344	0.026	3.545	 H	1	UNK0	0.000	
36	   H	-0.622	0.754	3.924	 H	1	UNK0	0.000	
37	   H	-0.111	1.888	2.700	 H	1	UNK0	0.000	
38	   H	-2.414	0.184	2.759	 H	1	UNK0	0.000	
39	   H	-1.948	1.305	1.484	 H	1	UNK0	0.000	
40	   H	0.008	-1.830	0.260	 H	1	UNK0	0.000	
41	   H	-0.898	-2.602	1.559	 H	1	UNK0	0.000	
42	   H	1.607	-1.748	1.895	 H	1	UNK0	0.000	
43	   H	0.443	-1.875	3.203	 H	1	UNK0	0.000	
44	   H	-3.599	0.547	-2.647	 H	1	UNK0	0.000	
45	   H	-4.933	-1.599	-2.694	 H	1	UNK0	0.000	
46	   H	-4.640	-3.274	-0.952	 H	1	UNK0	0.000	
47	   H	-2.989	-2.834	0.893	 H	1	UNK0	0.000	
@<TRIPOS>BOND
1 1 2 1
2 2 3 2
3 2 7 1
4 3 4 1
5 4 5 2
6 4 8 1
7 5 6 1
8 6 7 2
9 8 9 1
10 8 13 1
11 9 10 2
12 9 11 1
13 11 12 1
14 11 15 1
15 12 13 1
16 13 14 2
17 15 16 1
18 15 20 1
19 16 17 1
20 17 18 1
21 18 19 1
22 18 21 1
23 19 20 1
24 21 22 2
25 21 26 1
26 22 23 1
27 22 27 1
28 23 24 2
29 24 25 1
30 25 26 2
31 3 28 1
32 5 29 1
33 6 30 1
34 7 31 1
35 11 32 1
36 12 33 1
37 12 34 1
38 15 35 1
39 16 36 1
40 16 37 1
41 17 38 1
42 17 39 1
43 19 40 1
44 19 41 1
45 20 42 1
46 20 43 1
47 23 44 1
48 24 45 1
49 25 46 1
50 26 47 1
@<TRIPOS>SUBSTRUCTURE
1	UNK0	1	GROUP	1 ****	UNK
