# created with PyMOL 2.3.2
@<TRIPOS>MOLECULE
1746
43 46 1                 
SMALL
USER_CHARGES
@<TRIPOS>ATOM
1	  Cl	-0.809	-2.187	6.026	Cl	1	UNK0	0.000	
2	   C	-0.023	-1.492	4.634	C.2	1	UNK0	0.000	
3	   C	-0.685	-0.591	3.816	C.2	1	UNK0	0.000	
4	   C	-0.102	-0.024	2.714	C.2	1	UNK0	0.000	
5	   C	1.217	-0.400	2.442	C.2	1	UNK0	0.000	
6	   C	1.883	-1.308	3.266	C.2	1	UNK0	0.000	
7	   C	1.275	-1.865	4.371	C.2	1	UNK0	0.000	
8	   N	-0.704	0.899	1.825	N.pl3	1	UNK0	0.000	
9	   C	-0.053	2.098	1.421	C.2	1	UNK0	0.000	
10	   O	1.105	2.397	1.866	O.2	1	UNK0	0.000	
11	   N	-0.731	2.954	0.507	N.pl3	1	UNK0	0.000	
12	   C	-2.016	2.649	-0.005	C.2	1	UNK0	0.000	
13	   O	-2.789	3.537	-0.495	O.2	1	UNK0	0.000	
14	   C	-2.474	1.247	0.030	C.3	1	UNK0	0.000	
15	   C	-1.988	0.636	1.291	C.2	1	UNK0	0.000	
16	   O	-2.727	-0.170	1.959	O.2	1	UNK0	0.000	
17	   C	-1.851	0.499	-1.118	C.2	1	UNK0	0.000	
18	   C	-1.020	-0.527	-1.040	C.2	1	UNK0	0.000	
19	   C	-0.656	-0.953	-2.409	C.3	1	UNK0	0.000	
20	   N	-1.121	0.097	-3.221	N.pl3	1	UNK0	0.000	
21	   N	-2.068	0.784	-2.490	N.pl3	1	UNK0	0.000	
22	   C	0.785	-1.260	-2.574	C.2	1	UNK0	0.000	
23	   C	1.552	-1.509	-1.476	C.2	1	UNK0	0.000	
24	   C	2.908	-1.792	-1.677	C.2	1	UNK0	0.000	
25	   C	3.441	-1.816	-2.942	C.2	1	UNK0	0.000	
26	   C	2.615	-1.555	-4.029	C.2	1	UNK0	0.000	
27	   C	1.277	-1.272	-3.870	C.2	1	UNK0	0.000	
28	   O	3.731	-2.053	-0.592	O.3	1	UNK0	0.000	
29	   H	-1.724	-0.297	4.036	 H	1	UNK0	0.000	
30	   H	1.713	0.019	1.590	 H	1	UNK0	0.000	
31	   H	2.906	-1.583	3.035	 H	1	UNK0	0.000	
32	   H	1.821	-2.569	4.997	 H	1	UNK0	0.000	
33	   H	-0.247	3.854	0.202	 H	1	UNK0	0.000	
34	   H	-3.579	1.170	-0.007	 H	1	UNK0	0.000	
35	   H	-0.681	-0.965	-0.119	 H	1	UNK0	0.000	
36	   H	-1.186	-1.906	-2.690	 H	1	UNK0	0.000	
37	   H	-0.473	0.680	-3.733	 H	1	UNK0	0.000	
38	   H	-2.842	1.428	-2.874	 H	1	UNK0	0.000	
39	   H	1.216	-1.512	-0.452	 H	1	UNK0	0.000	
40	   H	4.485	-2.032	-3.142	 H	1	UNK0	0.000	
41	   H	3.006	-1.565	-5.051	 H	1	UNK0	0.000	
42	   H	0.631	-1.065	-4.733	 H	1	UNK0	0.000	
43	   H	4.212	-1.263	-0.150	 H	1	UNK0	0.000	
@<TRIPOS>BOND
1 1 2 1
2 2 3 2
3 2 7 1
4 3 4 1
5 4 5 2
6 4 8 1
7 5 6 1
8 6 7 2
9 8 9 1
10 8 15 1
11 9 10 2
12 9 11 1
13 11 12 1
14 12 13 2
15 12 14 1
16 14 15 1
17 14 17 1
18 15 16 2
19 17 18 2
20 17 21 1
21 18 19 1
22 19 20 1
23 19 22 1
24 20 21 1
25 22 23 2
26 22 27 1
27 23 24 1
28 24 25 2
29 24 28 1
30 25 26 1
31 26 27 2
32 3 29 1
33 5 30 1
34 6 31 1
35 7 32 1
36 11 33 1
37 14 34 1
38 18 35 1
39 19 36 1
40 20 37 1
41 21 38 1
42 23 39 1
43 25 40 1
44 26 41 1
45 27 42 1
46 28 43 1
@<TRIPOS>SUBSTRUCTURE
1	UNK0	1	GROUP	1 ****	UNK
