# created with PyMOL 2.3.2
@<TRIPOS>MOLECULE
1747
39 42 1                 
SMALL
USER_CHARGES
@<TRIPOS>ATOM
1	  Cl	1.675	1.589	-1.186	Cl	1	UNK0	0.000	
2	   C	1.484	1.605	0.540	C.2	1	UNK0	0.000	
3	   C	0.643	0.629	1.110	C.2	1	UNK0	0.000	
4	   C	0.542	0.700	2.470	C.2	1	UNK0	0.000	
5	   O	-0.189	-0.140	3.081	O.co2	1	UNK0	0.000	
6	   O	1.187	1.621	3.191	O.3	1	UNK0	0.000	
7	   C	1.967	2.530	2.679	C.2	1	UNK0	0.000	
8	   C	2.132	2.535	1.312	C.2	1	UNK0	0.000	
9	   C	2.960	3.502	0.778	C.2	1	UNK0	0.000	
10	   C	3.608	4.436	1.560	C.2	1	UNK0	0.000	
11	   C	3.446	4.434	2.932	C.2	1	UNK0	0.000	
12	   C	2.622	3.474	3.477	C.2	1	UNK0	0.000	
13	   C	0.001	-0.373	0.245	C.3	1	UNK0	0.000	
14	   N	-0.892	-1.283	0.828	N.3	1	UNK0	0.000	
15	   C	-2.159	-0.837	1.263	C.3	1	UNK0	0.000	
16	   C	-3.325	-1.202	0.361	C.3	1	UNK0	0.000	
17	   C	-2.898	-1.625	-0.979	C.2	1	UNK0	0.000	
18	   N	-3.654	-1.375	-2.090	N.2	1	UNK0	0.000	
19	   C	-3.279	-1.764	-3.320	C.2	1	UNK0	0.000	
20	   N	-2.111	-2.423	-3.433	N.2	1	UNK0	0.000	
21	   C	-1.322	-2.697	-2.366	C.2	1	UNK0	0.000	
22	   C	-1.705	-2.300	-1.110	C.2	1	UNK0	0.000	
23	   C	-0.888	-2.556	0.128	C.3	1	UNK0	0.000	
24	   N	-4.080	-1.496	-4.474	N.pl3	1	UNK0	0.000	
25	   H	3.078	3.491	-0.302	 H	1	UNK0	0.000	
26	   H	4.258	5.194	1.146	 H	1	UNK0	0.000	
27	   H	3.949	5.162	3.561	 H	1	UNK0	0.000	
28	   H	2.484	3.458	4.548	 H	1	UNK0	0.000	
29	   H	-0.432	0.192	-0.629	 H	1	UNK0	0.000	
30	   H	0.872	-0.997	-0.151	 H	1	UNK0	0.000	
31	   H	-2.411	-1.288	2.247	 H	1	UNK0	0.000	
32	   H	-2.183	0.263	1.384	 H	1	UNK0	0.000	
33	   H	-4.025	-0.348	0.248	 H	1	UNK0	0.000	
34	   H	-3.927	-2.037	0.783	 H	1	UNK0	0.000	
35	   H	-0.382	-3.226	-2.450	 H	1	UNK0	0.000	
36	   H	-1.311	-3.365	0.737	 H	1	UNK0	0.000	
37	   H	0.152	-2.798	-0.109	 H	1	UNK0	0.000	
38	   H	-4.549	-0.571	-4.579	 H	1	UNK0	0.000	
39	   H	-4.226	-2.187	-5.232	 H	1	UNK0	0.000	
@<TRIPOS>BOND
1 1 2 1
2 2 3 2
3 2 8 1
4 3 4 1
5 3 13 1
6 4 5 2
7 4 6 1
8 6 7 1
9 7 8 2
10 7 12 1
11 8 9 1
12 9 10 2
13 10 11 1
14 11 12 2
15 13 14 1
16 14 15 1
17 14 23 1
18 15 16 1
19 16 17 1
20 17 18 2
21 17 22 1
22 18 19 1
23 19 20 2
24 19 24 1
25 20 21 1
26 21 22 2
27 22 23 1
28 9 25 1
29 10 26 1
30 11 27 1
31 12 28 1
32 13 29 1
33 13 30 1
34 15 31 1
35 15 32 1
36 16 33 1
37 16 34 1
38 21 35 1
39 23 36 1
40 23 37 1
41 24 38 1
42 24 39 1
@<TRIPOS>SUBSTRUCTURE
1	UNK0	1	GROUP	1 ****	UNK
