# created with PyMOL 2.3.2
@<TRIPOS>MOLECULE
1748
47 50 1                 
SMALL
USER_CHARGES
@<TRIPOS>ATOM
1	  Cl	-2.176	1.389	5.754	Cl	1	UNK0	0.000	
2	   C	-3.150	1.086	4.317	C.2	1	UNK0	0.000	
3	   C	-4.513	1.238	4.416	C.2	1	UNK0	0.000	
4	   C	-5.270	1.001	3.292	C.2	1	UNK0	0.000	
5	   C	-4.665	0.615	2.084	C.2	1	UNK0	0.000	
6	   C	-3.308	0.462	1.982	C.2	1	UNK0	0.000	
7	   C	-2.572	0.707	3.125	C.2	1	UNK0	0.000	
8	   C	-2.650	0.073	0.743	C.2	1	UNK0	0.000	
9	   N	-3.122	-0.172	-0.487	N.pl3	1	UNK0	0.000	
10	   C	-2.111	-0.502	-1.305	C.2	1	UNK0	0.000	
11	   N	-0.930	-0.479	-0.614	N.pl3	1	UNK0	0.000	
12	   C	-1.269	-0.128	0.628	C.2	1	UNK0	0.000	
13	   C	0.391	-0.778	-1.152	C.3	1	UNK0	0.000	
14	   C	1.057	0.433	-1.686	C.2	1	UNK0	0.000	
15	   O	2.193	0.354	-2.185	O.2	1	UNK0	0.000	
16	   N	0.409	1.682	-1.632	N.pl3	1	UNK0	0.000	
17	   C	0.993	2.909	-2.132	C.3	1	UNK0	0.000	
18	   C	2.023	3.447	-1.232	C.2	1	UNK0	0.000	
19	   C	2.671	4.614	-1.587	C.2	1	UNK0	0.000	
20	   C	3.647	5.172	-0.788	C.2	1	UNK0	0.000	
21	   C	3.991	4.555	0.398	C.2	1	UNK0	0.000	
22	   C	3.346	3.387	0.759	C.2	1	UNK0	0.000	
23	   C	2.374	2.830	-0.035	C.2	1	UNK0	0.000	
24	   C	-2.625	-0.790	-2.670	C.3	1	UNK0	0.000	
25	   C	-3.918	-0.027	-2.699	C.3	1	UNK0	0.000	
26	   C	-4.381	-0.187	-1.242	C.3	1	UNK0	0.000	
27	  Cl	-5.270	1.724	5.938	Cl	1	UNK0	0.000	
28	   H	-6.351	1.109	3.323	 H	1	UNK0	0.000	
29	   H	-5.275	0.426	1.212	 H	1	UNK0	0.000	
30	   H	-1.477	0.595	3.082	 H	1	UNK0	0.000	
31	   H	-0.513	-0.027	1.413	 H	1	UNK0	0.000	
32	   H	0.208	-1.465	-2.023	 H	1	UNK0	0.000	
33	   H	1.020	-1.307	-0.411	 H	1	UNK0	0.000	
34	   H	-0.544	1.744	-1.211	 H	1	UNK0	0.000	
35	   H	1.428	2.680	-3.146	 H	1	UNK0	0.000	
36	   H	0.194	3.654	-2.307	 H	1	UNK0	0.000	
37	   H	2.438	5.146	-2.516	 H	1	UNK0	0.000	
38	   H	4.165	6.091	-1.056	 H	1	UNK0	0.000	
39	   H	4.740	4.948	1.051	 H	1	UNK0	0.000	
40	   H	3.634	2.911	1.706	 H	1	UNK0	0.000	
41	   H	1.870	1.930	0.232	 H	1	UNK0	0.000	
42	   H	-2.876	-1.863	-2.799	 H	1	UNK0	0.000	
43	   H	-1.903	-0.444	-3.436	 H	1	UNK0	0.000	
44	   H	-4.654	-0.400	-3.409	 H	1	UNK0	0.000	
45	   H	-3.706	1.048	-2.906	 H	1	UNK0	0.000	
46	   H	-4.985	0.735	-1.069	 H	1	UNK0	0.000	
47	   H	-4.915	-1.125	-1.138	 H	1	UNK0	0.000	
@<TRIPOS>BOND
1 1 2 1
2 2 3 2
3 2 7 1
4 3 4 1
5 3 27 1
6 4 5 2
7 5 6 1
8 6 7 2
9 6 8 1
10 8 9 1
11 8 12 2
12 9 10 2
13 9 26 1
14 10 11 1
15 10 24 1
16 11 12 1
17 11 13 1
18 13 14 1
19 14 15 2
20 14 16 1
21 16 17 1
22 17 18 1
23 18 19 2
24 18 23 1
25 19 20 1
26 20 21 2
27 21 22 1
28 22 23 2
29 24 25 1
30 25 26 1
31 4 28 1
32 5 29 1
33 7 30 1
34 12 31 1
35 13 32 1
36 13 33 1
37 16 34 1
38 17 35 1
39 17 36 1
40 19 37 1
41 20 38 1
42 21 39 1
43 22 40 1
44 23 41 1
45 24 42 1
46 24 43 1
47 25 44 1
48 25 45 1
49 26 46 1
50 26 47 1
@<TRIPOS>SUBSTRUCTURE
1	UNK0	1	GROUP	1 ****	UNK
