# created with PyMOL 2.3.2
@<TRIPOS>MOLECULE
1749
49 52 1                 
SMALL
USER_CHARGES
@<TRIPOS>ATOM
1	   S	1.441	2.298	-2.221	S.O2	1	UNK0	0.000	
2	   O	2.496	2.319	-3.294	O.2	1	UNK0	0.000	
3	   O	1.689	3.519	-1.360	O.2	1	UNK0	0.000	
4	   N	1.630	0.921	-1.286	N.3	1	UNK0	0.000	
5	   C	0.783	0.705	-0.193	C.3	1	UNK0	0.000	
6	   C	0.229	-0.655	0.021	C.3	1	UNK0	0.000	
7	   O	0.415	-1.428	-1.095	O.3	1	UNK0	0.000	
8	   C	1.689	-1.513	-1.582	C.3	1	UNK0	0.000	
9	   C	2.333	-0.174	-1.826	C.3	1	UNK0	0.000	
10	   C	0.755	-1.337	1.219	C.2	1	UNK0	0.000	
11	   O	1.268	-2.471	1.087	O.2	1	UNK0	0.000	
12	   N	0.711	-0.776	2.521	N.pl3	1	UNK0	0.000	
13	   C	1.120	-1.161	3.859	C.3	1	UNK0	0.000	
14	   C	-0.059	-0.362	4.370	C.3	1	UNK0	0.000	
15	   C	0.228	0.468	3.135	C.3	1	UNK0	0.000	
16	   N	-1.276	-1.153	4.279	N.pl3	1	UNK0	0.000	
17	   N	-2.473	-0.833	4.747	N.2	1	UNK0	0.000	
18	   C	-3.368	-1.795	4.486	C.2	1	UNK0	0.000	
19	   C	-2.713	-2.800	3.808	C.2	1	UNK0	0.000	
20	   C	-1.419	-2.360	3.702	C.2	1	UNK0	0.000	
21	   C	-3.283	-4.074	3.307	C.3	1	UNK0	0.000	
22	   C	-0.105	2.443	-3.023	C.2	1	UNK0	0.000	
23	   C	-0.354	3.562	-3.816	C.2	1	UNK0	0.000	
24	   C	-1.536	3.741	-4.473	C.2	1	UNK0	0.000	
25	   C	-2.511	2.767	-4.336	C.2	1	UNK0	0.000	
26	   C	-2.282	1.657	-3.557	C.2	1	UNK0	0.000	
27	   C	-1.092	1.512	-2.917	C.2	1	UNK0	0.000	
28	  Cl	0.929	4.776	-3.957	Cl	1	UNK0	0.000	
29	   H	1.324	1.006	0.737	 H	1	UNK0	0.000	
30	   H	-0.071	1.437	-0.233	 H	1	UNK0	0.000	
31	   H	-0.902	-0.575	0.135	 H	1	UNK0	0.000	
32	   H	2.359	-2.112	-0.934	 H	1	UNK0	0.000	
33	   H	1.620	-2.103	-2.543	 H	1	UNK0	0.000	
34	   H	2.434	-0.037	-2.923	 H	1	UNK0	0.000	
35	   H	3.389	-0.152	-1.434	 H	1	UNK0	0.000	
36	   H	2.108	-0.696	4.070	 H	1	UNK0	0.000	
37	   H	1.083	-2.243	4.080	 H	1	UNK0	0.000	
38	   H	0.094	0.150	5.330	 H	1	UNK0	0.000	
39	   H	-0.694	0.865	2.679	 H	1	UNK0	0.000	
40	   H	1.055	1.161	3.285	 H	1	UNK0	0.000	
41	   H	-4.429	-1.849	4.729	 H	1	UNK0	0.000	
42	   H	-0.621	-2.935	3.206	 H	1	UNK0	0.000	
43	   H	-4.153	-3.835	2.650	 H	1	UNK0	0.000	
44	   H	-2.555	-4.610	2.698	 H	1	UNK0	0.000	
45	   H	-3.592	-4.705	4.181	 H	1	UNK0	0.000	
46	   H	-1.703	4.610	-5.077	 H	1	UNK0	0.000	
47	   H	-3.474	2.851	-4.833	 H	1	UNK0	0.000	
48	   H	-3.043	0.872	-3.435	 H	1	UNK0	0.000	
49	   H	-0.934	0.629	-2.310	 H	1	UNK0	0.000	
@<TRIPOS>BOND
1 1 2 2
2 1 3 2
3 1 4 1
4 1 22 1
5 4 5 1
6 4 9 1
7 5 6 1
8 6 7 1
9 6 10 1
10 7 8 1
11 8 9 1
12 10 11 2
13 10 12 1
14 12 13 1
15 12 15 1
16 13 14 1
17 14 15 1
18 14 16 1
19 16 17 1
20 16 20 1
21 17 18 2
22 18 19 1
23 19 20 2
24 19 21 1
25 22 23 2
26 22 27 1
27 23 24 1
28 23 28 1
29 24 25 2
30 25 26 1
31 26 27 2
32 5 29 1
33 5 30 1
34 6 31 1
35 8 32 1
36 8 33 1
37 9 34 1
38 9 35 1
39 13 36 1
40 13 37 1
41 14 38 1
42 15 39 1
43 15 40 1
44 18 41 1
45 20 42 1
46 21 43 1
47 21 44 1
48 21 45 1
49 24 46 1
50 25 47 1
51 26 48 1
52 27 49 1
@<TRIPOS>SUBSTRUCTURE
1	UNK0	1	GROUP	1 ****	UNK
