# created with PyMOL 2.3.2
@<TRIPOS>MOLECULE
1751
46 49 1                 
SMALL
USER_CHARGES
@<TRIPOS>ATOM
1	  Cl	3.415	0.228	-4.955	Cl	1	UNK0	0.000	
2	   C	2.756	-0.784	-3.693	C.2	1	UNK0	0.000	
3	   C	1.418	-0.705	-3.347	C.2	1	UNK0	0.000	
4	   C	0.889	-1.492	-2.351	C.2	1	UNK0	0.000	
5	   N	-0.331	-1.607	-1.834	N.2	1	UNK0	0.000	
6	   C	-0.352	-2.534	-0.854	C.2	1	UNK0	0.000	
7	   N	0.899	-3.013	-0.760	N.pl3	1	UNK0	0.000	
8	   C	1.689	-2.383	-1.677	C.2	1	UNK0	0.000	
9	   C	3.020	-2.481	-2.002	C.2	1	UNK0	0.000	
10	   C	3.543	-1.689	-2.997	C.2	1	UNK0	0.000	
11	   C	-1.605	-2.846	-0.139	C.3	1	UNK0	0.000	
12	   C	-1.785	-2.050	1.088	C.2	1	UNK0	0.000	
13	   O	-2.404	-2.575	2.055	O.2	1	UNK0	0.000	
14	   N	-1.295	-0.723	1.247	N.pl3	1	UNK0	0.000	
15	   C	-1.508	0.012	2.470	C.3	1	UNK0	0.000	
16	   C	-2.558	1.074	2.228	C.3	1	UNK0	0.000	
17	   N	-1.960	2.368	2.343	N.3	1	UNK0	0.000	
18	   C	-0.537	2.205	2.466	C.3	1	UNK0	0.000	
19	   C	0.244	2.551	1.254	C.3	1	UNK0	0.000	
20	   N	-0.060	3.880	0.758	N.3	1	UNK0	0.000	
21	   C	-1.421	4.266	0.842	C.3	1	UNK0	0.000	
22	   C	-2.371	3.209	1.277	C.3	1	UNK0	0.000	
23	   C	0.452	4.003	-0.596	C.3	1	UNK0	0.000	
24	   C	-0.294	0.778	2.881	C.3	1	UNK0	0.000	
25	   H	0.804	-0.016	-3.878	 H	1	UNK0	0.000	
26	   H	1.195	-3.727	-0.091	 H	1	UNK0	0.000	
27	   H	3.663	-3.172	-1.469	 H	1	UNK0	0.000	
28	   H	4.607	-1.770	-3.259	 H	1	UNK0	0.000	
29	   H	-2.450	-2.782	-0.845	 H	1	UNK0	0.000	
30	   H	-1.545	-3.910	0.162	 H	1	UNK0	0.000	
31	   H	-0.767	-0.295	0.475	 H	1	UNK0	0.000	
32	   H	-1.871	-0.644	3.294	 H	1	UNK0	0.000	
33	   H	-2.907	0.943	1.179	 H	1	UNK0	0.000	
34	   H	-3.429	0.955	2.910	 H	1	UNK0	0.000	
35	   H	-0.204	2.858	3.313	 H	1	UNK0	0.000	
36	   H	0.212	1.819	0.440	 H	1	UNK0	0.000	
37	   H	1.340	2.579	1.553	 H	1	UNK0	0.000	
38	   H	-1.516	5.163	1.474	 H	1	UNK0	0.000	
39	   H	-1.755	4.596	-0.178	 H	1	UNK0	0.000	
40	   H	-3.313	3.724	1.637	 H	1	UNK0	0.000	
41	   H	-2.680	2.556	0.413	 H	1	UNK0	0.000	
42	   H	-0.258	4.573	-1.222	 H	1	UNK0	0.000	
43	   H	0.493	2.975	-1.047	 H	1	UNK0	0.000	
44	   H	1.444	4.446	-0.654	 H	1	UNK0	0.000	
45	   H	0.599	0.366	2.399	 H	1	UNK0	0.000	
46	   H	-0.171	0.712	3.987	 H	1	UNK0	0.000	
@<TRIPOS>BOND
1 1 2 1
2 2 3 2
3 2 10 1
4 3 4 1
5 4 5 1
6 4 8 2
7 5 6 2
8 6 7 1
9 6 11 1
10 7 8 1
11 8 9 1
12 9 10 2
13 11 12 1
14 12 13 2
15 12 14 1
16 14 15 1
17 15 16 1
18 15 24 1
19 16 17 1
20 17 18 1
21 17 22 1
22 18 19 1
23 18 24 1
24 19 20 1
25 20 21 1
26 20 23 1
27 21 22 1
28 3 25 1
29 7 26 1
30 9 27 1
31 10 28 1
32 11 29 1
33 11 30 1
34 14 31 1
35 15 32 1
36 16 33 1
37 16 34 1
38 18 35 1
39 19 36 1
40 19 37 1
41 21 38 1
42 21 39 1
43 22 40 1
44 22 41 1
45 23 42 1
46 23 43 1
47 23 44 1
48 24 45 1
49 24 46 1
@<TRIPOS>SUBSTRUCTURE
1	UNK0	1	GROUP	1 ****	UNK
