# created with PyMOL 2.3.2
@<TRIPOS>MOLECULE
1756
36 39 1                 
SMALL
USER_CHARGES
@<TRIPOS>ATOM
1	   I	-2.598	5.786	-2.312	 I	1	UNK0	0.000	
2	   C	-2.337	4.125	-1.038	C.2	1	UNK0	0.000	
3	   C	-3.165	3.023	-1.081	C.2	1	UNK0	0.000	
4	   C	-2.992	1.926	-0.239	C.2	1	UNK0	0.000	
5	   C	-1.965	1.914	0.681	C.2	1	UNK0	0.000	
6	   C	-1.142	3.024	0.714	C.2	1	UNK0	0.000	
7	   C	-1.312	4.114	-0.121	C.2	1	UNK0	0.000	
8	   N	-1.774	0.800	1.549	N.pl3	1	UNK0	0.000	
9	   C	-1.085	-0.424	1.296	C.2	1	UNK0	0.000	
10	   N	-1.122	-1.230	2.372	N.pl3	1	UNK0	0.000	
11	   C	-0.453	-2.372	2.076	C.2	1	UNK0	0.000	
12	   C	-0.005	-2.239	0.784	C.2	1	UNK0	0.000	
13	   N	-0.392	-1.029	0.285	N.2	1	UNK0	0.000	
14	   N	0.707	-3.210	0.170	N.pl3	1	UNK0	0.000	
15	   C	0.967	-4.324	0.872	C.2	1	UNK0	0.000	
16	   O	1.638	-5.253	0.310	O.2	1	UNK0	0.000	
17	   N	0.543	-4.482	2.135	N.pl3	1	UNK0	0.000	
18	   C	-0.165	-3.527	2.758	C.2	1	UNK0	0.000	
19	   O	-0.575	-3.636	3.924	O.2	1	UNK0	0.000	
20	   C	0.874	-5.712	2.813	C.3	1	UNK0	0.000	
21	   C	1.161	-3.018	-1.205	C.3	1	UNK0	0.000	
22	   C	-1.840	-0.638	3.461	C.3	1	UNK0	0.000	
23	   C	-2.249	0.692	2.886	C.2	1	UNK0	0.000	
24	   O	-2.915	1.611	3.463	O.2	1	UNK0	0.000	
25	   H	-3.981	3.046	-1.820	 H	1	UNK0	0.000	
26	   H	-3.662	1.073	-0.299	 H	1	UNK0	0.000	
27	   H	-0.326	3.008	1.447	 H	1	UNK0	0.000	
28	   H	-0.666	4.979	-0.093	 H	1	UNK0	0.000	
29	   H	0.670	-5.683	3.904	 H	1	UNK0	0.000	
30	   H	0.340	-6.532	2.296	 H	1	UNK0	0.000	
31	   H	1.980	-5.856	2.629	 H	1	UNK0	0.000	
32	   H	2.051	-2.352	-1.232	 H	1	UNK0	0.000	
33	   H	0.366	-2.618	-1.855	 H	1	UNK0	0.000	
34	   H	1.439	-4.022	-1.587	 H	1	UNK0	0.000	
35	   H	-2.804	-1.164	3.656	 H	1	UNK0	0.000	
36	   H	-1.257	-0.426	4.360	 H	1	UNK0	0.000	
@<TRIPOS>BOND
1 1 2 1
2 2 3 2
3 2 7 1
4 3 4 1
5 4 5 2
6 5 6 1
7 5 8 1
8 6 7 2
9 8 9 1
10 8 23 1
11 9 10 1
12 9 13 2
13 10 11 1
14 10 22 1
15 11 12 2
16 11 18 1
17 12 13 1
18 12 14 1
19 14 15 1
20 14 21 1
21 15 16 2
22 15 17 1
23 17 18 1
24 17 20 1
25 18 19 2
26 22 23 1
27 23 24 2
28 3 25 1
29 4 26 1
30 6 27 1
31 7 28 1
32 20 29 1
33 20 30 1
34 20 31 1
35 21 32 1
36 21 33 1
37 21 34 1
38 22 35 1
39 22 36 1
@<TRIPOS>SUBSTRUCTURE
1	UNK0	1	GROUP	1 ****	UNK
