# created with PyMOL 2.3.2
@<TRIPOS>MOLECULE
1757
40 43 1                 
SMALL
USER_CHARGES
@<TRIPOS>ATOM
1	   I	-7.635	-0.431	-3.737	 I	1	UNK0	0.000	
2	   C	-5.633	0.001	-3.251	C.2	1	UNK0	0.000	
3	   C	-4.593	-0.856	-3.529	C.2	1	UNK0	0.000	
4	   C	-3.298	-0.534	-3.194	C.2	1	UNK0	0.000	
5	   C	-2.974	0.656	-2.566	C.2	1	UNK0	0.000	
6	   C	-4.024	1.510	-2.291	C.2	1	UNK0	0.000	
7	   C	-5.333	1.193	-2.626	C.2	1	UNK0	0.000	
8	   N	-1.622	0.958	-2.233	N.pl3	1	UNK0	0.000	
9	   N	-0.802	1.837	-2.794	N.2	1	UNK0	0.000	
10	   N	0.376	1.808	-2.185	N.2	1	UNK0	0.000	
11	   N	0.344	0.903	-1.210	N.pl3	1	UNK0	0.000	
12	   C	-0.897	0.387	-1.253	C.2	1	UNK0	0.000	
13	   S	-1.461	-0.788	-0.243	S.2	1	UNK0	0.000	
14	   C	1.422	0.547	-0.292	C.3	1	UNK0	0.000	
15	   C	1.570	-0.931	-0.325	C.3	1	UNK0	0.000	
16	   O	1.430	-1.331	1.080	O.3	1	UNK0	0.000	
17	   C	2.574	-0.430	1.403	C.2	1	UNK0	0.000	
18	   C	2.084	0.611	1.970	C.2	1	UNK0	0.000	
19	   C	0.946	1.145	1.082	C.3	1	UNK0	0.000	
20	   N	2.588	1.101	3.135	N.pl3	1	UNK0	0.000	
21	   N	1.850	1.015	4.345	N.pl3	1	UNK0	0.000	
22	   C	0.634	1.712	4.541	C.2	1	UNK0	0.000	
23	   S	-0.167	1.564	5.967	S.2	1	UNK0	0.000	
24	   N	0.051	2.545	3.569	N.pl3	1	UNK0	0.000	
25	   O	3.530	-1.242	0.889	O.3	1	UNK0	0.000	
26	   C	3.017	-1.455	-0.515	C.3	1	UNK0	0.000	
27	   H	-4.832	-1.786	-4.017	 H	1	UNK0	0.000	
28	   H	-2.478	-1.226	-3.421	 H	1	UNK0	0.000	
29	   H	-3.814	2.441	-1.806	 H	1	UNK0	0.000	
30	   H	-6.160	1.872	-2.406	 H	1	UNK0	0.000	
31	   H	2.319	1.106	-0.594	 H	1	UNK0	0.000	
32	   H	0.886	-1.485	-0.959	 H	1	UNK0	0.000	
33	   H	1.008	2.220	0.963	 H	1	UNK0	0.000	
34	   H	-0.009	0.738	1.377	 H	1	UNK0	0.000	
35	   H	3.547	1.575	3.235	 H	1	UNK0	0.000	
36	   H	2.263	0.404	5.078	 H	1	UNK0	0.000	
37	   H	-0.839	2.217	3.128	 H	1	UNK0	0.000	
38	   H	0.436	3.462	3.256	 H	1	UNK0	0.000	
39	   H	3.602	-0.857	-1.189	 H	1	UNK0	0.000	
40	   H	2.934	-2.520	-0.660	 H	1	UNK0	0.000	
@<TRIPOS>BOND
1 1 2 1
2 2 3 2
3 2 7 1
4 3 4 1
5 4 5 2
6 5 6 1
7 5 8 1
8 6 7 2
9 8 9 1
10 8 12 1
11 9 10 2
12 10 11 1
13 11 12 1
14 11 14 1
15 12 13 2
16 14 15 1
17 14 19 1
18 15 16 1
19 15 26 1
20 16 17 1
21 17 18 2
22 17 25 1
23 18 19 1
24 18 20 1
25 20 21 1
26 21 22 1
27 22 23 2
28 22 24 1
29 25 26 1
30 3 27 1
31 4 28 1
32 6 29 1
33 7 30 1
34 14 31 1
35 15 32 1
36 19 33 1
37 19 34 1
38 20 35 1
39 21 36 1
40 24 37 1
41 24 38 1
42 26 39 1
43 26 40 1
@<TRIPOS>SUBSTRUCTURE
1	UNK0	1	GROUP	1 ****	UNK
