# created with PyMOL 2.3.2
@<TRIPOS>MOLECULE
1760
59 62 1                 
SMALL
USER_CHARGES
@<TRIPOS>ATOM
1	  Cl	-1.753	0.581	-5.933	Cl	1	UNK0	0.000	
2	   C	-2.209	-0.673	-4.795	C.2	1	UNK0	0.000	
3	   C	-2.081	-0.354	-3.418	C.2	1	UNK0	0.000	
4	   C	-2.448	-1.360	-2.546	C.2	1	UNK0	0.000	
5	   C	-2.907	-2.591	-2.946	C.2	1	UNK0	0.000	
6	   C	-3.024	-2.883	-4.276	C.2	1	UNK0	0.000	
7	   C	-2.666	-1.897	-5.162	C.2	1	UNK0	0.000	
8	   O	-1.646	0.826	-3.027	O.3	1	UNK0	0.000	
9	   C	-1.301	1.705	-2.106	C.3	1	UNK0	0.000	
10	   C	-0.105	1.496	-1.208	C.3	1	UNK0	0.000	
11	   O	1.020	1.434	-2.072	O.3	1	UNK0	0.000	
12	   C	-0.219	0.275	-0.409	C.3	1	UNK0	0.000	
13	   N	0.872	0.023	0.503	N.pl3	1	UNK0	0.000	
14	   C	1.961	-0.696	0.192	C.2	1	UNK0	0.000	
15	   C	2.788	-0.689	1.289	C.2	1	UNK0	0.000	
16	   N	2.180	0.023	2.214	N.2	1	UNK0	0.000	
17	   C	0.977	0.483	1.757	C.2	1	UNK0	0.000	
18	   N	0.076	1.259	2.545	N.pl3	1	UNK0	0.000	
19	   C	-1.230	1.702	2.193	C.3	1	UNK0	0.000	
20	   C	-1.677	2.708	3.270	C.3	1	UNK0	0.000	
21	   N	-1.697	2.141	4.578	N.3	1	UNK0	0.000	
22	   C	-0.577	1.266	4.826	C.3	1	UNK0	0.000	
23	   C	0.545	1.643	3.886	C.3	1	UNK0	0.000	
24	   C	-1.719	3.121	5.629	C.3	1	UNK0	0.000	
25	   N	3.969	-1.360	1.231	N.pl3	1	UNK0	0.000	
26	   C	4.340	-2.026	0.132	C.2	1	UNK0	0.000	
27	   O	5.450	-2.622	0.161	O.2	1	UNK0	0.000	
28	   N	3.573	-2.070	-0.969	N.pl3	1	UNK0	0.000	
29	   C	2.400	-1.411	-0.929	C.2	1	UNK0	0.000	
30	   O	1.692	-1.463	-1.963	O.2	1	UNK0	0.000	
31	   C	4.002	-2.806	-2.154	C.3	1	UNK0	0.000	
32	   C	4.793	-1.304	2.434	C.3	1	UNK0	0.000	
33	   H	-2.409	-1.229	-1.466	 H	1	UNK0	0.000	
34	   H	-3.185	-3.357	-2.210	 H	1	UNK0	0.000	
35	   H	-3.387	-3.855	-4.592	 H	1	UNK0	0.000	
36	   H	-2.763	-2.137	-6.224	 H	1	UNK0	0.000	
37	   H	-2.206	1.976	-1.425	 H	1	UNK0	0.000	
38	   H	-1.177	2.750	-2.610	 H	1	UNK0	0.000	
39	   H	0.079	2.430	-0.626	 H	1	UNK0	0.000	
40	   H	1.122	2.246	-2.599	 H	1	UNK0	0.000	
41	   H	-1.160	0.153	0.113	 H	1	UNK0	0.000	
42	   H	-0.184	-0.600	-1.131	 H	1	UNK0	0.000	
43	   H	-1.967	0.840	2.218	 H	1	UNK0	0.000	
44	   H	-1.342	2.214	1.237	 H	1	UNK0	0.000	
45	   H	-2.661	3.147	2.974	 H	1	UNK0	0.000	
46	   H	-0.938	3.528	3.238	 H	1	UNK0	0.000	
47	   H	-0.868	0.195	4.658	 H	1	UNK0	0.000	
48	   H	-0.235	1.312	5.879	 H	1	UNK0	0.000	
49	   H	1.421	1.028	4.184	 H	1	UNK0	0.000	
50	   H	0.731	2.720	3.983	 H	1	UNK0	0.000	
51	   H	-2.204	4.068	5.281	 H	1	UNK0	0.000	
52	   H	-0.690	3.419	5.955	 H	1	UNK0	0.000	
53	   H	-2.290	2.693	6.489	 H	1	UNK0	0.000	
54	   H	3.250	-3.605	-2.418	 H	1	UNK0	0.000	
55	   H	4.088	-2.142	-3.038	 H	1	UNK0	0.000	
56	   H	4.932	-3.334	-1.909	 H	1	UNK0	0.000	
57	   H	5.441	-2.194	2.470	 H	1	UNK0	0.000	
58	   H	5.408	-0.365	2.336	 H	1	UNK0	0.000	
59	   H	4.161	-1.174	3.316	 H	1	UNK0	0.000	
@<TRIPOS>BOND
1 1 2 1
2 2 3 2
3 2 7 1
4 3 4 1
5 3 8 1
6 4 5 2
7 5 6 1
8 6 7 2
9 8 9 1
10 9 10 1
11 10 11 1
12 10 12 1
13 12 13 1
14 13 14 1
15 13 17 1
16 14 15 2
17 14 29 1
18 15 16 1
19 15 25 1
20 16 17 2
21 17 18 1
22 18 19 1
23 18 23 1
24 19 20 1
25 20 21 1
26 21 22 1
27 21 24 1
28 22 23 1
29 25 26 1
30 25 32 1
31 26 27 2
32 26 28 1
33 28 29 1
34 28 31 1
35 29 30 2
36 4 33 1
37 5 34 1
38 6 35 1
39 7 36 1
40 9 37 1
41 9 38 1
42 10 39 1
43 11 40 1
44 12 41 1
45 12 42 1
46 19 43 1
47 19 44 1
48 20 45 1
49 20 46 1
50 22 47 1
51 22 48 1
52 23 49 1
53 23 50 1
54 24 51 1
55 24 52 1
56 24 53 1
57 31 54 1
58 31 55 1
59 31 56 1
60 32 57 1
61 32 58 1
62 32 59 1
@<TRIPOS>SUBSTRUCTURE
1	UNK0	1	GROUP	1 ****	UNK
