# created with PyMOL 2.3.2
@<TRIPOS>MOLECULE
1761
47 50 1                 
SMALL
USER_CHARGES
@<TRIPOS>ATOM
1	   S	-1.936	-0.349	-2.155	S.O2	1	UNK0	0.000	
2	   O	-3.121	-0.702	-3.044	O.2	1	UNK0	0.000	
3	   O	-1.978	1.161	-2.029	O.2	1	UNK0	0.000	
4	   N	-0.540	-0.803	-2.987	N.3	1	UNK0	0.000	
5	   C	0.710	-0.477	-2.324	C.3	1	UNK0	0.000	
6	   C	1.174	0.873	-2.685	C.2	1	UNK0	0.000	
7	   O	0.464	1.529	-3.517	O.2	1	UNK0	0.000	
8	   N	2.339	1.504	-2.187	N.pl3	1	UNK0	0.000	
9	   C	2.844	2.833	-2.582	C.3	1	UNK0	0.000	
10	   C	3.375	3.358	-1.256	C.3	1	UNK0	0.000	
11	   C	3.941	2.112	-0.625	C.2	1	UNK0	0.000	
12	   C	3.286	1.048	-1.227	C.2	1	UNK0	0.000	
13	   C	3.641	-0.217	-0.808	C.2	1	UNK0	0.000	
14	   C	4.615	-0.371	0.173	C.2	1	UNK0	0.000	
15	   C	5.256	0.699	0.760	C.2	1	UNK0	0.000	
16	   C	4.906	1.967	0.347	C.2	1	UNK0	0.000	
17	   C	-0.523	-0.599	-4.389	C.3	1	UNK0	0.000	
18	   C	-2.113	-1.114	-0.605	C.2	1	UNK0	0.000	
19	   C	-2.181	-0.367	0.546	C.2	1	UNK0	0.000	
20	   C	-2.324	-0.988	1.796	C.2	1	UNK0	0.000	
21	   C	-2.399	-2.345	1.893	C.2	1	UNK0	0.000	
22	   C	-2.332	-3.111	0.742	C.2	1	UNK0	0.000	
23	   C	-2.189	-2.480	-0.498	C.2	1	UNK0	0.000	
24	  Cl	-2.113	-3.529	-1.901	Cl	1	UNK0	0.000	
25	   N	-2.543	-2.946	3.174	N.pl3	1	UNK0	0.000	
26	   C	-2.612	-2.158	4.353	C.2	1	UNK0	0.000	
27	   O	-2.990	-2.665	5.459	O.2	1	UNK0	0.000	
28	   C	-2.228	-0.730	4.248	C.3	1	UNK0	0.000	
29	   O	-2.392	-0.229	2.956	O.3	1	UNK0	0.000	
30	   H	1.423	-1.258	-2.730	 H	1	UNK0	0.000	
31	   H	0.608	-0.620	-1.242	 H	1	UNK0	0.000	
32	   H	2.064	3.458	-3.014	 H	1	UNK0	0.000	
33	   H	3.704	2.743	-3.271	 H	1	UNK0	0.000	
34	   H	2.516	3.701	-0.673	 H	1	UNK0	0.000	
35	   H	4.169	4.095	-1.398	 H	1	UNK0	0.000	
36	   H	3.152	-1.068	-1.253	 H	1	UNK0	0.000	
37	   H	4.881	-1.360	0.489	 H	1	UNK0	0.000	
38	   H	6.019	0.534	1.531	 H	1	UNK0	0.000	
39	   H	5.411	2.803	0.810	 H	1	UNK0	0.000	
40	   H	0.532	-0.462	-4.724	 H	1	UNK0	0.000	
41	   H	-0.905	-1.499	-4.917	 H	1	UNK0	0.000	
42	   H	-1.082	0.295	-4.747	 H	1	UNK0	0.000	
43	   H	-2.130	0.707	0.553	 H	1	UNK0	0.000	
44	   H	-2.393	-4.179	0.846	 H	1	UNK0	0.000	
45	   H	-2.600	-3.990	3.248	 H	1	UNK0	0.000	
46	   H	-2.874	-0.187	4.999	 H	1	UNK0	0.000	
47	   H	-1.168	-0.613	4.570	 H	1	UNK0	0.000	
@<TRIPOS>BOND
1 1 2 2
2 1 3 2
3 1 4 1
4 1 18 1
5 4 5 1
6 4 17 1
7 5 6 1
8 6 7 2
9 6 8 1
10 8 9 1
11 8 12 1
12 9 10 1
13 10 11 1
14 11 12 2
15 11 16 1
16 12 13 1
17 13 14 2
18 14 15 1
19 15 16 2
20 18 19 2
21 18 23 1
22 19 20 1
23 20 21 2
24 20 29 1
25 21 22 1
26 21 25 1
27 22 23 2
28 23 24 1
29 25 26 1
30 26 27 2
31 26 28 1
32 28 29 1
33 5 30 1
34 5 31 1
35 9 32 1
36 9 33 1
37 10 34 1
38 10 35 1
39 13 36 1
40 14 37 1
41 15 38 1
42 16 39 1
43 17 40 1
44 17 41 1
45 17 42 1
46 19 43 1
47 22 44 1
48 25 45 1
49 28 46 1
50 28 47 1
@<TRIPOS>SUBSTRUCTURE
1	UNK0	1	GROUP	1 ****	UNK
