# created with PyMOL 2.3.2
@<TRIPOS>MOLECULE
1762
54 57 1                 
SMALL
USER_CHARGES
@<TRIPOS>ATOM
1	   S	1.247	-3.551	-0.547	S.O2	1	UNK0	0.000	
2	   O	1.463	-4.271	0.786	O.2	1	UNK0	0.000	
3	   O	0.764	-4.670	-1.472	O.2	1	UNK0	0.000	
4	   N	0.017	-2.458	-0.353	N.3	1	UNK0	0.000	
5	   C	-0.511	-1.706	-1.389	C.3	1	UNK0	0.000	
6	   C	-1.729	-0.923	-0.840	C.3	1	UNK0	0.000	
7	   C	-1.232	-0.201	0.340	C.3	1	UNK0	0.000	
8	   C	-1.120	-1.223	1.481	C.3	1	UNK0	0.000	
9	   C	-0.720	-2.531	0.868	C.3	1	UNK0	0.000	
10	   C	-1.948	1.003	0.767	C.2	1	UNK0	0.000	
11	   O	-2.943	0.680	1.564	O.2	1	UNK0	0.000	
12	   N	-1.783	2.336	0.504	N.pl3	1	UNK0	0.000	
13	   C	-2.734	3.293	1.110	C.3	1	UNK0	0.000	
14	   C	-1.918	4.337	1.891	C.3	1	UNK0	0.000	
15	   N	-0.516	3.984	1.969	N.pl3	1	UNK0	0.000	
16	   C	0.139	3.607	0.735	C.2	1	UNK0	0.000	
17	   O	1.339	3.842	0.623	O.2	1	UNK0	0.000	
18	   C	-0.765	2.969	-0.254	C.3	1	UNK0	0.000	
19	   C	-0.158	2.286	-1.375	C.2	1	UNK0	0.000	
20	   C	1.155	1.975	-1.529	C.2	1	UNK0	0.000	
21	   C	1.638	1.368	-2.685	C.2	1	UNK0	0.000	
22	   C	0.782	1.064	-3.719	C.2	1	UNK0	0.000	
23	   C	-0.563	1.362	-3.606	C.2	1	UNK0	0.000	
24	   C	-0.992	1.957	-2.453	C.2	1	UNK0	0.000	
25	   C	2.776	-3.021	-1.099	C.2	1	UNK0	0.000	
26	   C	3.025	-2.580	-2.363	C.2	1	UNK0	0.000	
27	   N	4.245	-2.126	-2.743	N.2	1	UNK0	0.000	
28	   C	5.299	-2.071	-1.928	C.2	1	UNK0	0.000	
29	   C	5.108	-2.508	-0.626	C.2	1	UNK0	0.000	
30	   C	3.875	-2.971	-0.224	C.2	1	UNK0	0.000	
31	  Cl	1.764	-2.644	-3.570	Cl	1	UNK0	0.000	
32	   H	-0.831	-2.333	-2.239	 H	1	UNK0	0.000	
33	   H	0.229	-0.975	-1.754	 H	1	UNK0	0.000	
34	   H	-2.413	-1.756	-0.483	 H	1	UNK0	0.000	
35	   H	-2.277	-0.399	-1.603	 H	1	UNK0	0.000	
36	   H	-0.159	0.101	0.175	 H	1	UNK0	0.000	
37	   H	-0.391	-0.826	2.211	 H	1	UNK0	0.000	
38	   H	-2.138	-1.290	1.966	 H	1	UNK0	0.000	
39	   H	-0.086	-3.130	1.573	 H	1	UNK0	0.000	
40	   H	-1.615	-3.163	0.705	 H	1	UNK0	0.000	
41	   H	-3.411	2.798	1.804	 H	1	UNK0	0.000	
42	   H	-3.332	3.814	0.340	 H	1	UNK0	0.000	
43	   H	-1.989	5.279	1.316	 H	1	UNK0	0.000	
44	   H	-2.341	4.457	2.910	 H	1	UNK0	0.000	
45	   H	0.016	3.996	2.858	 H	1	UNK0	0.000	
46	   H	-1.242	3.940	-0.748	 H	1	UNK0	0.000	
47	   H	1.865	2.184	-0.742	 H	1	UNK0	0.000	
48	   H	2.698	1.134	-2.772	 H	1	UNK0	0.000	
49	   H	1.134	0.593	-4.627	 H	1	UNK0	0.000	
50	   H	-1.261	1.123	-4.429	 H	1	UNK0	0.000	
51	   H	-2.041	2.189	-2.367	 H	1	UNK0	0.000	
52	   H	6.267	-1.713	-2.221	 H	1	UNK0	0.000	
53	   H	5.937	-2.481	0.071	 H	1	UNK0	0.000	
54	   H	3.689	-3.321	0.786	 H	1	UNK0	0.000	
@<TRIPOS>BOND
1 1 2 2
2 1 3 2
3 1 4 1
4 1 25 1
5 4 5 1
6 4 9 1
7 5 6 1
8 6 7 1
9 7 8 1
10 7 10 1
11 8 9 1
12 10 11 2
13 10 12 1
14 12 13 1
15 12 18 1
16 13 14 1
17 14 15 1
18 15 16 1
19 16 17 2
20 16 18 1
21 18 19 1
22 19 20 2
23 19 24 1
24 20 21 1
25 21 22 2
26 22 23 1
27 23 24 2
28 25 26 2
29 25 30 1
30 26 27 1
31 26 31 1
32 27 28 2
33 28 29 1
34 29 30 2
35 5 32 1
36 5 33 1
37 6 34 1
38 6 35 1
39 7 36 1
40 8 37 1
41 8 38 1
42 9 39 1
43 9 40 1
44 13 41 1
45 13 42 1
46 14 43 1
47 14 44 1
48 15 45 1
49 18 46 1
50 20 47 1
51 21 48 1
52 22 49 1
53 23 50 1
54 24 51 1
55 28 52 1
56 29 53 1
57 30 54 1
@<TRIPOS>SUBSTRUCTURE
1	UNK0	1	GROUP	1 ****	UNK
