# created with PyMOL 2.3.2
@<TRIPOS>MOLECULE
1763
50 53 1                 
SMALL
USER_CHARGES
@<TRIPOS>ATOM
1	   S	-0.278	-1.118	-1.377	S.O2	1	UNK0	0.000	
2	   O	0.328	-2.043	-2.430	O.2	1	UNK0	0.000	
3	   O	0.883	-0.268	-0.912	O.2	1	UNK0	0.000	
4	   N	-1.485	-0.214	-2.148	N.3	1	UNK0	0.000	
5	   C	-2.185	0.705	-1.293	C.3	1	UNK0	0.000	
6	   C	-1.249	1.804	-0.825	C.3	1	UNK0	0.000	
7	   N	-0.422	2.229	-1.919	N.pl3	1	UNK0	0.000	
8	   C	-0.911	1.884	-3.259	C.3	1	UNK0	0.000	
9	   C	-0.992	0.366	-3.370	C.3	1	UNK0	0.000	
10	   C	0.778	2.910	-1.750	C.2	1	UNK0	0.000	
11	   O	1.429	3.229	-2.809	O.2	1	UNK0	0.000	
12	   C	1.416	3.324	-0.476	C.3	1	UNK0	0.000	
13	   C	2.679	2.547	-0.258	C.2	1	UNK0	0.000	
14	   C	2.812	1.689	0.793	C.2	1	UNK0	0.000	
15	   C	3.956	0.958	0.937	C.2	1	UNK0	0.000	
16	   C	4.992	1.075	0.026	C.2	1	UNK0	0.000	
17	   C	4.849	1.941	-1.028	C.2	1	UNK0	0.000	
18	   C	3.681	2.695	-1.186	C.2	1	UNK0	0.000	
19	  Br	6.559	0.020	0.293	Br	1	UNK0	0.000	
20	   C	-0.849	-2.154	-0.103	C.2	1	UNK0	0.000	
21	   C	-1.120	-1.633	1.142	C.2	1	UNK0	0.000	
22	   C	-1.540	-2.433	2.180	C.2	1	UNK0	0.000	
23	   C	-1.699	-3.792	1.990	C.2	1	UNK0	0.000	
24	   C	-1.434	-4.340	0.748	C.2	1	UNK0	0.000	
25	   C	-1.015	-3.519	-0.276	C.2	1	UNK0	0.000	
26	   O	-2.115	-4.579	3.030	O.3	1	UNK0	0.000	
27	   C	-2.760	-4.083	4.189	C.3	1	UNK0	0.000	
28	   C	-2.257	-2.737	4.553	C.2	1	UNK0	0.000	
29	   O	-2.241	-2.416	5.763	O.2	1	UNK0	0.000	
30	   N	-1.826	-1.917	3.480	N.pl3	1	UNK0	0.000	
31	   H	-2.961	1.205	-1.912	 H	1	UNK0	0.000	
32	   H	-2.618	0.180	-0.441	 H	1	UNK0	0.000	
33	   H	-0.592	1.323	-0.064	 H	1	UNK0	0.000	
34	   H	-1.804	2.621	-0.320	 H	1	UNK0	0.000	
35	   H	-1.861	2.387	-3.494	 H	1	UNK0	0.000	
36	   H	-0.160	2.217	-4.000	 H	1	UNK0	0.000	
37	   H	0.002	-0.022	-3.573	 H	1	UNK0	0.000	
38	   H	-1.682	0.136	-4.195	 H	1	UNK0	0.000	
39	   H	0.712	3.047	0.334	 H	1	UNK0	0.000	
40	   H	1.572	4.406	-0.410	 H	1	UNK0	0.000	
41	   H	2.018	1.595	1.501	 H	1	UNK0	0.000	
42	   H	4.081	0.264	1.775	 H	1	UNK0	0.000	
43	   H	5.680	2.006	-1.729	 H	1	UNK0	0.000	
44	   H	3.634	3.352	-2.032	 H	1	UNK0	0.000	
45	   H	-1.022	-0.579	1.370	 H	1	UNK0	0.000	
46	   H	-1.569	-5.406	0.638	 H	1	UNK0	0.000	
47	   H	-0.814	-3.951	-1.243	 H	1	UNK0	0.000	
48	   H	-3.853	-4.092	3.960	 H	1	UNK0	0.000	
49	   H	-2.547	-4.787	5.013	 H	1	UNK0	0.000	
50	   H	-1.713	-0.895	3.639	 H	1	UNK0	0.000	
@<TRIPOS>BOND
1 1 2 2
2 1 3 2
3 1 4 1
4 1 20 1
5 4 5 1
6 4 9 1
7 5 6 1
8 6 7 1
9 7 8 1
10 7 10 1
11 8 9 1
12 10 11 2
13 10 12 1
14 12 13 1
15 13 14 2
16 13 18 1
17 14 15 1
18 15 16 2
19 16 17 1
20 16 19 1
21 17 18 2
22 20 21 2
23 20 25 1
24 21 22 1
25 22 23 2
26 22 30 1
27 23 24 1
28 23 26 1
29 24 25 2
30 26 27 1
31 27 28 1
32 28 29 2
33 28 30 1
34 5 31 1
35 5 32 1
36 6 33 1
37 6 34 1
38 8 35 1
39 8 36 1
40 9 37 1
41 9 38 1
42 12 39 1
43 12 40 1
44 14 41 1
45 15 42 1
46 17 43 1
47 18 44 1
48 21 45 1
49 24 46 1
50 25 47 1
51 27 48 1
52 27 49 1
53 30 50 1
@<TRIPOS>SUBSTRUCTURE
1	UNK0	1	GROUP	1 ****	UNK
