# created with PyMOL 2.3.2
@<TRIPOS>MOLECULE
1766
49 52 1                 
SMALL
USER_CHARGES
@<TRIPOS>ATOM
1	  Br	2.598	1.562	-3.391	Br	1	UNK0	0.000	
2	   C	4.125	0.451	-3.194	C.2	1	UNK0	0.000	
3	   C	4.012	-0.897	-2.832	C.2	1	UNK0	0.000	
4	   C	5.132	-1.675	-2.697	C.2	1	UNK0	0.000	
5	   C	6.378	-1.099	-2.928	C.2	1	UNK0	0.000	
6	   C	6.519	0.225	-3.287	C.2	1	UNK0	0.000	
7	   C	5.370	0.963	-3.409	C.2	1	UNK0	0.000	
8	   N	2.734	-1.412	-2.614	N.pl3	1	UNK0	0.000	
9	   C	2.388	-2.711	-2.249	C.2	1	UNK0	0.000	
10	   O	3.250	-3.595	-2.070	O.2	1	UNK0	0.000	
11	   C	0.918	-3.074	-2.060	C.3	1	UNK0	0.000	
12	   N	0.102	-1.917	-2.314	N.pl3	1	UNK0	0.000	
13	   N	-0.394	-1.582	-3.483	N.pl3	1	UNK0	0.000	
14	   N	-1.087	-0.460	-3.309	N.pl3	1	UNK0	0.000	
15	   C	-1.036	-0.072	-2.022	C.2	1	UNK0	0.000	
16	   C	-0.283	-1.005	-1.414	C.2	1	UNK0	0.000	
17	   C	-0.229	-0.606	-0.085	C.2	1	UNK0	0.000	
18	   O	0.391	-1.230	0.812	O.2	1	UNK0	0.000	
19	   N	-0.923	0.528	0.117	N.pl3	1	UNK0	0.000	
20	   C	-1.427	0.864	-1.086	C.2	1	UNK0	0.000	
21	   O	-2.141	1.887	-1.276	O.2	1	UNK0	0.000	
22	   C	-1.082	1.221	1.362	C.2	1	UNK0	0.000	
23	   C	-1.171	0.545	2.562	C.2	1	UNK0	0.000	
24	   C	-1.325	1.210	3.772	C.2	1	UNK0	0.000	
25	   C	-1.392	2.588	3.779	C.2	1	UNK0	0.000	
26	   C	-1.307	3.303	2.592	C.2	1	UNK0	0.000	
27	   C	-1.154	2.600	1.413	C.2	1	UNK0	0.000	
28	   O	-1.546	3.229	4.999	O.3	1	UNK0	0.000	
29	   C	-1.616	4.637	5.018	C.3	1	UNK0	0.000	
30	   O	-1.413	0.525	4.976	O.3	1	UNK0	0.000	
31	   C	-1.345	-0.890	4.979	C.3	1	UNK0	0.000	
32	   H	5.162	-2.712	-2.425	 H	1	UNK0	0.000	
33	   H	7.248	-1.723	-2.818	 H	1	UNK0	0.000	
34	   H	7.500	0.648	-3.460	 H	1	UNK0	0.000	
35	   H	5.485	2.008	-3.692	 H	1	UNK0	0.000	
36	   H	1.911	-0.736	-2.741	 H	1	UNK0	0.000	
37	   H	0.725	-3.870	-2.833	 H	1	UNK0	0.000	
38	   H	0.830	-3.446	-1.033	 H	1	UNK0	0.000	
39	   H	-0.276	-2.096	-4.405	 H	1	UNK0	0.000	
40	   H	-1.590	0.038	-4.061	 H	1	UNK0	0.000	
41	   H	-1.118	-0.542	2.566	 H	1	UNK0	0.000	
42	   H	-1.363	4.398	2.616	 H	1	UNK0	0.000	
43	   H	-1.085	3.131	0.468	 H	1	UNK0	0.000	
44	   H	-0.664	5.006	4.565	 H	1	UNK0	0.000	
45	   H	-1.614	5.022	6.061	 H	1	UNK0	0.000	
46	   H	-2.436	5.045	4.414	 H	1	UNK0	0.000	
47	   H	-1.580	-1.266	6.009	 H	1	UNK0	0.000	
48	   H	-0.309	-1.260	4.774	 H	1	UNK0	0.000	
49	   H	-2.002	-1.344	4.221	 H	1	UNK0	0.000	
@<TRIPOS>BOND
1 1 2 1
2 2 3 2
3 2 7 1
4 3 4 1
5 3 8 1
6 4 5 2
7 5 6 1
8 6 7 2
9 8 9 1
10 9 10 2
11 9 11 1
12 11 12 1
13 12 13 1
14 12 16 1
15 13 14 1
16 14 15 1
17 15 16 2
18 15 20 1
19 16 17 1
20 17 18 2
21 17 19 1
22 19 20 1
23 19 22 1
24 20 21 2
25 22 23 2
26 22 27 1
27 23 24 1
28 24 25 2
29 24 30 1
30 25 26 1
31 25 28 1
32 26 27 2
33 28 29 1
34 30 31 1
35 4 32 1
36 5 33 1
37 6 34 1
38 7 35 1
39 8 36 1
40 11 37 1
41 11 38 1
42 13 39 1
43 14 40 1
44 23 41 1
45 26 42 1
46 27 43 1
47 29 44 1
48 29 45 1
49 29 46 1
50 31 47 1
51 31 48 1
52 31 49 1
@<TRIPOS>SUBSTRUCTURE
1	UNK0	1	GROUP	1 ****	UNK
