# created with PyMOL 2.3.2
@<TRIPOS>MOLECULE
1771
48 51 1                 
SMALL
USER_CHARGES
@<TRIPOS>ATOM
1	   S	-1.498	-2.024	1.752	S.O2	1	UNK0	0.000	
2	   O	-2.842	-1.337	1.944	O.2	1	UNK0	0.000	
3	   O	-1.184	-2.807	2.932	O.2	1	UNK0	0.000	
4	   N	-0.396	-0.819	1.242	N.pl3	1	UNK0	0.000	
5	   N	-0.791	-0.091	0.135	N.2	1	UNK0	0.000	
6	   C	0.133	0.751	-0.229	C.2	1	UNK0	0.000	
7	   C	1.161	0.550	0.696	C.2	1	UNK0	0.000	
8	   C	0.830	-0.430	1.610	C.2	1	UNK0	0.000	
9	   C	1.725	-1.056	2.595	C.2	1	UNK0	0.000	
10	   C	1.356	-1.857	3.676	C.2	1	UNK0	0.000	
11	   N	2.429	-2.450	4.243	N.pl3	1	UNK0	0.000	
12	   N	3.459	-2.059	3.571	N.2	1	UNK0	0.000	
13	   C	3.089	-1.206	2.549	C.2	1	UNK0	0.000	
14	   C	4.093	-0.692	1.584	C.3	1	UNK0	0.000	
15	   C	2.436	-3.350	5.379	C.3	1	UNK0	0.000	
16	  Cl	2.568	1.623	0.666	Cl	1	UNK0	0.000	
17	   C	0.160	1.708	-1.337	C.2	1	UNK0	0.000	
18	   C	1.105	1.878	-2.325	C.2	1	UNK0	0.000	
19	   N	0.753	2.871	-3.156	N.pl3	1	UNK0	0.000	
20	   N	-0.400	3.333	-2.708	N.2	1	UNK0	0.000	
21	   C	-0.804	2.668	-1.614	C.2	1	UNK0	0.000	
22	   C	-2.042	2.920	-0.859	C.3	1	UNK0	0.000	
23	   C	1.505	3.349	-4.328	C.3	1	UNK0	0.000	
24	   C	-1.714	-3.200	0.420	C.2	1	UNK0	0.000	
25	   C	-2.636	-3.164	-0.599	C.2	1	UNK0	0.000	
26	   N	-2.451	-4.251	-1.396	N.pl3	1	UNK0	0.000	
27	   N	-1.455	-4.931	-0.890	N.2	1	UNK0	0.000	
28	   C	-0.972	-4.335	0.214	C.2	1	UNK0	0.000	
29	   C	-3.208	-4.585	-2.569	C.3	1	UNK0	0.000	
30	   H	0.394	-1.964	4.101	 H	1	UNK0	0.000	
31	   H	5.015	-1.421	1.643	 H	1	UNK0	0.000	
32	   H	3.800	-0.786	0.531	 H	1	UNK0	0.000	
33	   H	4.564	0.235	1.923	 H	1	UNK0	0.000	
34	   H	3.164	-3.067	6.149	 H	1	UNK0	0.000	
35	   H	1.426	-3.345	5.857	 H	1	UNK0	0.000	
36	   H	2.594	-4.415	5.048	 H	1	UNK0	0.000	
37	   H	2.008	1.267	-2.393	 H	1	UNK0	0.000	
38	   H	-2.066	2.243	0.033	 H	1	UNK0	0.000	
39	   H	-2.045	3.943	-0.456	 H	1	UNK0	0.000	
40	   H	-2.930	2.722	-1.487	 H	1	UNK0	0.000	
41	   H	2.256	2.591	-4.620	 H	1	UNK0	0.000	
42	   H	0.774	3.425	-5.154	 H	1	UNK0	0.000	
43	   H	2.016	4.284	-4.098	 H	1	UNK0	0.000	
44	   H	-3.374	-2.374	-0.706	 H	1	UNK0	0.000	
45	   H	-0.149	-4.729	0.788	 H	1	UNK0	0.000	
46	   H	-4.268	-4.860	-2.341	 H	1	UNK0	0.000	
47	   H	-2.788	-5.449	-3.110	 H	1	UNK0	0.000	
48	   H	-3.222	-3.742	-3.298	 H	1	UNK0	0.000	
@<TRIPOS>BOND
1 1 2 2
2 1 3 2
3 1 4 1
4 1 24 1
5 4 5 1
6 4 8 1
7 5 6 2
8 6 7 1
9 6 17 1
10 7 8 2
11 7 16 1
12 8 9 1
13 9 10 2
14 9 13 1
15 10 11 1
16 11 12 1
17 11 15 1
18 12 13 2
19 13 14 1
20 17 18 2
21 17 21 1
22 18 19 1
23 19 20 1
24 19 23 1
25 20 21 2
26 21 22 1
27 24 25 2
28 24 28 1
29 25 26 1
30 26 27 1
31 26 29 1
32 27 28 2
33 10 30 1
34 14 31 1
35 14 32 1
36 14 33 1
37 15 34 1
38 15 35 1
39 15 36 1
40 18 37 1
41 22 38 1
42 22 39 1
43 22 40 1
44 23 41 1
45 23 42 1
46 23 43 1
47 25 44 1
48 28 45 1
49 29 46 1
50 29 47 1
51 29 48 1
@<TRIPOS>SUBSTRUCTURE
1	UNK0	1	GROUP	1 ****	UNK
