# created with PyMOL 2.3.2
@<TRIPOS>MOLECULE
1774
42 45 1                 
SMALL
USER_CHARGES
@<TRIPOS>ATOM
1	  Cl	3.129	6.907	-3.113	Cl	1	UNK0	0.000	
2	   C	3.157	5.168	-2.856	C.2	1	UNK0	0.000	
3	   C	4.147	4.462	-3.505	C.2	1	UNK0	0.000	
4	   C	4.176	3.102	-3.310	C.2	1	UNK0	0.000	
5	   C	3.244	2.451	-2.488	C.2	1	UNK0	0.000	
6	   C	2.269	3.167	-1.852	C.2	1	UNK0	0.000	
7	   C	2.252	4.532	-2.057	C.2	1	UNK0	0.000	
8	   C	1.305	2.508	-1.004	C.2	1	UNK0	0.000	
9	   O	0.433	3.269	-0.447	O.2	1	UNK0	0.000	
10	   N	1.294	1.115	-0.779	N.pl3	1	UNK0	0.000	
11	   C	0.314	0.540	0.068	C.3	1	UNK0	0.000	
12	   C	0.845	-0.268	1.208	C.3	1	UNK0	0.000	
13	   N	-0.228	-1.210	1.522	N.pl3	1	UNK0	0.000	
14	   C	-1.296	-1.068	0.518	C.3	1	UNK0	0.000	
15	   C	-0.577	-0.473	-0.643	C.3	1	UNK0	0.000	
16	   C	-1.817	-2.427	0.288	C.2	1	UNK0	0.000	
17	   O	-1.932	-2.912	-0.867	O.2	1	UNK0	0.000	
18	   N	-2.205	-3.223	1.400	N.pl3	1	UNK0	0.000	
19	   C	-1.777	-2.776	2.707	C.3	1	UNK0	0.000	
20	   C	-1.802	-3.928	3.640	C.3	1	UNK0	0.000	
21	   C	-2.799	-4.852	2.988	C.3	1	UNK0	0.000	
22	   C	-2.958	-4.430	1.575	C.3	1	UNK0	0.000	
23	   C	-0.424	-2.176	2.547	C.2	1	UNK0	0.000	
24	   O	0.538	-2.507	3.295	O.2	1	UNK0	0.000	
25	  Cl	5.323	5.262	-4.539	Cl	1	UNK0	0.000	
26	   H	4.956	2.536	-3.819	 H	1	UNK0	0.000	
27	   H	3.342	1.379	-2.393	 H	1	UNK0	0.000	
28	   H	1.487	5.149	-1.567	 H	1	UNK0	0.000	
29	   H	2.001	0.520	-1.234	 H	1	UNK0	0.000	
30	   H	-0.393	1.296	0.497	 H	1	UNK0	0.000	
31	   H	1.758	-0.819	0.923	 H	1	UNK0	0.000	
32	   H	1.089	0.357	2.103	 H	1	UNK0	0.000	
33	   H	-2.037	-0.363	0.910	 H	1	UNK0	0.000	
34	   H	-0.010	-1.185	-1.244	 H	1	UNK0	0.000	
35	   H	-1.333	0.042	-1.280	 H	1	UNK0	0.000	
36	   H	-2.452	-1.943	2.999	 H	1	UNK0	0.000	
37	   H	-0.841	-4.403	3.848	 H	1	UNK0	0.000	
38	   H	-2.184	-3.547	4.632	 H	1	UNK0	0.000	
39	   H	-2.480	-5.904	3.132	 H	1	UNK0	0.000	
40	   H	-3.765	-4.743	3.549	 H	1	UNK0	0.000	
41	   H	-2.639	-5.233	0.857	 H	1	UNK0	0.000	
42	   H	-4.057	-4.277	1.364	 H	1	UNK0	0.000	
@<TRIPOS>BOND
1 1 2 1
2 2 3 2
3 2 7 1
4 3 4 1
5 3 25 1
6 4 5 2
7 5 6 1
8 6 7 2
9 6 8 1
10 8 9 2
11 8 10 1
12 10 11 1
13 11 12 1
14 11 15 1
15 12 13 1
16 13 14 1
17 13 23 1
18 14 15 1
19 14 16 1
20 16 17 2
21 16 18 1
22 18 19 1
23 18 22 1
24 19 20 1
25 19 23 1
26 20 21 1
27 21 22 1
28 23 24 2
29 4 26 1
30 5 27 1
31 7 28 1
32 10 29 1
33 11 30 1
34 12 31 1
35 12 32 1
36 14 33 1
37 15 34 1
38 15 35 1
39 19 36 1
40 20 37 1
41 20 38 1
42 21 39 1
43 21 40 1
44 22 41 1
45 22 42 1
@<TRIPOS>SUBSTRUCTURE
1	UNK0	1	GROUP	1 ****	UNK
