# created with PyMOL 2.3.2
@<TRIPOS>MOLECULE
1775
61 64 1                 
SMALL
USER_CHARGES
@<TRIPOS>ATOM
1	   S	-2.709	-0.662	1.324	S.O2	1	UNK0	0.000	
2	   O	-2.729	-1.959	2.123	O.2	1	UNK0	0.000	
3	   O	-4.115	-0.115	1.413	O.2	1	UNK0	0.000	
4	   N	-1.683	0.435	2.150	N.3	1	UNK0	0.000	
5	   C	-1.791	1.707	1.455	C.3	1	UNK0	0.000	
6	   C	-0.892	2.747	2.020	C.3	1	UNK0	0.000	
7	   C	-0.302	2.350	3.347	C.3	1	UNK0	0.000	
8	   C	-1.294	1.655	4.241	C.3	1	UNK0	0.000	
9	   C	-2.179	0.689	3.503	C.3	1	UNK0	0.000	
10	   C	0.194	3.035	1.053	C.2	1	UNK0	0.000	
11	   O	0.395	4.171	0.546	O.2	1	UNK0	0.000	
12	   N	1.061	1.987	0.669	N.pl3	1	UNK0	0.000	
13	   C	2.151	2.167	-0.268	C.3	1	UNK0	0.000	
14	   C	2.903	0.871	-0.483	C.3	1	UNK0	0.000	
15	   C	4.021	1.034	-1.436	C.2	1	UNK0	0.000	
16	   C	3.883	0.852	-2.787	C.2	1	UNK0	0.000	
17	   C	4.935	1.008	-3.666	C.2	1	UNK0	0.000	
18	   C	6.169	1.360	-3.166	C.2	1	UNK0	0.000	
19	   C	6.353	1.556	-1.803	C.2	1	UNK0	0.000	
20	   C	5.260	1.387	-0.950	C.2	1	UNK0	0.000	
21	  Cl	7.527	1.567	-4.251	Cl	1	UNK0	0.000	
22	   N	-2.310	-0.938	-0.255	N.3	1	UNK0	0.000	
23	   C	-1.081	-1.497	-0.603	C.3	1	UNK0	0.000	
24	   C	-1.263	-2.702	-1.467	C.3	1	UNK0	0.000	
25	   C	-2.652	-3.270	-1.446	C.3	1	UNK0	0.000	
26	   O	-2.744	-4.197	-2.482	O.3	1	UNK0	0.000	
27	   C	-2.850	-5.446	-1.927	C.3	1	UNK0	0.000	
28	   C	-3.432	-5.165	-0.562	C.3	1	UNK0	0.000	
29	   O	-2.874	-3.929	-0.265	O.3	1	UNK0	0.000	
30	   C	-3.727	-2.250	-1.648	C.3	1	UNK0	0.000	
31	   C	-3.301	-0.854	-1.241	C.3	1	UNK0	0.000	
32	   H	-1.610	1.595	0.366	 H	1	UNK0	0.000	
33	   H	-2.878	2.005	1.538	 H	1	UNK0	0.000	
34	   H	-1.483	3.696	2.104	 H	1	UNK0	0.000	
35	   H	0.633	1.763	3.202	 H	1	UNK0	0.000	
36	   H	-0.002	3.288	3.865	 H	1	UNK0	0.000	
37	   H	-1.905	2.436	4.751	 H	1	UNK0	0.000	
38	   H	-0.715	1.145	5.039	 H	1	UNK0	0.000	
39	   H	-2.285	-0.222	4.087	 H	1	UNK0	0.000	
40	   H	-3.187	1.134	3.373	 H	1	UNK0	0.000	
41	   H	0.916	1.042	1.073	 H	1	UNK0	0.000	
42	   H	2.872	2.882	0.205	 H	1	UNK0	0.000	
43	   H	1.801	2.615	-1.197	 H	1	UNK0	0.000	
44	   H	3.314	0.478	0.453	 H	1	UNK0	0.000	
45	   H	2.169	0.118	-0.860	 H	1	UNK0	0.000	
46	   H	2.937	0.579	-3.192	 H	1	UNK0	0.000	
47	   H	4.813	0.862	-4.719	 H	1	UNK0	0.000	
48	   H	7.330	1.831	-1.441	 H	1	UNK0	0.000	
49	   H	5.421	1.542	0.108	 H	1	UNK0	0.000	
50	   H	-0.451	-1.674	0.287	 H	1	UNK0	0.000	
51	   H	-0.505	-0.744	-1.219	 H	1	UNK0	0.000	
52	   H	-0.574	-3.525	-1.147	 H	1	UNK0	0.000	
53	   H	-1.000	-2.515	-2.545	 H	1	UNK0	0.000	
54	   H	-3.600	-6.092	-2.456	 H	1	UNK0	0.000	
55	   H	-1.894	-5.988	-1.849	 H	1	UNK0	0.000	
56	   H	-3.127	-5.966	0.119	 H	1	UNK0	0.000	
57	   H	-4.537	-5.052	-0.599	 H	1	UNK0	0.000	
58	   H	-4.131	-2.269	-2.700	 H	1	UNK0	0.000	
59	   H	-4.607	-2.502	-1.006	 H	1	UNK0	0.000	
60	   H	-2.876	-0.370	-2.153	 H	1	UNK0	0.000	
61	   H	-4.145	-0.222	-0.921	 H	1	UNK0	0.000	
@<TRIPOS>BOND
1 1 2 2
2 1 3 2
3 1 4 1
4 1 22 1
5 4 5 1
6 4 9 1
7 5 6 1
8 6 7 1
9 6 10 1
10 7 8 1
11 8 9 1
12 10 11 2
13 10 12 1
14 12 13 1
15 13 14 1
16 14 15 1
17 15 16 2
18 15 20 1
19 16 17 1
20 17 18 2
21 18 19 1
22 18 21 1
23 19 20 2
24 22 23 1
25 22 31 1
26 23 24 1
27 24 25 1
28 25 26 1
29 25 29 1
30 25 30 1
31 26 27 1
32 27 28 1
33 28 29 1
34 30 31 1
35 5 32 1
36 5 33 1
37 6 34 1
38 7 35 1
39 7 36 1
40 8 37 1
41 8 38 1
42 9 39 1
43 9 40 1
44 12 41 1
45 13 42 1
46 13 43 1
47 14 44 1
48 14 45 1
49 16 46 1
50 17 47 1
51 19 48 1
52 20 49 1
53 23 50 1
54 23 51 1
55 24 52 1
56 24 53 1
57 27 54 1
58 27 55 1
59 28 56 1
60 28 57 1
61 30 58 1
62 30 59 1
63 31 60 1
64 31 61 1
@<TRIPOS>SUBSTRUCTURE
1	UNK0	1	GROUP	1 ****	UNK
