# created with PyMOL 2.3.2
@<TRIPOS>MOLECULE
1776
54 57 1                 
SMALL
USER_CHARGES
@<TRIPOS>ATOM
1	   S	2.490	-0.826	3.400	S.O2	1	UNK0	0.000	
2	   O	3.789	-0.048	3.575	O.2	1	UNK0	0.000	
3	   O	2.292	-1.576	4.689	O.2	1	UNK0	0.000	
4	   N	1.236	0.280	3.215	N.3	1	UNK0	0.000	
5	   C	1.327	1.167	2.099	C.3	1	UNK0	0.000	
6	   C	-0.058	1.783	1.919	C.3	1	UNK0	0.000	
7	   C	-0.218	2.741	3.080	C.3	1	UNK0	0.000	
8	   C	0.049	2.091	4.395	C.3	1	UNK0	0.000	
9	   C	1.164	1.101	4.411	C.3	1	UNK0	0.000	
10	   C	-1.156	0.820	1.990	C.2	1	UNK0	0.000	
11	   O	-1.986	0.939	2.928	O.2	1	UNK0	0.000	
12	   N	-1.371	-0.249	1.082	N.pl3	1	UNK0	0.000	
13	   C	-0.416	-0.372	0.004	C.3	1	UNK0	0.000	
14	   C	-0.997	-1.043	-1.217	C.3	1	UNK0	0.000	
15	   N	-2.430	-1.072	-1.080	N.pl3	1	UNK0	0.000	
16	   C	-2.952	-1.820	0.038	C.3	1	UNK0	0.000	
17	   C	-2.489	-1.110	1.288	C.3	1	UNK0	0.000	
18	   C	-3.348	-0.430	-1.950	C.2	1	UNK0	0.000	
19	   N	-2.909	0.288	-3.024	N.2	1	UNK0	0.000	
20	   C	-3.769	0.902	-3.856	C.2	1	UNK0	0.000	
21	   C	-5.133	0.827	-3.654	C.2	1	UNK0	0.000	
22	   C	-5.571	0.104	-2.573	C.2	1	UNK0	0.000	
23	   N	-4.676	-0.491	-1.770	N.2	1	UNK0	0.000	
24	   C	2.721	-1.952	2.133	C.2	1	UNK0	0.000	
25	   C	3.536	-1.750	1.036	C.2	1	UNK0	0.000	
26	   C	3.663	-2.715	0.061	C.2	1	UNK0	0.000	
27	   C	2.978	-3.913	0.152	C.2	1	UNK0	0.000	
28	   C	2.167	-4.122	1.237	C.2	1	UNK0	0.000	
29	   C	2.043	-3.154	2.212	C.2	1	UNK0	0.000	
30	  Cl	3.113	-5.153	-1.058	Cl	1	UNK0	0.000	
31	   H	1.784	0.799	1.195	 H	1	UNK0	0.000	
32	   H	1.986	2.023	2.440	 H	1	UNK0	0.000	
33	   H	-0.090	2.412	1.001	 H	1	UNK0	0.000	
34	   H	-1.307	3.040	3.080	 H	1	UNK0	0.000	
35	   H	0.336	3.686	2.927	 H	1	UNK0	0.000	
36	   H	-0.867	1.643	4.851	 H	1	UNK0	0.000	
37	   H	0.344	2.915	5.110	 H	1	UNK0	0.000	
38	   H	1.097	0.496	5.331	 H	1	UNK0	0.000	
39	   H	2.126	1.692	4.422	 H	1	UNK0	0.000	
40	   H	0.461	-0.973	0.320	 H	1	UNK0	0.000	
41	   H	-0.024	0.605	-0.346	 H	1	UNK0	0.000	
42	   H	-0.715	-0.534	-2.164	 H	1	UNK0	0.000	
43	   H	-0.646	-2.094	-1.273	 H	1	UNK0	0.000	
44	   H	-4.044	-1.911	0.028	 H	1	UNK0	0.000	
45	   H	-2.489	-2.832	0.019	 H	1	UNK0	0.000	
46	   H	-3.381	-0.521	1.656	 H	1	UNK0	0.000	
47	   H	-2.330	-1.889	2.054	 H	1	UNK0	0.000	
48	   H	-3.438	1.477	-4.715	 H	1	UNK0	0.000	
49	   H	-5.852	1.302	-4.294	 H	1	UNK0	0.000	
50	   H	-6.645	-0.001	-2.347	 H	1	UNK0	0.000	
51	   H	4.077	-0.818	0.952	 H	1	UNK0	0.000	
52	   H	4.300	-2.580	-0.817	 H	1	UNK0	0.000	
53	   H	1.623	-5.055	1.324	 H	1	UNK0	0.000	
54	   H	1.380	-3.392	3.044	 H	1	UNK0	0.000	
@<TRIPOS>BOND
1 1 2 2
2 1 3 2
3 1 4 1
4 1 24 1
5 4 5 1
6 4 9 1
7 5 6 1
8 6 7 1
9 6 10 1
10 7 8 1
11 8 9 1
12 10 11 2
13 10 12 1
14 12 13 1
15 12 17 1
16 13 14 1
17 14 15 1
18 15 16 1
19 15 18 1
20 16 17 1
21 18 19 2
22 18 23 1
23 19 20 1
24 20 21 2
25 21 22 1
26 22 23 2
27 24 25 2
28 24 29 1
29 25 26 1
30 26 27 2
31 27 28 1
32 27 30 1
33 28 29 2
34 5 31 1
35 5 32 1
36 6 33 1
37 7 34 1
38 7 35 1
39 8 36 1
40 8 37 1
41 9 38 1
42 9 39 1
43 13 40 1
44 13 41 1
45 14 42 1
46 14 43 1
47 16 44 1
48 16 45 1
49 17 46 1
50 17 47 1
51 20 48 1
52 21 49 1
53 22 50 1
54 25 51 1
55 26 52 1
56 28 53 1
57 29 54 1
@<TRIPOS>SUBSTRUCTURE
1	UNK0	1	GROUP	1 ****	UNK
