# created with PyMOL 2.3.2
@<TRIPOS>MOLECULE
1777
50 53 1                 
SMALL
USER_CHARGES
@<TRIPOS>ATOM
1	   S	3.137	2.411	1.206	S.O2	1	UNK0	0.000	
2	   O	4.175	2.089	0.175	O.2	1	UNK0	0.000	
3	   O	3.794	3.233	2.266	O.2	1	UNK0	0.000	
4	   N	2.554	0.981	1.880	N.3	1	UNK0	0.000	
5	   C	1.982	0.029	1.008	C.3	1	UNK0	0.000	
6	   C	0.469	0.024	1.195	C.3	1	UNK0	0.000	
7	   N	0.231	-0.348	2.549	N.pl3	1	UNK0	0.000	
8	   C	0.734	0.648	3.530	C.3	1	UNK0	0.000	
9	   C	2.163	0.996	3.230	C.3	1	UNK0	0.000	
10	   C	-0.386	-1.493	2.997	C.2	1	UNK0	0.000	
11	   O	-0.459	-1.543	4.332	O.2	1	UNK0	0.000	
12	   C	-0.971	-2.654	2.349	C.3	1	UNK0	0.000	
13	   N	-0.976	-2.754	0.919	N.pl3	1	UNK0	0.000	
14	   C	0.010	-3.320	0.066	C.2	1	UNK0	0.000	
15	   O	1.091	-3.804	0.464	O.2	1	UNK0	0.000	
16	   N	-0.419	-3.250	-1.273	N.pl3	1	UNK0	0.000	
17	   C	-1.611	-2.469	-1.361	C.3	1	UNK0	0.000	
18	   C	-2.046	-2.325	0.042	C.2	1	UNK0	0.000	
19	   O	-3.155	-1.903	0.436	O.2	1	UNK0	0.000	
20	   C	-2.659	-3.233	-2.146	C.3	1	UNK0	0.000	
21	   C	-1.391	-1.156	-2.036	C.2	1	UNK0	0.000	
22	   O	-0.366	-0.860	-2.785	O.3	1	UNK0	0.000	
23	   C	-0.446	0.362	-3.238	C.2	1	UNK0	0.000	
24	   C	-1.605	0.916	-2.755	C.2	1	UNK0	0.000	
25	   C	-2.206	-0.071	-1.982	C.2	1	UNK0	0.000	
26	   C	1.880	3.368	0.401	C.2	1	UNK0	0.000	
27	   S	0.458	4.043	1.051	S.3	1	UNK0	0.000	
28	   C	-0.164	4.777	-0.350	C.2	1	UNK0	0.000	
29	   C	0.767	4.475	-1.309	C.2	1	UNK0	0.000	
30	   C	1.830	3.739	-0.909	C.2	1	UNK0	0.000	
31	  Cl	-1.653	5.719	-0.569	Cl	1	UNK0	0.000	
32	   H	2.183	0.292	-0.031	 H	1	UNK0	0.000	
33	   H	2.332	-0.980	1.281	 H	1	UNK0	0.000	
34	   H	0.071	1.072	1.090	 H	1	UNK0	0.000	
35	   H	0.053	-0.555	0.401	 H	1	UNK0	0.000	
36	   H	0.047	1.513	3.434	 H	1	UNK0	0.000	
37	   H	0.685	0.186	4.532	 H	1	UNK0	0.000	
38	   H	2.359	1.995	3.680	 H	1	UNK0	0.000	
39	   H	2.813	0.267	3.794	 H	1	UNK0	0.000	
40	   H	-0.431	-3.568	2.728	 H	1	UNK0	0.000	
41	   H	-2.027	-2.803	2.730	 H	1	UNK0	0.000	
42	   H	0.047	-3.697	-2.117	 H	1	UNK0	0.000	
43	   H	-2.133	-3.882	-2.891	 H	1	UNK0	0.000	
44	   H	-3.308	-2.488	-2.637	 H	1	UNK0	0.000	
45	   H	-3.255	-3.819	-1.432	 H	1	UNK0	0.000	
46	   H	0.271	0.878	-3.890	 H	1	UNK0	0.000	
47	   H	-1.944	1.923	-2.961	 H	1	UNK0	0.000	
48	   H	-3.138	0.067	-1.466	 H	1	UNK0	0.000	
49	   H	0.607	4.844	-2.359	 H	1	UNK0	0.000	
50	   H	2.625	3.457	-1.637	 H	1	UNK0	0.000	
@<TRIPOS>BOND
1 1 2 2
2 1 3 2
3 1 4 1
4 1 26 1
5 4 5 1
6 4 9 1
7 5 6 1
8 6 7 1
9 7 8 1
10 7 10 1
11 8 9 1
12 10 11 2
13 10 12 1
14 12 13 1
15 13 14 1
16 13 18 1
17 14 15 2
18 14 16 1
19 16 17 1
20 17 18 1
21 17 20 1
22 17 21 1
23 18 19 2
24 21 22 1
25 21 25 2
26 22 23 1
27 23 24 2
28 24 25 1
29 26 27 1
30 26 30 2
31 27 28 1
32 28 29 2
33 28 31 1
34 29 30 1
35 5 32 1
36 5 33 1
37 6 34 1
38 6 35 1
39 8 36 1
40 8 37 1
41 9 38 1
42 9 39 1
43 12 40 1
44 12 41 1
45 16 42 1
46 20 43 1
47 20 44 1
48 20 45 1
49 23 46 1
50 24 47 1
51 25 48 1
52 29 49 1
53 30 50 1
@<TRIPOS>SUBSTRUCTURE
1	UNK0	1	GROUP	1 ****	UNK
