# created with PyMOL 2.3.2
@<TRIPOS>MOLECULE
1778
55 58 1                 
SMALL
USER_CHARGES
@<TRIPOS>ATOM
1	  Cl	-5.835	5.117	1.127	Cl	1	UNK0	0.000	
2	   C	-4.792	3.700	1.295	C.2	1	UNK0	0.000	
3	   C	-4.395	2.965	0.212	C.2	1	UNK0	0.000	
4	   C	-3.569	1.852	0.385	C.2	1	UNK0	0.000	
5	   C	-3.141	1.476	1.651	C.2	1	UNK0	0.000	
6	   C	-3.556	2.229	2.713	C.2	1	UNK0	0.000	
7	   C	-4.384	3.346	2.538	C.2	1	UNK0	0.000	
8	   N	-2.307	0.363	1.801	N.pl3	1	UNK0	0.000	
9	   C	-2.075	-0.270	3.056	C.3	1	UNK0	0.000	
10	   C	-0.624	-0.656	3.265	C.3	1	UNK0	0.000	
11	   N	0.190	-0.058	2.156	N.3	1	UNK0	0.000	
12	   C	-0.332	-0.834	0.999	C.3	1	UNK0	0.000	
13	   C	-1.634	-0.173	0.614	C.3	1	UNK0	0.000	
14	   C	1.548	-0.402	2.413	C.3	1	UNK0	0.000	
15	   C	2.622	0.333	1.734	C.3	1	UNK0	0.000	
16	   C	3.919	-0.288	2.195	C.2	1	UNK0	0.000	
17	   O	4.182	-0.231	3.403	O.co2	1	UNK0	0.000	
18	   O	4.736	-0.874	1.285	O.3	1	UNK0	0.000	
19	   C	4.581	-0.794	-0.071	C.2	1	UNK0	0.000	
20	   C	3.539	-0.083	-0.586	C.2	1	UNK0	0.000	
21	   C	2.605	0.573	0.307	C.2	1	UNK0	0.000	
22	   O	1.763	1.370	-0.155	O.2	1	UNK0	0.000	
23	   C	3.524	-0.008	-2.047	C.3	1	UNK0	0.000	
24	   N	2.458	-0.530	-2.785	N.3	1	UNK0	0.000	
25	   C	1.201	0.072	-2.810	C.3	1	UNK0	0.000	
26	   C	0.426	-0.150	-4.103	C.3	1	UNK0	0.000	
27	   O	0.624	-1.422	-4.616	O.3	1	UNK0	0.000	
28	   C	1.974	-1.418	-5.050	C.3	1	UNK0	0.000	
29	   C	2.827	-1.419	-3.836	C.3	1	UNK0	0.000	
30	   H	-4.739	3.267	-0.768	 H	1	UNK0	0.000	
31	   H	-3.291	1.316	-0.516	 H	1	UNK0	0.000	
32	   H	-3.290	2.039	3.735	 H	1	UNK0	0.000	
33	   H	-4.697	3.930	3.409	 H	1	UNK0	0.000	
34	   H	-2.374	0.312	3.941	 H	1	UNK0	0.000	
35	   H	-2.745	-1.183	3.084	 H	1	UNK0	0.000	
36	   H	-0.534	-1.748	3.131	 H	1	UNK0	0.000	
37	   H	-0.214	-0.306	4.214	 H	1	UNK0	0.000	
38	   H	-0.595	-1.857	1.382	 H	1	UNK0	0.000	
39	   H	0.396	-0.888	0.197	 H	1	UNK0	0.000	
40	   H	-1.383	0.651	-0.110	 H	1	UNK0	0.000	
41	   H	-2.317	-0.858	0.063	 H	1	UNK0	0.000	
42	   H	1.699	-0.235	3.528	 H	1	UNK0	0.000	
43	   H	1.665	-1.528	2.336	 H	1	UNK0	0.000	
44	   H	2.688	1.380	2.214	 H	1	UNK0	0.000	
45	   H	5.292	-1.298	-0.703	 H	1	UNK0	0.000	
46	   H	3.611	1.094	-2.345	 H	1	UNK0	0.000	
47	   H	4.480	-0.446	-2.491	 H	1	UNK0	0.000	
48	   H	1.340	1.199	-2.781	 H	1	UNK0	0.000	
49	   H	0.521	-0.181	-1.997	 H	1	UNK0	0.000	
50	   H	-0.642	-0.007	-3.898	 H	1	UNK0	0.000	
51	   H	0.744	0.597	-4.862	 H	1	UNK0	0.000	
52	   H	2.138	-0.537	-5.712	 H	1	UNK0	0.000	
53	   H	2.145	-2.357	-5.602	 H	1	UNK0	0.000	
54	   H	3.854	-1.084	-4.174	 H	1	UNK0	0.000	
55	   H	2.970	-2.456	-3.475	 H	1	UNK0	0.000	
@<TRIPOS>BOND
1 1 2 1
2 2 3 2
3 2 7 1
4 3 4 1
5 4 5 2
6 5 6 1
7 5 8 1
8 6 7 2
9 8 9 1
10 8 13 1
11 9 10 1
12 10 11 1
13 11 12 1
14 11 14 1
15 12 13 1
16 14 15 1
17 15 16 1
18 15 21 1
19 16 17 2
20 16 18 1
21 18 19 1
22 19 20 2
23 20 21 1
24 20 23 1
25 21 22 2
26 23 24 1
27 24 25 1
28 24 29 1
29 25 26 1
30 26 27 1
31 27 28 1
32 28 29 1
33 3 30 1
34 4 31 1
35 6 32 1
36 7 33 1
37 9 34 1
38 9 35 1
39 10 36 1
40 10 37 1
41 12 38 1
42 12 39 1
43 13 40 1
44 13 41 1
45 14 42 1
46 14 43 1
47 15 44 1
48 19 45 1
49 23 46 1
50 23 47 1
51 25 48 1
52 25 49 1
53 26 50 1
54 26 51 1
55 28 52 1
56 28 53 1
57 29 54 1
58 29 55 1
@<TRIPOS>SUBSTRUCTURE
1	UNK0	1	GROUP	1 ****	UNK
