# created with PyMOL 2.3.2
@<TRIPOS>MOLECULE
1779
57 60 1                 
SMALL
USER_CHARGES
@<TRIPOS>ATOM
1	  Cl	0.073	2.223	6.438	Cl	1	UNK0	0.000	
2	   C	0.690	2.053	4.798	C.2	1	UNK0	0.000	
3	   C	-0.178	1.793	3.770	C.2	1	UNK0	0.000	
4	   C	0.249	1.645	2.430	C.2	1	UNK0	0.000	
5	   C	1.603	1.783	2.242	C.2	1	UNK0	0.000	
6	   C	2.506	2.047	3.268	C.2	1	UNK0	0.000	
7	   C	2.030	2.179	4.543	C.2	1	UNK0	0.000	
8	   O	-0.637	1.404	1.523	O.3	1	UNK0	0.000	
9	   C	-1.093	1.157	0.304	C.3	1	UNK0	0.000	
10	   C	-0.696	-0.101	-0.426	C.3	1	UNK0	0.000	
11	   O	-1.263	-0.200	-1.676	O.3	1	UNK0	0.000	
12	   C	-2.598	-0.410	-1.716	C.3	1	UNK0	0.000	
13	   C	-3.249	-1.069	-0.574	C.3	1	UNK0	0.000	
14	   N	-2.342	-1.800	0.330	N.pl3	1	UNK0	0.000	
15	   C	-1.008	-1.337	0.449	C.3	1	UNK0	0.000	
16	   C	-2.867	-2.907	1.007	C.2	1	UNK0	0.000	
17	   O	-4.140	-3.111	0.699	O.2	1	UNK0	0.000	
18	   C	-2.327	-3.831	1.932	C.2	1	UNK0	0.000	
19	   C	-3.142	-4.867	2.430	C.2	1	UNK0	0.000	
20	   N	-2.678	-5.766	3.310	N.2	1	UNK0	0.000	
21	   C	-1.426	-5.727	3.756	C.2	1	UNK0	0.000	
22	   N	-0.609	-4.768	3.318	N.2	1	UNK0	0.000	
23	   C	-1.058	-3.828	2.412	C.2	1	UNK0	0.000	
24	   C	0.792	-0.135	-0.642	C.3	1	UNK0	0.000	
25	   C	1.339	0.970	-1.427	C.2	1	UNK0	0.000	
26	   O	0.721	1.917	-1.946	O.2	1	UNK0	0.000	
27	   N	2.765	0.960	-1.621	N.pl3	1	UNK0	0.000	
28	   C	3.632	-0.073	-1.087	C.3	1	UNK0	0.000	
29	   C	4.390	-0.644	-2.294	C.3	1	UNK0	0.000	
30	   O	5.161	0.387	-2.800	O.3	1	UNK0	0.000	
31	   C	4.370	1.366	-3.399	C.3	1	UNK0	0.000	
32	   C	3.434	2.010	-2.382	C.3	1	UNK0	0.000	
33	   H	-1.228	1.700	4.002	 H	1	UNK0	0.000	
34	   H	2.039	1.704	1.253	 H	1	UNK0	0.000	
35	   H	3.564	2.151	3.098	 H	1	UNK0	0.000	
36	   H	2.668	2.383	5.392	 H	1	UNK0	0.000	
37	   H	-0.968	2.042	-0.421	 H	1	UNK0	0.000	
38	   H	-2.252	1.138	0.385	 H	1	UNK0	0.000	
39	   H	-3.141	0.571	-1.901	 H	1	UNK0	0.000	
40	   H	-2.799	-0.968	-2.684	 H	1	UNK0	0.000	
41	   H	-3.958	-1.848	-1.009	 H	1	UNK0	0.000	
42	   H	-3.964	-0.423	0.008	 H	1	UNK0	0.000	
43	   H	-0.272	-2.112	0.081	 H	1	UNK0	0.000	
44	   H	-0.767	-0.965	1.476	 H	1	UNK0	0.000	
45	   H	-4.167	-4.950	2.105	 H	1	UNK0	0.000	
46	   H	-1.021	-6.445	4.471	 H	1	UNK0	0.000	
47	   H	-0.357	-3.083	2.099	 H	1	UNK0	0.000	
48	   H	1.058	-1.071	-1.263	 H	1	UNK0	0.000	
49	   H	1.370	-0.279	0.266	 H	1	UNK0	0.000	
50	   H	3.059	-0.914	-0.660	 H	1	UNK0	0.000	
51	   H	4.370	0.337	-0.369	 H	1	UNK0	0.000	
52	   H	5.037	-1.446	-1.937	 H	1	UNK0	0.000	
53	   H	3.621	-0.973	-3.014	 H	1	UNK0	0.000	
54	   H	3.808	0.879	-4.207	 H	1	UNK0	0.000	
55	   H	5.053	2.143	-3.795	 H	1	UNK0	0.000	
56	   H	2.737	2.655	-2.920	 H	1	UNK0	0.000	
57	   H	4.095	2.568	-1.677	 H	1	UNK0	0.000	
@<TRIPOS>BOND
1 1 2 1
2 2 3 2
3 2 7 1
4 3 4 1
5 4 5 2
6 4 8 1
7 5 6 1
8 6 7 2
9 8 9 1
10 9 10 1
11 10 11 1
12 10 15 1
13 10 24 1
14 11 12 1
15 12 13 1
16 13 14 1
17 14 15 1
18 14 16 1
19 16 17 2
20 16 18 1
21 18 19 2
22 18 23 1
23 19 20 1
24 20 21 2
25 21 22 1
26 22 23 2
27 24 25 1
28 25 26 2
29 25 27 1
30 27 28 1
31 27 32 1
32 28 29 1
33 29 30 1
34 30 31 1
35 31 32 1
36 3 33 1
37 5 34 1
38 6 35 1
39 7 36 1
40 9 37 1
41 9 38 1
42 12 39 1
43 12 40 1
44 13 41 1
45 13 42 1
46 15 43 1
47 15 44 1
48 19 45 1
49 21 46 1
50 23 47 1
51 24 48 1
52 24 49 1
53 28 50 1
54 28 51 1
55 29 52 1
56 29 53 1
57 31 54 1
58 31 55 1
59 32 56 1
60 32 57 1
@<TRIPOS>SUBSTRUCTURE
1	UNK0	1	GROUP	1 ****	UNK
