# created with PyMOL 2.3.2
@<TRIPOS>MOLECULE
1780
42 45 1                 
SMALL
USER_CHARGES
@<TRIPOS>ATOM
1	  Cl	0.083	-8.109	-2.650	Cl	1	UNK0	0.000	
2	   C	0.555	-6.413	-2.698	C.2	1	UNK0	0.000	
3	   C	0.855	-5.805	-3.893	C.2	1	UNK0	0.000	
4	   C	1.228	-4.479	-3.963	C.2	1	UNK0	0.000	
5	   C	1.322	-3.676	-2.815	C.2	1	UNK0	0.000	
6	   C	1.018	-4.310	-1.643	C.2	1	UNK0	0.000	
7	   C	0.639	-5.653	-1.564	C.2	1	UNK0	0.000	
8	   C	1.716	-2.309	-2.977	C.2	1	UNK0	0.000	
9	   O	1.945	-1.965	-4.232	O.2	1	UNK0	0.000	
10	   N	1.898	-1.283	-2.036	N.pl3	1	UNK0	0.000	
11	   C	2.316	0.032	-2.575	C.3	1	UNK0	0.000	
12	   C	1.399	1.127	-2.093	C.3	1	UNK0	0.000	
13	   N	1.024	0.863	-0.721	N.pl3	1	UNK0	0.000	
14	   C	1.898	-0.004	0.042	C.3	1	UNK0	0.000	
15	   C	1.711	-1.416	-0.617	C.3	1	UNK0	0.000	
16	   C	-0.141	1.413	-0.119	C.2	1	UNK0	0.000	
17	   N	-0.476	1.140	1.158	N.2	1	UNK0	0.000	
18	   N	-1.550	1.633	1.750	N.pl3	1	UNK0	0.000	
19	   C	-2.400	2.465	1.086	C.2	1	UNK0	0.000	
20	   N	-3.413	2.832	1.897	N.2	1	UNK0	0.000	
21	   N	-3.200	2.230	3.072	N.2	1	UNK0	0.000	
22	   C	-2.072	1.505	2.982	C.2	1	UNK0	0.000	
23	   C	-1.531	0.702	4.106	C.3	1	UNK0	0.000	
24	   C	-2.127	2.786	-0.208	C.2	1	UNK0	0.000	
25	   C	-0.989	2.252	-0.807	C.2	1	UNK0	0.000	
26	   H	0.781	-6.432	-4.783	 H	1	UNK0	0.000	
27	   H	1.451	-4.062	-4.936	 H	1	UNK0	0.000	
28	   H	1.060	-3.786	-0.724	 H	1	UNK0	0.000	
29	   H	0.407	-6.114	-0.620	 H	1	UNK0	0.000	
30	   H	3.367	0.173	-2.260	 H	1	UNK0	0.000	
31	   H	2.283	0.010	-3.665	 H	1	UNK0	0.000	
32	   H	0.541	1.288	-2.762	 H	1	UNK0	0.000	
33	   H	2.031	2.062	-2.058	 H	1	UNK0	0.000	
34	   H	1.629	-0.081	1.095	 H	1	UNK0	0.000	
35	   H	2.957	0.223	-0.098	 H	1	UNK0	0.000	
36	   H	2.384	-2.110	-0.118	 H	1	UNK0	0.000	
37	   H	0.648	-1.616	-0.397	 H	1	UNK0	0.000	
38	   H	-0.704	0.031	3.749	 H	1	UNK0	0.000	
39	   H	-2.316	0.061	4.509	 H	1	UNK0	0.000	
40	   H	-1.063	1.355	4.886	 H	1	UNK0	0.000	
41	   H	-2.779	3.440	-0.758	 H	1	UNK0	0.000	
42	   H	-0.786	2.515	-1.830	 H	1	UNK0	0.000	
@<TRIPOS>BOND
1 1 2 1
2 2 3 2
3 2 7 1
4 3 4 1
5 4 5 2
6 5 6 1
7 5 8 1
8 6 7 2
9 8 9 2
10 8 10 1
11 10 11 1
12 10 15 1
13 11 12 1
14 12 13 1
15 13 14 1
16 13 16 1
17 14 15 1
18 16 17 2
19 16 25 1
20 17 18 1
21 18 19 1
22 18 22 1
23 19 20 2
24 19 24 1
25 20 21 1
26 21 22 2
27 22 23 1
28 24 25 2
29 3 26 1
30 4 27 1
31 6 28 1
32 7 29 1
33 11 30 1
34 11 31 1
35 12 32 1
36 12 33 1
37 14 34 1
38 14 35 1
39 15 36 1
40 15 37 1
41 23 38 1
42 23 39 1
43 23 40 1
44 24 41 1
45 25 42 1
@<TRIPOS>SUBSTRUCTURE
1	UNK0	1	GROUP	1 ****	UNK
