# created with PyMOL 2.3.2
@<TRIPOS>MOLECULE
1786
41 44 1                 
SMALL
USER_CHARGES
@<TRIPOS>ATOM
1	  Cl	5.022	1.253	5.983	Cl	1	UNK0	0.000	
2	   C	4.077	1.039	4.513	C.2	1	UNK0	0.000	
3	   C	4.555	1.403	3.274	C.2	1	UNK0	0.000	
4	   C	3.809	1.235	2.112	C.2	1	UNK0	0.000	
5	   C	2.545	0.686	2.174	C.2	1	UNK0	0.000	
6	   C	2.067	0.323	3.411	C.2	1	UNK0	0.000	
7	   C	2.812	0.491	4.576	C.2	1	UNK0	0.000	
8	   N	1.770	0.508	0.987	N.pl3	1	UNK0	0.000	
9	   C	2.193	0.010	-0.194	C.2	1	UNK0	0.000	
10	   C	1.140	-0.000	-1.094	C.2	1	UNK0	0.000	
11	   N	0.075	0.503	-0.426	N.pl3	1	UNK0	0.000	
12	   N	-0.987	0.520	-1.250	N.pl3	1	UNK0	0.000	
13	   C	-0.546	0.014	-2.440	C.2	1	UNK0	0.000	
14	   O	-1.246	-0.134	-3.472	O.2	1	UNK0	0.000	
15	   N	0.735	-0.296	-2.337	N.pl3	1	UNK0	0.000	
16	   C	-2.308	0.969	-1.023	C.3	1	UNK0	0.000	
17	   C	-3.310	0.050	-0.545	C.2	1	UNK0	0.000	
18	   O	-4.485	0.568	-0.380	O.2	1	UNK0	0.000	
19	   N	-3.206	-1.319	-0.232	N.pl3	1	UNK0	0.000	
20	   C	-2.146	-2.283	-0.252	C.3	1	UNK0	0.000	
21	   C	-2.236	-2.852	1.176	C.3	1	UNK0	0.000	
22	   C	-3.723	-2.874	1.417	C.3	1	UNK0	0.000	
23	   C	-4.352	-2.150	0.248	C.3	1	UNK0	0.000	
24	   C	0.470	0.800	0.810	C.2	1	UNK0	0.000	
25	   O	-0.266	1.284	1.691	O.2	1	UNK0	0.000	
26	   H	5.550	1.833	3.236	 H	1	UNK0	0.000	
27	   H	4.200	1.526	1.141	 H	1	UNK0	0.000	
28	   H	1.083	-0.104	3.460	 H	1	UNK0	0.000	
29	   H	2.430	0.203	5.545	 H	1	UNK0	0.000	
30	   H	3.204	-0.331	-0.405	 H	1	UNK0	0.000	
31	   H	1.333	-0.700	-3.083	 H	1	UNK0	0.000	
32	   H	-2.668	1.441	-1.997	 H	1	UNK0	0.000	
33	   H	-2.220	1.898	-0.361	 H	1	UNK0	0.000	
34	   H	-1.149	-1.938	-0.468	 H	1	UNK0	0.000	
35	   H	-2.455	-3.158	-0.903	 H	1	UNK0	0.000	
36	   H	-1.775	-2.062	1.819	 H	1	UNK0	0.000	
37	   H	-1.754	-3.826	1.257	 H	1	UNK0	0.000	
38	   H	-4.061	-3.926	1.505	 H	1	UNK0	0.000	
39	   H	-3.948	-2.364	2.379	 H	1	UNK0	0.000	
40	   H	-5.202	-1.527	0.512	 H	1	UNK0	0.000	
41	   H	-4.562	-2.916	-0.533	 H	1	UNK0	0.000	
@<TRIPOS>BOND
1 1 2 1
2 2 3 2
3 2 7 1
4 3 4 1
5 4 5 2
6 5 6 1
7 5 8 1
8 6 7 2
9 8 9 1
10 8 24 1
11 9 10 2
12 10 11 1
13 10 15 1
14 11 12 1
15 11 24 1
16 12 13 1
17 12 16 1
18 13 14 2
19 13 15 1
20 16 17 1
21 17 18 2
22 17 19 1
23 19 20 1
24 19 23 1
25 20 21 1
26 21 22 1
27 22 23 1
28 24 25 2
29 3 26 1
30 4 27 1
31 6 28 1
32 7 29 1
33 9 30 1
34 15 31 1
35 16 32 1
36 16 33 1
37 20 34 1
38 20 35 1
39 21 36 1
40 21 37 1
41 22 38 1
42 22 39 1
43 23 40 1
44 23 41 1
@<TRIPOS>SUBSTRUCTURE
1	UNK0	1	GROUP	1 ****	UNK
