# created with PyMOL 2.3.2
@<TRIPOS>MOLECULE
1787
48 51 1                 
SMALL
USER_CHARGES
@<TRIPOS>ATOM
1	  Cl	3.116	5.407	-2.611	Cl	1	UNK0	0.000	
2	   C	2.605	4.051	-1.625	C.2	1	UNK0	0.000	
3	   C	3.197	2.811	-1.742	C.2	1	UNK0	0.000	
4	   C	2.764	1.770	-0.947	C.2	1	UNK0	0.000	
5	   C	1.748	1.906	-0.020	C.2	1	UNK0	0.000	
6	   C	1.159	3.143	0.095	C.2	1	UNK0	0.000	
7	   C	1.584	4.192	-0.696	C.2	1	UNK0	0.000	
8	   N	1.381	0.775	0.746	N.pl3	1	UNK0	0.000	
9	   N	0.754	-0.271	0.275	N.2	1	UNK0	0.000	
10	   C	0.388	-1.357	0.958	C.2	1	UNK0	0.000	
11	   C	0.727	-1.344	2.320	C.2	1	UNK0	0.000	
12	   O	0.405	-2.341	3.003	O.2	1	UNK0	0.000	
13	   N	1.369	-0.291	2.836	N.pl3	1	UNK0	0.000	
14	   C	1.701	0.768	2.069	C.2	1	UNK0	0.000	
15	   O	2.303	1.743	2.579	O.2	1	UNK0	0.000	
16	   C	1.725	-0.276	4.262	C.3	1	UNK0	0.000	
17	   C	-0.314	-2.509	0.394	C.2	1	UNK0	0.000	
18	   O	-0.589	-3.463	1.200	O.2	1	UNK0	0.000	
19	   N	-0.695	-2.625	-0.949	N.pl3	1	UNK0	0.000	
20	   C	-0.466	-1.671	-1.992	C.3	1	UNK0	0.000	
21	   C	-1.843	-1.020	-2.247	C.3	1	UNK0	0.000	
22	   N	-2.863	-2.023	-2.040	N.pl3	1	UNK0	0.000	
23	   C	-2.550	-3.403	-2.342	C.3	1	UNK0	0.000	
24	   C	-1.430	-3.836	-1.385	C.3	1	UNK0	0.000	
25	   C	-4.156	-1.689	-1.553	C.2	1	UNK0	0.000	
26	   N	-5.113	-2.602	-1.356	N.2	1	UNK0	0.000	
27	   C	-6.341	-2.297	-0.895	C.2	1	UNK0	0.000	
28	   C	-6.664	-1.007	-0.603	C.2	1	UNK0	0.000	
29	   C	-5.686	-0.044	-0.799	C.2	1	UNK0	0.000	
30	   N	-4.479	-0.406	-1.262	N.2	1	UNK0	0.000	
31	   H	4.001	2.697	-2.473	 H	1	UNK0	0.000	
32	   H	3.248	0.814	-1.063	 H	1	UNK0	0.000	
33	   H	0.364	3.243	0.823	 H	1	UNK0	0.000	
34	   H	1.107	5.153	-0.587	 H	1	UNK0	0.000	
35	   H	1.683	-1.310	4.652	 H	1	UNK0	0.000	
36	   H	2.787	0.071	4.286	 H	1	UNK0	0.000	
37	   H	1.056	0.424	4.811	 H	1	UNK0	0.000	
38	   H	0.308	-0.940	-1.826	 H	1	UNK0	0.000	
39	   H	-0.276	-2.219	-2.971	 H	1	UNK0	0.000	
40	   H	-1.964	-0.243	-1.468	 H	1	UNK0	0.000	
41	   H	-1.883	-0.533	-3.223	 H	1	UNK0	0.000	
42	   H	-2.153	-3.444	-3.376	 H	1	UNK0	0.000	
43	   H	-3.423	-4.066	-2.191	 H	1	UNK0	0.000	
44	   H	-0.783	-4.522	-1.937	 H	1	UNK0	0.000	
45	   H	-1.881	-4.323	-0.501	 H	1	UNK0	0.000	
46	   H	-7.058	-3.097	-0.764	 H	1	UNK0	0.000	
47	   H	-7.640	-0.728	-0.231	 H	1	UNK0	0.000	
48	   H	-5.958	0.977	-0.563	 H	1	UNK0	0.000	
@<TRIPOS>BOND
1 1 2 1
2 2 3 2
3 2 7 1
4 3 4 1
5 4 5 2
6 5 6 1
7 5 8 1
8 6 7 2
9 8 9 1
10 8 14 1
11 9 10 2
12 10 11 1
13 10 17 1
14 11 12 2
15 11 13 1
16 13 14 1
17 13 16 1
18 14 15 2
19 17 18 2
20 17 19 1
21 19 20 1
22 19 24 1
23 20 21 1
24 21 22 1
25 22 23 1
26 22 25 1
27 23 24 1
28 25 26 2
29 25 30 1
30 26 27 1
31 27 28 2
32 28 29 1
33 29 30 2
34 3 31 1
35 4 32 1
36 6 33 1
37 7 34 1
38 16 35 1
39 16 36 1
40 16 37 1
41 20 38 1
42 20 39 1
43 21 40 1
44 21 41 1
45 23 42 1
46 23 43 1
47 24 44 1
48 24 45 1
49 27 46 1
50 28 47 1
51 29 48 1
@<TRIPOS>SUBSTRUCTURE
1	UNK0	1	GROUP	1 ****	UNK
