# created with PyMOL 2.3.2
@<TRIPOS>MOLECULE
1788
47 50 1                 
SMALL
USER_CHARGES
@<TRIPOS>ATOM
1	  Cl	-2.657	-0.061	-7.243	Cl	1	UNK0	0.000	
2	   C	-2.204	0.091	-5.556	C.2	1	UNK0	0.000	
3	   C	-1.130	-0.584	-5.007	C.2	1	UNK0	0.000	
4	   C	-0.779	-0.456	-3.674	C.2	1	UNK0	0.000	
5	   C	-1.498	0.363	-2.826	C.2	1	UNK0	0.000	
6	   C	-2.572	1.042	-3.362	C.2	1	UNK0	0.000	
7	   C	-2.924	0.913	-4.703	C.2	1	UNK0	0.000	
8	   N	-1.121	0.482	-1.458	N.pl3	1	UNK0	0.000	
9	   N	-1.014	-0.489	-0.622	N.2	1	UNK0	0.000	
10	   C	-0.627	-0.041	0.631	C.2	1	UNK0	0.000	
11	   N	-0.497	1.268	0.525	N.pl3	1	UNK0	0.000	
12	   C	-0.809	1.587	-0.777	C.2	1	UNK0	0.000	
13	   O	-0.789	2.756	-1.218	O.2	1	UNK0	0.000	
14	   C	-0.024	2.215	1.485	C.3	1	UNK0	0.000	
15	   C	1.394	2.599	1.350	C.2	1	UNK0	0.000	
16	   O	1.555	3.817	0.922	O.2	1	UNK0	0.000	
17	   N	2.554	1.899	1.596	N.pl3	1	UNK0	0.000	
18	   C	2.630	0.530	2.031	C.3	1	UNK0	0.000	
19	   C	4.083	0.039	2.159	C.3	1	UNK0	0.000	
20	   N	4.826	0.967	3.017	N.pl3	1	UNK0	0.000	
21	   C	4.607	2.354	2.679	C.2	1	UNK0	0.000	
22	   O	5.041	3.262	3.424	O.2	1	UNK0	0.000	
23	   C	3.851	2.576	1.423	C.3	1	UNK0	0.000	
24	   C	-0.423	-0.994	1.720	C.2	1	UNK0	0.000	
25	   C	-0.183	-2.333	1.386	C.2	1	UNK0	0.000	
26	   C	-0.036	-3.335	2.305	C.2	1	UNK0	0.000	
27	   C	-0.121	-3.063	3.664	C.2	1	UNK0	0.000	
28	   C	-0.357	-1.760	4.002	C.2	1	UNK0	0.000	
29	   C	-0.507	-0.740	3.058	C.2	1	UNK0	0.000	
30	   H	-0.564	-1.226	-5.668	 H	1	UNK0	0.000	
31	   H	0.057	-0.980	-3.246	 H	1	UNK0	0.000	
32	   H	-3.131	1.678	-2.701	 H	1	UNK0	0.000	
33	   H	-3.766	1.447	-5.116	 H	1	UNK0	0.000	
34	   H	-0.220	1.984	2.508	 H	1	UNK0	0.000	
35	   H	-0.634	3.184	1.294	 H	1	UNK0	0.000	
36	   H	2.196	-0.081	1.195	 H	1	UNK0	0.000	
37	   H	2.109	0.329	2.960	 H	1	UNK0	0.000	
38	   H	4.571	0.025	1.172	 H	1	UNK0	0.000	
39	   H	4.087	-0.985	2.561	 H	1	UNK0	0.000	
40	   H	5.439	0.668	3.780	 H	1	UNK0	0.000	
41	   H	3.667	3.664	1.259	 H	1	UNK0	0.000	
42	   H	4.352	2.110	0.544	 H	1	UNK0	0.000	
43	   H	-0.108	-2.560	0.316	 H	1	UNK0	0.000	
44	   H	0.147	-4.360	2.023	 H	1	UNK0	0.000	
45	   H	-0.007	-3.836	4.405	 H	1	UNK0	0.000	
46	   H	-0.434	-1.509	5.067	 H	1	UNK0	0.000	
47	   H	-0.714	0.229	3.421	 H	1	UNK0	0.000	
@<TRIPOS>BOND
1 1 2 1
2 2 3 2
3 2 7 1
4 3 4 1
5 4 5 2
6 5 6 1
7 5 8 1
8 6 7 2
9 8 9 1
10 8 12 1
11 9 10 2
12 10 11 1
13 10 24 1
14 11 12 1
15 11 14 1
16 12 13 2
17 14 15 1
18 15 16 2
19 15 17 1
20 17 18 1
21 17 23 1
22 18 19 1
23 19 20 1
24 20 21 1
25 21 22 2
26 21 23 1
27 24 25 2
28 24 29 1
29 25 26 1
30 26 27 2
31 27 28 1
32 28 29 2
33 3 30 1
34 4 31 1
35 6 32 1
36 7 33 1
37 14 34 1
38 14 35 1
39 18 36 1
40 18 37 1
41 19 38 1
42 19 39 1
43 20 40 1
44 23 41 1
45 23 42 1
46 25 43 1
47 26 44 1
48 27 45 1
49 28 46 1
50 29 47 1
@<TRIPOS>SUBSTRUCTURE
1	UNK0	1	GROUP	1 ****	UNK
