# created with PyMOL 2.3.2
@<TRIPOS>MOLECULE
1791
36 39 1                 
SMALL
USER_CHARGES
@<TRIPOS>ATOM
1	   S	-0.438	-2.110	-1.403	S.O2	1	UNK0	0.000	
2	   O	-0.642	-1.656	-2.816	O.2	1	UNK0	0.000	
3	   O	0.086	-3.515	-1.443	O.2	1	UNK0	0.000	
4	   N	0.667	-1.039	-0.627	N.3	1	UNK0	0.000	
5	   C	0.127	0.283	-0.672	C.3	1	UNK0	0.000	
6	   C	1.043	1.282	-0.011	C.2	1	UNK0	0.000	
7	   N	1.056	1.663	1.279	N.2	1	UNK0	0.000	
8	   N	2.013	2.565	1.478	N.pl3	1	UNK0	0.000	
9	   C	2.664	2.808	0.323	C.2	1	UNK0	0.000	
10	   C	2.062	2.010	-0.612	C.2	1	UNK0	0.000	
11	   C	3.771	3.799	0.366	C.3	1	UNK0	0.000	
12	   N	3.420	4.993	1.097	N.3	1	UNK0	0.000	
13	   C	2.553	4.765	2.209	C.3	1	UNK0	0.000	
14	   C	2.486	3.315	2.640	C.3	1	UNK0	0.000	
15	   C	-1.940	-2.062	-0.513	C.2	1	UNK0	0.000	
16	   N	-2.297	-2.835	0.570	N.pl3	1	UNK0	0.000	
17	   C	-3.523	-2.432	0.880	C.2	1	UNK0	0.000	
18	   N	-3.950	-1.438	0.035	N.2	1	UNK0	0.000	
19	   C	-2.982	-1.199	-0.831	C.2	1	UNK0	0.000	
20	  Cl	-3.073	-0.010	-2.112	Cl	1	UNK0	0.000	
21	   S	-3.933	-3.404	2.217	S.3	1	UNK0	0.000	
22	   C	-2.491	-4.304	2.330	C.2	1	UNK0	0.000	
23	   C	-1.750	-3.790	1.298	C.2	1	UNK0	0.000	
24	   H	1.598	-1.104	-1.089	 H	1	UNK0	0.000	
25	   H	-0.083	0.548	-1.726	 H	1	UNK0	0.000	
26	   H	-0.867	0.335	-0.139	 H	1	UNK0	0.000	
27	   H	2.354	1.971	-1.646	 H	1	UNK0	0.000	
28	   H	4.675	3.306	0.780	 H	1	UNK0	0.000	
29	   H	3.980	4.102	-0.693	 H	1	UNK0	0.000	
30	   H	2.952	5.656	0.419	 H	1	UNK0	0.000	
31	   H	1.497	5.040	1.919	 H	1	UNK0	0.000	
32	   H	2.780	5.424	3.083	 H	1	UNK0	0.000	
33	   H	3.524	3.004	2.886	 H	1	UNK0	0.000	
34	   H	1.801	3.257	3.491	 H	1	UNK0	0.000	
35	   H	-2.194	-5.103	3.037	 H	1	UNK0	0.000	
36	   H	-0.724	-4.221	1.144	 H	1	UNK0	0.000	
@<TRIPOS>BOND
1 1 2 2
2 1 3 2
3 1 4 1
4 1 15 1
5 4 5 1
6 5 6 1
7 6 7 2
8 6 10 1
9 7 8 1
10 8 9 1
11 8 14 1
12 9 10 2
13 9 11 1
14 11 12 1
15 12 13 1
16 13 14 1
17 15 16 1
18 15 19 2
19 16 17 1
20 16 23 1
21 17 18 2
22 17 21 1
23 18 19 1
24 19 20 1
25 21 22 1
26 22 23 2
27 4 24 1
28 5 25 1
29 5 26 1
30 10 27 1
31 11 28 1
32 11 29 1
33 12 30 1
34 13 31 1
35 13 32 1
36 14 33 1
37 14 34 1
38 22 35 1
39 23 36 1
@<TRIPOS>SUBSTRUCTURE
1	UNK0	1	GROUP	1 ****	UNK
