# created with PyMOL 2.3.2
@<TRIPOS>MOLECULE
1792
47 50 1                 
SMALL
USER_CHARGES
@<TRIPOS>ATOM
1	   S	1.923	1.598	-1.148	S.O2	1	UNK0	0.000	
2	   O	3.312	2.010	-0.840	O.2	1	UNK0	0.000	
3	   O	1.348	2.485	-2.233	O.2	1	UNK0	0.000	
4	   N	0.925	1.775	0.241	N.3	1	UNK0	0.000	
5	   C	1.303	0.974	1.347	C.3	1	UNK0	0.000	
6	   C	0.258	0.005	1.815	C.3	1	UNK0	0.000	
7	   N	-1.055	0.606	1.916	N.pl3	1	UNK0	0.000	
8	   C	-1.232	1.854	1.238	C.3	1	UNK0	0.000	
9	   C	-0.477	1.679	-0.098	C.3	1	UNK0	0.000	
10	   C	-2.076	-0.025	2.644	C.2	1	UNK0	0.000	
11	   O	-1.832	-1.150	3.218	O.2	1	UNK0	0.000	
12	   C	-3.440	0.477	2.826	C.2	1	UNK0	0.000	
13	   O	-3.981	1.570	2.381	O.3	1	UNK0	0.000	
14	   C	-5.223	1.736	2.716	C.2	1	UNK0	0.000	
15	   C	-5.558	0.636	3.470	C.2	1	UNK0	0.000	
16	   C	-4.448	-0.168	3.549	C.2	1	UNK0	0.000	
17	  Br	-6.409	3.178	2.292	Br	1	UNK0	0.000	
18	   C	1.857	-0.056	-1.736	C.2	1	UNK0	0.000	
19	   C	2.751	-0.981	-1.284	C.2	1	UNK0	0.000	
20	   C	2.708	-2.286	-1.739	C.2	1	UNK0	0.000	
21	   C	1.759	-2.679	-2.663	C.2	1	UNK0	0.000	
22	   C	0.852	-1.740	-3.122	C.2	1	UNK0	0.000	
23	   C	0.913	-0.447	-2.655	C.2	1	UNK0	0.000	
24	   O	1.745	-3.982	-3.095	O.3	1	UNK0	0.000	
25	   C	2.363	-5.044	-2.415	C.3	1	UNK0	0.000	
26	   C	3.590	-4.571	-1.723	C.2	1	UNK0	0.000	
27	   O	4.536	-5.382	-1.586	O.2	1	UNK0	0.000	
28	   N	3.654	-3.234	-1.245	N.pl3	1	UNK0	0.000	
29	   C	1.357	-5.633	-1.419	C.3	1	UNK0	0.000	
30	   H	1.563	1.656	2.208	 H	1	UNK0	0.000	
31	   H	2.227	0.418	1.132	 H	1	UNK0	0.000	
32	   H	0.541	-0.242	2.883	 H	1	UNK0	0.000	
33	   H	0.264	-0.967	1.293	 H	1	UNK0	0.000	
34	   H	-2.249	2.186	1.067	 H	1	UNK0	0.000	
35	   H	-0.674	2.687	1.764	 H	1	UNK0	0.000	
36	   H	-0.645	0.647	-0.472	 H	1	UNK0	0.000	
37	   H	-0.774	2.417	-0.841	 H	1	UNK0	0.000	
38	   H	-6.552	0.478	3.906	 H	1	UNK0	0.000	
39	   H	-4.373	-1.105	4.067	 H	1	UNK0	0.000	
40	   H	3.519	-0.701	-0.550	 H	1	UNK0	0.000	
41	   H	0.107	-2.066	-3.852	 H	1	UNK0	0.000	
42	   H	0.196	0.290	-3.020	 H	1	UNK0	0.000	
43	   H	2.621	-5.834	-3.153	 H	1	UNK0	0.000	
44	   H	4.369	-2.944	-0.552	 H	1	UNK0	0.000	
45	   H	0.330	-5.238	-1.641	 H	1	UNK0	0.000	
46	   H	1.396	-6.730	-1.448	 H	1	UNK0	0.000	
47	   H	1.641	-5.284	-0.410	 H	1	UNK0	0.000	
@<TRIPOS>BOND
1 1 2 2
2 1 3 2
3 1 4 1
4 1 18 1
5 4 5 1
6 4 9 1
7 5 6 1
8 6 7 1
9 7 8 1
10 7 10 1
11 8 9 1
12 10 11 2
13 10 12 1
14 12 13 1
15 12 16 2
16 13 14 1
17 14 15 2
18 14 17 1
19 15 16 1
20 18 19 2
21 18 23 1
22 19 20 1
23 20 21 2
24 20 28 1
25 21 22 1
26 21 24 1
27 22 23 2
28 24 25 1
29 25 26 1
30 25 29 1
31 26 27 2
32 26 28 1
33 5 30 1
34 5 31 1
35 6 32 1
36 6 33 1
37 8 34 1
38 8 35 1
39 9 36 1
40 9 37 1
41 15 38 1
42 16 39 1
43 19 40 1
44 22 41 1
45 23 42 1
46 25 43 1
47 28 44 1
48 29 45 1
49 29 46 1
50 29 47 1
@<TRIPOS>SUBSTRUCTURE
1	UNK0	1	GROUP	1 ****	UNK
