# created with PyMOL 2.3.2
@<TRIPOS>MOLECULE
1793
39 42 1                 
SMALL
USER_CHARGES
@<TRIPOS>ATOM
1	  Cl	3.705	3.294	-1.636	Cl	1	UNK0	0.000	
2	   C	2.013	3.080	-1.163	C.2	1	UNK0	0.000	
3	   C	1.368	1.865	-1.404	C.2	1	UNK0	0.000	
4	   C	0.049	1.668	-1.046	C.2	1	UNK0	0.000	
5	   C	-0.599	2.725	-0.440	C.2	1	UNK0	0.000	
6	   C	0.047	3.931	-0.202	C.2	1	UNK0	0.000	
7	   C	1.360	4.129	-0.558	C.2	1	UNK0	0.000	
8	   C	-2.006	2.538	-0.046	C.2	1	UNK0	0.000	
9	   N	-2.855	3.317	0.522	N.2	1	UNK0	0.000	
10	   C	-4.142	2.701	0.717	C.3	1	UNK0	0.000	
11	   C	-3.980	1.322	0.161	C.3	1	UNK0	0.000	
12	   N	-2.619	1.286	-0.308	N.pl3	1	UNK0	0.000	
13	   C	-1.903	0.216	-0.941	C.2	1	UNK0	0.000	
14	   N	-2.242	-1.032	-1.293	N.2	1	UNK0	0.000	
15	   N	-1.203	-1.650	-1.866	N.pl3	1	UNK0	0.000	
16	   C	-0.224	-0.743	-1.852	C.2	1	UNK0	0.000	
17	   O	0.946	-0.966	-2.321	O.2	1	UNK0	0.000	
18	   N	-0.617	0.421	-1.289	N.pl3	1	UNK0	0.000	
19	   C	-1.223	-3.024	-2.375	C.3	1	UNK0	0.000	
20	   C	-0.808	-3.936	-1.288	C.2	1	UNK0	0.000	
21	   O	-1.584	-4.026	-0.303	O.2	1	UNK0	0.000	
22	   N	0.385	-4.660	-1.356	N.pl3	1	UNK0	0.000	
23	   C	1.266	-4.581	-2.487	C.3	1	UNK0	0.000	
24	   C	0.733	-5.526	-0.229	C.3	1	UNK0	0.000	
25	   H	1.889	1.053	-1.877	 H	1	UNK0	0.000	
26	   H	-0.495	4.728	0.271	 H	1	UNK0	0.000	
27	   H	1.886	5.062	-0.384	 H	1	UNK0	0.000	
28	   H	-4.937	3.280	0.189	 H	1	UNK0	0.000	
29	   H	-4.348	2.675	1.825	 H	1	UNK0	0.000	
30	   H	-4.720	1.203	-0.663	 H	1	UNK0	0.000	
31	   H	-4.166	0.596	0.981	 H	1	UNK0	0.000	
32	   H	-2.235	-3.275	-2.768	 H	1	UNK0	0.000	
33	   H	-0.500	-3.134	-3.207	 H	1	UNK0	0.000	
34	   H	1.451	-3.573	-2.848	 H	1	UNK0	0.000	
35	   H	2.263	-5.003	-2.198	 H	1	UNK0	0.000	
36	   H	0.895	-5.177	-3.353	 H	1	UNK0	0.000	
37	   H	0.240	-5.199	0.699	 H	1	UNK0	0.000	
38	   H	1.842	-5.467	-0.045	 H	1	UNK0	0.000	
39	   H	0.480	-6.576	-0.432	 H	1	UNK0	0.000	
@<TRIPOS>BOND
1 1 2 1
2 2 3 2
3 2 7 1
4 3 4 1
5 4 5 2
6 4 18 1
7 5 6 1
8 5 8 1
9 6 7 2
10 8 9 2
11 8 12 1
12 9 10 1
13 10 11 1
14 11 12 1
15 12 13 1
16 13 14 2
17 13 18 1
18 14 15 1
19 15 16 1
20 15 19 1
21 16 17 2
22 16 18 1
23 19 20 1
24 20 21 2
25 20 22 1
26 22 23 1
27 22 24 1
28 3 25 1
29 6 26 1
30 7 27 1
31 10 28 1
32 10 29 1
33 11 30 1
34 11 31 1
35 19 32 1
36 19 33 1
37 23 34 1
38 23 35 1
39 23 36 1
40 24 37 1
41 24 38 1
42 24 39 1
@<TRIPOS>SUBSTRUCTURE
1	UNK0	1	GROUP	1 ****	UNK
