# created with PyMOL 2.3.2
@<TRIPOS>MOLECULE
1794
57 60 1                 
SMALL
USER_CHARGES
@<TRIPOS>ATOM
1	  Cl	0.783	-0.836	3.668	Cl	1	UNK0	0.000	
2	   C	2.173	-0.319	4.610	C.2	1	UNK0	0.000	
3	   C	3.193	0.383	4.036	C.2	1	UNK0	0.000	
4	   C	4.329	0.727	4.840	C.2	1	UNK0	0.000	
5	   C	4.360	0.349	6.148	C.2	1	UNK0	0.000	
6	   C	3.311	-0.358	6.699	C.2	1	UNK0	0.000	
7	   C	2.223	-0.700	5.966	C.2	1	UNK0	0.000	
8	   C	3.239	0.888	2.691	C.2	1	UNK0	0.000	
9	   C	2.237	0.924	1.840	C.2	1	UNK0	0.000	
10	   C	2.381	1.452	0.490	C.2	1	UNK0	0.000	
11	   O	3.598	1.883	0.280	O.2	1	UNK0	0.000	
12	   C	1.466	1.577	-0.588	C.2	1	UNK0	0.000	
13	   C	1.968	2.208	-1.753	C.2	1	UNK0	0.000	
14	   C	1.196	2.389	-2.856	C.2	1	UNK0	0.000	
15	   C	-0.100	1.980	-2.914	C.2	1	UNK0	0.000	
16	   C	-0.617	1.363	-1.802	C.2	1	UNK0	0.000	
17	   C	0.147	1.173	-0.686	C.2	1	UNK0	0.000	
18	   C	-0.434	0.472	0.453	C.3	1	UNK0	0.000	
19	   C	-1.749	-0.219	0.228	C.3	1	UNK0	0.000	
20	   N	-2.117	-0.347	-1.152	N.4	1	UNK0	0.000	
21	   C	-2.027	0.923	-1.843	C.3	1	UNK0	0.000	
22	   C	-3.497	-0.766	-1.250	C.3	1	UNK0	0.000	
23	   C	-3.725	-2.178	-0.906	C.2	1	UNK0	0.000	
24	   O	-2.781	-2.927	-0.557	O.co2	1	UNK0	0.000	
25	   O	-4.994	-2.734	-0.955	O.3	1	UNK0	0.000	
26	   C	-5.233	-4.090	-0.627	C.3	1	UNK0	0.000	
27	   C	-1.300	-1.325	-1.832	C.3	1	UNK0	0.000	
28	   O	-0.904	2.156	-4.029	O.3	1	UNK0	0.000	
29	   C	-1.670	3.351	-4.133	C.3	1	UNK0	0.000	
30	   O	1.947	3.039	-3.857	O.3	1	UNK0	0.000	
31	   C	3.155	3.464	-3.287	C.3	1	UNK0	0.000	
32	   O	3.212	2.752	-2.075	O.3	1	UNK0	0.000	
33	   H	5.156	1.285	4.408	 H	1	UNK0	0.000	
34	   H	5.205	0.587	6.805	 H	1	UNK0	0.000	
35	   H	3.342	-0.658	7.748	 H	1	UNK0	0.000	
36	   H	1.372	-1.248	6.328	 H	1	UNK0	0.000	
37	   H	4.215	1.279	2.317	 H	1	UNK0	0.000	
38	   H	1.315	0.590	2.217	 H	1	UNK0	0.000	
39	   H	0.272	-0.371	0.676	 H	1	UNK0	0.000	
40	   H	-0.536	1.194	1.274	 H	1	UNK0	0.000	
41	   H	-2.539	0.383	0.720	 H	1	UNK0	0.000	
42	   H	-1.793	-1.222	0.694	 H	1	UNK0	0.000	
43	   H	-2.353	0.733	-2.891	 H	1	UNK0	0.000	
44	   H	-2.713	1.646	-1.382	 H	1	UNK0	0.000	
45	   H	-4.154	-0.125	-0.616	 H	1	UNK0	0.000	
46	   H	-3.800	-0.607	-2.323	 H	1	UNK0	0.000	
47	   H	-5.684	-4.236	0.360	 H	1	UNK0	0.000	
48	   H	-5.937	-4.529	-1.368	 H	1	UNK0	0.000	
49	   H	-4.253	-4.630	-0.698	 H	1	UNK0	0.000	
50	   H	-0.736	-1.979	-1.135	 H	1	UNK0	0.000	
51	   H	-0.597	-0.777	-2.514	 H	1	UNK0	0.000	
52	   H	-1.955	-1.922	-2.495	 H	1	UNK0	0.000	
53	   H	-1.224	4.178	-3.544	 H	1	UNK0	0.000	
54	   H	-1.691	3.624	-5.195	 H	1	UNK0	0.000	
55	   H	-2.703	3.200	-3.783	 H	1	UNK0	0.000	
56	   H	3.133	4.573	-3.136	 H	1	UNK0	0.000	
57	   H	4.027	3.225	-3.952	 H	1	UNK0	0.000	
@<TRIPOS>BOND
1 1 2 1
2 2 3 2
3 2 7 1
4 3 4 1
5 3 8 1
6 4 5 2
7 5 6 1
8 6 7 2
9 8 9 2
10 9 10 1
11 10 11 2
12 10 12 1
13 12 13 2
14 12 17 1
15 13 14 1
16 13 32 1
17 14 15 2
18 14 30 1
19 15 16 1
20 15 28 1
21 16 17 2
22 16 21 1
23 17 18 1
24 18 19 1
25 19 20 1
26 20 21 1
27 20 22 1
28 20 27 1
29 22 23 1
30 23 24 2
31 23 25 1
32 25 26 1
33 28 29 1
34 30 31 1
35 31 32 1
36 4 33 1
37 5 34 1
38 6 35 1
39 7 36 1
40 8 37 1
41 9 38 1
42 18 39 1
43 18 40 1
44 19 41 1
45 19 42 1
46 21 43 1
47 21 44 1
48 22 45 1
49 22 46 1
50 26 47 1
51 26 48 1
52 26 49 1
53 27 50 1
54 27 51 1
55 27 52 1
56 29 53 1
57 29 54 1
58 29 55 1
59 31 56 1
60 31 57 1
@<TRIPOS>SUBSTRUCTURE
1	UNK0	1	GROUP	1 ****	UNK
