# created with PyMOL 2.3.2
@<TRIPOS>MOLECULE
1795
58 61 1                 
SMALL
USER_CHARGES
@<TRIPOS>ATOM
1	  Cl	2.770	7.495	-0.854	Cl	1	UNK0	0.000	
2	   C	1.755	6.079	-0.963	C.2	1	UNK0	0.000	
3	   C	0.389	6.185	-1.125	C.2	1	UNK0	0.000	
4	   C	-0.399	5.067	-1.209	C.2	1	UNK0	0.000	
5	   C	0.110	3.756	-1.139	C.2	1	UNK0	0.000	
6	   C	1.465	3.679	-0.978	C.2	1	UNK0	0.000	
7	   C	2.257	4.798	-0.894	C.2	1	UNK0	0.000	
8	   C	-0.816	2.657	-1.222	C.3	1	UNK0	0.000	
9	   N	-0.600	1.632	-2.208	N.pl3	1	UNK0	0.000	
10	   C	-1.654	0.662	-1.900	C.2	1	UNK0	0.000	
11	   O	-2.240	-0.111	-2.691	O.2	1	UNK0	0.000	
12	   C	-1.895	0.770	-0.467	C.2	1	UNK0	0.000	
13	   O	-2.703	0.148	0.279	O.2	1	UNK0	0.000	
14	   C	-0.957	1.815	-0.003	C.2	1	UNK0	0.000	
15	   C	-0.430	1.923	1.203	C.2	1	UNK0	0.000	
16	   O	0.409	2.981	1.454	O.2	1	UNK0	0.000	
17	   C	-0.747	0.918	2.245	C.2	1	UNK0	0.000	
18	   O	-0.844	-0.361	1.998	O.3	1	UNK0	0.000	
19	   C	-1.129	-1.035	3.070	C.2	1	UNK0	0.000	
20	   C	-1.232	-0.140	4.123	C.2	1	UNK0	0.000	
21	   C	-0.984	1.111	3.580	C.2	1	UNK0	0.000	
22	   C	-1.529	-0.565	5.403	C.2	1	UNK0	0.000	
23	   C	-1.733	-1.924	5.654	C.2	1	UNK0	0.000	
24	   C	-1.634	-2.820	4.620	C.2	1	UNK0	0.000	
25	   C	-1.333	-2.368	3.339	C.2	1	UNK0	0.000	
26	   O	-1.247	-3.320	2.339	O.3	1	UNK0	0.000	
27	   C	-1.432	-4.694	2.486	C.3	1	UNK0	0.000	
28	   C	0.301	1.440	-3.298	C.3	1	UNK0	0.000	
29	   C	1.531	0.655	-3.042	C.3	1	UNK0	0.000	
30	   C	1.233	-0.747	-2.549	C.3	1	UNK0	0.000	
31	   N	2.409	-1.516	-2.295	N.4	1	UNK0	0.000	
32	   C	3.169	-1.845	-3.486	C.3	1	UNK0	0.000	
33	   C	3.280	-0.999	-1.285	C.3	1	UNK0	0.000	
34	   H	-0.027	7.189	-1.180	 H	1	UNK0	0.000	
35	   H	-1.470	5.228	-1.335	 H	1	UNK0	0.000	
36	   H	1.939	2.721	-0.897	 H	1	UNK0	0.000	
37	   H	3.340	4.731	-0.765	 H	1	UNK0	0.000	
38	   H	-1.841	3.061	-1.408	 H	1	UNK0	0.000	
39	   H	-0.968	2.076	4.063	 H	1	UNK0	0.000	
40	   H	-1.600	0.169	6.197	 H	1	UNK0	0.000	
41	   H	-1.961	-2.179	6.679	 H	1	UNK0	0.000	
42	   H	-1.796	-3.867	4.837	 H	1	UNK0	0.000	
43	   H	-1.630	-5.106	1.470	 H	1	UNK0	0.000	
44	   H	-2.252	-5.000	3.153	 H	1	UNK0	0.000	
45	   H	-0.523	-5.230	2.865	 H	1	UNK0	0.000	
46	   H	-0.261	0.893	-4.114	 H	1	UNK0	0.000	
47	   H	0.570	2.424	-3.738	 H	1	UNK0	0.000	
48	   H	1.991	0.475	-4.075	 H	1	UNK0	0.000	
49	   H	2.339	1.123	-2.486	 H	1	UNK0	0.000	
50	   H	0.639	-0.736	-1.613	 H	1	UNK0	0.000	
51	   H	0.647	-1.267	-3.327	 H	1	UNK0	0.000	
52	   H	2.065	-2.456	-1.929	 H	1	UNK0	0.000	
53	   H	3.711	-2.827	-3.337	 H	1	UNK0	0.000	
54	   H	2.470	-1.882	-4.332	 H	1	UNK0	0.000	
55	   H	3.975	-1.110	-3.677	 H	1	UNK0	0.000	
56	   H	3.846	-1.873	-0.848	 H	1	UNK0	0.000	
57	   H	4.050	-0.310	-1.642	 H	1	UNK0	0.000	
58	   H	2.668	-0.599	-0.446	 H	1	UNK0	0.000	
@<TRIPOS>BOND
1 1 2 1
2 2 3 2
3 2 7 1
4 3 4 1
5 4 5 2
6 5 6 1
7 5 8 1
8 6 7 2
9 8 9 1
10 8 14 1
11 9 10 1
12 9 28 1
13 10 11 2
14 10 12 1
15 12 13 2
16 12 14 1
17 14 15 2
18 15 16 1
19 15 17 1
20 17 18 1
21 17 21 2
22 18 19 1
23 19 20 2
24 19 25 1
25 20 21 1
26 20 22 1
27 22 23 2
28 23 24 1
29 24 25 2
30 25 26 1
31 26 27 1
32 28 29 1
33 29 30 1
34 30 31 1
35 31 32 1
36 31 33 1
37 3 34 1
38 4 35 1
39 6 36 1
40 7 37 1
41 8 38 1
42 21 39 1
43 22 40 1
44 23 41 1
45 24 42 1
46 27 43 1
47 27 44 1
48 27 45 1
49 28 46 1
50 28 47 1
51 29 48 1
52 29 49 1
53 30 50 1
54 30 51 1
55 31 52 1
56 32 53 1
57 32 54 1
58 32 55 1
59 33 56 1
60 33 57 1
61 33 58 1
@<TRIPOS>SUBSTRUCTURE
1	UNK0	1	GROUP	1 ****	UNK
