# created with PyMOL 2.3.2
@<TRIPOS>MOLECULE
1796
38 41 1                 
SMALL
USER_CHARGES
@<TRIPOS>ATOM
1	  Cl	4.603	2.331	2.596	Cl	1	UNK0	0.000	
2	   C	3.070	2.173	1.733	C.2	1	UNK0	0.000	
3	   C	2.409	3.283	1.256	C.2	1	UNK0	0.000	
4	   C	1.212	3.178	0.581	C.2	1	UNK0	0.000	
5	   C	0.685	1.922	0.391	C.2	1	UNK0	0.000	
6	   C	1.311	0.769	0.851	C.2	1	UNK0	0.000	
7	   C	2.503	0.935	1.519	C.2	1	UNK0	0.000	
8	   C	-0.598	2.089	-0.354	C.3	1	UNK0	0.000	
9	   N	-1.719	2.202	0.549	N.pl3	1	UNK0	0.000	
10	   C	-2.240	0.886	0.679	C.2	1	UNK0	0.000	
11	   O	-3.017	0.550	1.623	O.2	1	UNK0	0.000	
12	   N	-1.748	0.071	-0.393	N.pl3	1	UNK0	0.000	
13	   C	-0.916	0.916	-1.179	C.2	1	UNK0	0.000	
14	   O	-0.565	0.633	-2.359	O.2	1	UNK0	0.000	
15	   C	-2.066	-1.333	-0.592	C.3	1	UNK0	0.000	
16	   C	-1.110	-2.236	0.094	C.2	1	UNK0	0.000	
17	   N	-1.134	-2.752	1.328	N.pl3	1	UNK0	0.000	
18	   N	-0.062	-3.510	1.503	N.2	1	UNK0	0.000	
19	   C	0.676	-3.501	0.392	C.2	1	UNK0	0.000	
20	   C	0.045	-2.709	-0.516	C.2	1	UNK0	0.000	
21	   C	-2.174	-2.512	2.308	C.3	1	UNK0	0.000	
22	   C	-0.367	3.341	-1.123	C.3	1	UNK0	0.000	
23	   C	0.296	4.205	-0.038	C.3	1	UNK0	0.000	
24	   H	2.850	4.276	1.420	 H	1	UNK0	0.000	
25	   H	0.892	-0.217	0.700	 H	1	UNK0	0.000	
26	   H	2.997	0.032	1.882	 H	1	UNK0	0.000	
27	   H	-2.036	3.085	0.985	 H	1	UNK0	0.000	
28	   H	-3.067	-1.517	-0.128	 H	1	UNK0	0.000	
29	   H	-2.135	-1.584	-1.661	 H	1	UNK0	0.000	
30	   H	1.614	-4.027	0.227	 H	1	UNK0	0.000	
31	   H	0.367	-2.481	-1.521	 H	1	UNK0	0.000	
32	   H	-3.158	-2.359	1.830	 H	1	UNK0	0.000	
33	   H	-1.949	-1.638	2.953	 H	1	UNK0	0.000	
34	   H	-2.288	-3.407	2.981	 H	1	UNK0	0.000	
35	   H	-1.269	3.841	-1.482	 H	1	UNK0	0.000	
36	   H	0.368	3.165	-1.924	 H	1	UNK0	0.000	
37	   H	-0.519	4.480	0.660	 H	1	UNK0	0.000	
38	   H	0.844	5.046	-0.458	 H	1	UNK0	0.000	
@<TRIPOS>BOND
1 1 2 1
2 2 3 2
3 2 7 1
4 3 4 1
5 4 5 2
6 4 23 1
7 5 6 1
8 5 8 1
9 6 7 2
10 8 9 1
11 8 13 1
12 8 22 1
13 9 10 1
14 10 11 2
15 10 12 1
16 12 13 1
17 12 15 1
18 13 14 2
19 15 16 1
20 16 17 1
21 16 20 2
22 17 18 1
23 17 21 1
24 18 19 2
25 19 20 1
26 22 23 1
27 3 24 1
28 6 25 1
29 7 26 1
30 9 27 1
31 15 28 1
32 15 29 1
33 19 30 1
34 20 31 1
35 21 32 1
36 21 33 1
37 21 34 1
38 22 35 1
39 22 36 1
40 23 37 1
41 23 38 1
@<TRIPOS>SUBSTRUCTURE
1	UNK0	1	GROUP	1 ****	UNK
