# created with PyMOL 2.3.2
@<TRIPOS>MOLECULE
1801
42 45 1                 
SMALL
USER_CHARGES
@<TRIPOS>ATOM
1	  Cl	-4.984	-3.055	-0.530	Cl	1	UNK0	0.000	
2	   C	-4.254	-1.479	-0.225	C.2	1	UNK0	0.000	
3	   C	-2.955	-1.389	0.243	C.2	1	UNK0	0.000	
4	   C	-2.377	-0.173	0.483	C.2	1	UNK0	0.000	
5	   C	-3.144	0.941	0.239	C.2	1	UNK0	0.000	
6	   C	-4.432	0.880	-0.225	C.2	1	UNK0	0.000	
7	   C	-5.005	-0.358	-0.464	C.2	1	UNK0	0.000	
8	   C	-2.553	2.271	0.487	C.2	1	UNK0	0.000	
9	   N	-3.004	3.469	0.358	N.2	1	UNK0	0.000	
10	   C	-2.034	4.457	0.733	C.3	1	UNK0	0.000	
11	   C	-0.830	3.674	1.143	C.3	1	UNK0	0.000	
12	   N	-1.219	2.295	0.966	N.pl3	1	UNK0	0.000	
13	   C	-0.463	1.099	1.204	C.2	1	UNK0	0.000	
14	   N	0.785	0.885	1.646	N.2	1	UNK0	0.000	
15	   N	1.032	-0.412	1.699	N.pl3	1	UNK0	0.000	
16	   C	-0.095	-1.012	1.279	C.2	1	UNK0	0.000	
17	   O	-0.236	-2.256	1.194	O.2	1	UNK0	0.000	
18	   N	-1.044	-0.090	0.964	N.pl3	1	UNK0	0.000	
19	   C	2.259	-1.080	2.121	C.3	1	UNK0	0.000	
20	   C	3.135	-1.264	0.940	C.2	1	UNK0	0.000	
21	   O	4.254	-1.829	1.096	O.2	1	UNK0	0.000	
22	   N	2.770	-0.832	-0.362	N.pl3	1	UNK0	0.000	
23	   C	3.659	-1.033	-1.484	C.3	1	UNK0	0.000	
24	   C	2.940	-1.778	-2.612	C.3	1	UNK0	0.000	
25	   C	3.980	0.348	-2.039	C.3	1	UNK0	0.000	
26	   H	-2.400	-2.284	0.418	 H	1	UNK0	0.000	
27	   H	-5.046	1.750	-0.421	 H	1	UNK0	0.000	
28	   H	-6.040	-0.412	-0.837	 H	1	UNK0	0.000	
29	   H	-1.806	5.061	-0.183	 H	1	UNK0	0.000	
30	   H	-2.412	5.123	1.542	 H	1	UNK0	0.000	
31	   H	0.078	3.930	0.560	 H	1	UNK0	0.000	
32	   H	-0.655	3.801	2.243	 H	1	UNK0	0.000	
33	   H	2.780	-0.384	2.803	 H	1	UNK0	0.000	
34	   H	2.066	-2.010	2.675	 H	1	UNK0	0.000	
35	   H	1.845	-0.369	-0.472	 H	1	UNK0	0.000	
36	   H	4.593	-1.536	-1.193	 H	1	UNK0	0.000	
37	   H	1.875	-1.457	-2.551	 H	1	UNK0	0.000	
38	   H	3.419	-1.464	-3.550	 H	1	UNK0	0.000	
39	   H	3.028	-2.880	-2.452	 H	1	UNK0	0.000	
40	   H	3.124	0.636	-2.683	 H	1	UNK0	0.000	
41	   H	4.883	0.339	-2.673	 H	1	UNK0	0.000	
42	   H	4.037	1.055	-1.200	 H	1	UNK0	0.000	
@<TRIPOS>BOND
1 1 2 1
2 2 3 2
3 2 7 1
4 3 4 1
5 4 5 2
6 4 18 1
7 5 6 1
8 5 8 1
9 6 7 2
10 8 9 2
11 8 12 1
12 9 10 1
13 10 11 1
14 11 12 1
15 12 13 1
16 13 14 2
17 13 18 1
18 14 15 1
19 15 16 1
20 15 19 1
21 16 17 2
22 16 18 1
23 19 20 1
24 20 21 2
25 20 22 1
26 22 23 1
27 23 24 1
28 23 25 1
29 3 26 1
30 6 27 1
31 7 28 1
32 10 29 1
33 10 30 1
34 11 31 1
35 11 32 1
36 19 33 1
37 19 34 1
38 22 35 1
39 23 36 1
40 24 37 1
41 24 38 1
42 24 39 1
43 25 40 1
44 25 41 1
45 25 42 1
@<TRIPOS>SUBSTRUCTURE
1	UNK0	1	GROUP	1 ****	UNK
