# created with PyMOL 2.3.2
@<TRIPOS>MOLECULE
1802
43 46 1                 
SMALL
USER_CHARGES
@<TRIPOS>ATOM
1	  Cl	-3.205	3.885	-2.266	Cl	1	UNK0	0.000	
2	   C	-1.599	3.630	-1.578	C.2	1	UNK0	0.000	
3	   C	-1.453	2.659	-0.584	C.2	1	UNK0	0.000	
4	   C	-0.225	2.402	-0.009	C.2	1	UNK0	0.000	
5	   C	0.841	3.152	-0.465	C.2	1	UNK0	0.000	
6	   C	0.743	4.103	-1.426	C.2	1	UNK0	0.000	
7	   C	-0.510	4.356	-2.005	C.2	1	UNK0	0.000	
8	   C	2.155	2.859	0.162	C.2	1	UNK0	0.000	
9	   N	3.332	3.372	-0.032	N.2	1	UNK0	0.000	
10	   C	4.307	2.746	0.831	C.3	1	UNK0	0.000	
11	   C	3.572	1.703	1.636	C.3	1	UNK0	0.000	
12	   N	2.211	1.864	1.151	N.pl3	1	UNK0	0.000	
13	   C	1.060	1.132	1.568	C.2	1	UNK0	0.000	
14	   N	0.898	0.148	2.477	N.2	1	UNK0	0.000	
15	   N	-0.381	-0.221	2.495	N.pl3	1	UNK0	0.000	
16	   C	-0.982	0.548	1.590	C.2	1	UNK0	0.000	
17	   O	-2.211	0.503	1.304	O.2	1	UNK0	0.000	
18	   N	-0.108	1.406	0.994	N.pl3	1	UNK0	0.000	
19	   C	-0.975	-1.268	3.331	C.3	1	UNK0	0.000	
20	   C	-0.891	-2.526	2.412	C.2	1	UNK0	0.000	
21	   O	0.347	-2.820	2.262	O.2	1	UNK0	0.000	
22	   N	-2.002	-3.096	1.926	N.pl3	1	UNK0	0.000	
23	   C	-3.144	-3.682	1.426	C.3	1	UNK0	0.000	
24	   C	-3.173	-3.698	-0.107	C.3	1	UNK0	0.000	
25	   O	-2.116	-4.409	-0.623	O.3	1	UNK0	0.000	
26	   C	-2.114	-5.745	-0.344	C.3	1	UNK0	0.000	
27	   H	-2.340	2.125	-0.293	 H	1	UNK0	0.000	
28	   H	1.587	4.675	-1.750	 H	1	UNK0	0.000	
29	   H	-0.636	5.098	-2.772	 H	1	UNK0	0.000	
30	   H	4.744	3.534	1.483	 H	1	UNK0	0.000	
31	   H	5.112	2.253	0.226	 H	1	UNK0	0.000	
32	   H	3.604	1.912	2.710	 H	1	UNK0	0.000	
33	   H	3.978	0.682	1.411	 H	1	UNK0	0.000	
34	   H	-0.393	-1.456	4.213	 H	1	UNK0	0.000	
35	   H	-2.013	-1.022	3.498	 H	1	UNK0	0.000	
36	   H	-1.255	-4.085	1.372	 H	1	UNK0	0.000	
37	   H	-3.403	-4.683	1.831	 H	1	UNK0	0.000	
38	   H	-4.088	-3.072	1.715	 H	1	UNK0	0.000	
39	   H	-4.145	-4.025	-0.511	 H	1	UNK0	0.000	
40	   H	-3.032	-2.628	-0.396	 H	1	UNK0	0.000	
41	   H	-3.015	-6.258	-0.805	 H	1	UNK0	0.000	
42	   H	-2.283	-5.943	0.748	 H	1	UNK0	0.000	
43	   H	-1.203	-6.248	-0.707	 H	1	UNK0	0.000	
@<TRIPOS>BOND
1 1 2 1
2 2 3 2
3 2 7 1
4 3 4 1
5 4 5 2
6 4 18 1
7 5 6 1
8 5 8 1
9 6 7 2
10 8 9 2
11 8 12 1
12 9 10 1
13 10 11 1
14 11 12 1
15 12 13 1
16 13 14 2
17 13 18 1
18 14 15 1
19 15 16 1
20 15 19 1
21 16 17 2
22 16 18 1
23 19 20 1
24 20 21 2
25 20 22 1
26 22 23 1
27 23 24 1
28 24 25 1
29 25 26 1
30 3 27 1
31 6 28 1
32 7 29 1
33 10 30 1
34 10 31 1
35 11 32 1
36 11 33 1
37 19 34 1
38 19 35 1
39 22 36 1
40 23 37 1
41 23 38 1
42 24 39 1
43 24 40 1
44 26 41 1
45 26 42 1
46 26 43 1
@<TRIPOS>SUBSTRUCTURE
1	UNK0	1	GROUP	1 ****	UNK
