# created with PyMOL 2.3.2
@<TRIPOS>MOLECULE
1803
43 47 1                 
SMALL
USER_CHARGES
@<TRIPOS>ATOM
1	  Cl	-4.878	-3.404	0.846	Cl	1	UNK0	0.000	
2	   C	-4.272	-1.791	0.637	C.2	1	UNK0	0.000	
3	   C	-3.028	-1.437	1.173	C.2	1	UNK0	0.000	
4	   C	-2.514	-0.167	1.028	C.2	1	UNK0	0.000	
5	   C	-3.283	0.740	0.330	C.2	1	UNK0	0.000	
6	   C	-4.516	0.397	-0.203	C.2	1	UNK0	0.000	
7	   C	-5.027	-0.873	-0.057	C.2	1	UNK0	0.000	
8	   C	-2.763	2.095	0.161	C.2	1	UNK0	0.000	
9	   N	-3.242	3.132	-0.427	N.2	1	UNK0	0.000	
10	   C	-2.360	4.262	-0.334	C.3	1	UNK0	0.000	
11	   C	-1.188	3.758	0.444	C.3	1	UNK0	0.000	
12	   N	-1.501	2.385	0.727	N.pl3	1	UNK0	0.000	
13	   C	-0.728	1.406	1.450	C.2	1	UNK0	0.000	
14	   N	0.477	1.465	2.061	N.2	1	UNK0	0.000	
15	   N	0.740	0.285	2.584	N.pl3	1	UNK0	0.000	
16	   C	-0.313	-0.501	2.288	C.2	1	UNK0	0.000	
17	   O	-0.393	-1.710	2.641	O.2	1	UNK0	0.000	
18	   N	-1.247	0.173	1.580	N.pl3	1	UNK0	0.000	
19	   C	1.935	-0.113	3.339	C.3	1	UNK0	0.000	
20	   C	2.962	-0.636	2.403	C.2	1	UNK0	0.000	
21	   O	4.049	-1.020	2.900	O.2	1	UNK0	0.000	
22	   N	2.747	-0.708	1.005	N.pl3	1	UNK0	0.000	
23	   C	3.778	-1.224	0.139	C.3	1	UNK0	0.000	
24	   C	3.375	-1.221	-1.273	C.2	1	UNK0	0.000	
25	   O	2.227	-0.811	-1.754	O.3	1	UNK0	0.000	
26	   C	2.222	-0.959	-3.072	C.2	1	UNK0	0.000	
27	   C	3.433	-1.496	-3.485	C.2	1	UNK0	0.000	
28	   C	4.165	-1.660	-2.314	C.2	1	UNK0	0.000	
29	   H	-2.442	-2.170	1.718	 H	1	UNK0	0.000	
30	   H	-5.115	1.112	-0.749	 H	1	UNK0	0.000	
31	   H	-6.000	-1.148	-0.476	 H	1	UNK0	0.000	
32	   H	-2.847	5.145	0.137	 H	1	UNK0	0.000	
33	   H	-2.036	4.488	-1.378	 H	1	UNK0	0.000	
34	   H	-0.225	3.863	-0.112	 H	1	UNK0	0.000	
35	   H	-1.159	4.362	1.392	 H	1	UNK0	0.000	
36	   H	2.357	0.770	3.865	 H	1	UNK0	0.000	
37	   H	1.651	-0.843	4.111	 H	1	UNK0	0.000	
38	   H	1.847	-0.387	0.624	 H	1	UNK0	0.000	
39	   H	4.696	-0.612	0.328	 H	1	UNK0	0.000	
40	   H	4.082	-2.272	0.428	 H	1	UNK0	0.000	
41	   H	1.397	-0.698	-3.726	 H	1	UNK0	0.000	
42	   H	3.721	-1.729	-4.504	 H	1	UNK0	0.000	
43	   H	5.166	-2.066	-2.315	 H	1	UNK0	0.000	
@<TRIPOS>BOND
1 1 2 1
2 2 3 2
3 2 7 1
4 3 4 1
5 4 5 2
6 4 18 1
7 5 6 1
8 5 8 1
9 6 7 2
10 8 9 2
11 8 12 1
12 9 10 1
13 10 11 1
14 11 12 1
15 12 13 1
16 13 14 2
17 13 18 1
18 14 15 1
19 15 16 1
20 15 19 1
21 16 17 2
22 16 18 1
23 19 20 1
24 20 21 2
25 20 22 1
26 22 23 1
27 23 24 1
28 24 25 1
29 24 28 2
30 25 26 1
31 26 27 2
32 27 28 1
33 3 29 1
34 6 30 1
35 7 31 1
36 10 32 1
37 10 33 1
38 11 34 1
39 11 35 1
40 19 36 1
41 19 37 1
42 22 38 1
43 23 39 1
44 23 40 1
45 26 41 1
46 27 42 1
47 28 43 1
@<TRIPOS>SUBSTRUCTURE
1	UNK0	1	GROUP	1 ****	UNK
