# created with PyMOL 2.3.2
@<TRIPOS>MOLECULE
1805
48 52 1                 
SMALL
USER_CHARGES
@<TRIPOS>ATOM
1	  Cl	4.083	-4.320	-3.997	Cl	1	UNK0	0.000	
2	   C	3.141	-3.284	-2.926	C.2	1	UNK0	0.000	
3	   C	3.787	-2.342	-2.153	C.2	1	UNK0	0.000	
4	   C	3.005	-1.545	-1.321	C.2	1	UNK0	0.000	
5	   C	1.639	-1.681	-1.263	C.2	1	UNK0	0.000	
6	   C	0.978	-2.615	-2.027	C.2	1	UNK0	0.000	
7	   C	1.750	-3.408	-2.853	C.2	1	UNK0	0.000	
8	   N	0.898	-0.817	-0.396	N.pl3	1	UNK0	0.000	
9	   C	1.521	-0.372	0.816	C.3	1	UNK0	0.000	
10	   C	3.005	-0.237	0.758	C.3	1	UNK0	0.000	
11	   N	3.624	-0.568	-0.497	N.pl3	1	UNK0	0.000	
12	   C	4.879	0.077	-0.933	C.3	1	UNK0	0.000	
13	   C	4.865	1.562	-1.092	C.3	1	UNK0	0.000	
14	   C	4.791	0.764	-2.314	C.3	1	UNK0	0.000	
15	   C	-0.415	-0.385	-0.724	C.2	1	UNK0	0.000	
16	   O	-0.920	-0.712	-1.855	O.2	1	UNK0	0.000	
17	   C	-1.270	0.424	0.138	C.3	1	UNK0	0.000	
18	   C	-1.494	-0.152	1.516	C.3	1	UNK0	0.000	
19	   C	-2.971	-0.120	1.830	C.3	1	UNK0	0.000	
20	   O	-3.772	-0.787	0.951	O.3	1	UNK0	0.000	
21	   C	-3.399	-0.688	-0.359	C.3	1	UNK0	0.000	
22	   C	-2.631	0.593	-0.567	C.3	1	UNK0	0.000	
23	   N	-0.709	1.752	0.230	N.pl3	1	UNK0	0.000	
24	   N	0.078	2.373	-0.641	N.2	1	UNK0	0.000	
25	   N	0.366	3.583	-0.185	N.2	1	UNK0	0.000	
26	   N	-0.220	3.770	0.976	N.2	1	UNK0	0.000	
27	   C	-0.894	2.624	1.236	C.2	1	UNK0	0.000	
28	   H	4.861	-2.193	-2.165	 H	1	UNK0	0.000	
29	   H	-0.094	-2.714	-1.961	 H	1	UNK0	0.000	
30	   H	1.283	-4.148	-3.465	 H	1	UNK0	0.000	
31	   H	1.293	-1.138	1.619	 H	1	UNK0	0.000	
32	   H	1.114	0.578	1.206	 H	1	UNK0	0.000	
33	   H	3.511	-0.909	1.516	 H	1	UNK0	0.000	
34	   H	3.338	0.793	1.092	 H	1	UNK0	0.000	
35	   H	5.823	-0.434	-0.749	 H	1	UNK0	0.000	
36	   H	5.817	2.111	-0.891	 H	1	UNK0	0.000	
37	   H	3.976	2.142	-0.794	 H	1	UNK0	0.000	
38	   H	5.663	0.714	-2.968	 H	1	UNK0	0.000	
39	   H	3.805	0.652	-2.854	 H	1	UNK0	0.000	
40	   H	-1.098	-1.154	1.669	 H	1	UNK0	0.000	
41	   H	-1.012	0.529	2.244	 H	1	UNK0	0.000	
42	   H	-3.353	0.914	1.957	 H	1	UNK0	0.000	
43	   H	-3.089	-0.613	2.835	 H	1	UNK0	0.000	
44	   H	-2.718	-1.526	-0.616	 H	1	UNK0	0.000	
45	   H	-4.258	-0.737	-1.059	 H	1	UNK0	0.000	
46	   H	-2.465	0.721	-1.665	 H	1	UNK0	0.000	
47	   H	-3.156	1.488	-0.214	 H	1	UNK0	0.000	
48	   H	-1.472	2.515	2.148	 H	1	UNK0	0.000	
@<TRIPOS>BOND
1 1 2 1
2 2 3 2
3 2 7 1
4 3 4 1
5 4 5 2
6 4 11 1
7 5 6 1
8 5 8 1
9 6 7 2
10 8 9 1
11 8 15 1
12 9 10 1
13 10 11 1
14 11 12 1
15 12 13 1
16 12 14 1
17 13 14 1
18 15 16 2
19 15 17 1
20 17 18 1
21 17 22 1
22 17 23 1
23 18 19 1
24 19 20 1
25 20 21 1
26 21 22 1
27 23 24 1
28 23 27 1
29 24 25 2
30 25 26 1
31 26 27 2
32 3 28 1
33 6 29 1
34 7 30 1
35 9 31 1
36 9 32 1
37 10 33 1
38 10 34 1
39 12 35 1
40 13 36 1
41 13 37 1
42 14 38 1
43 14 39 1
44 18 40 1
45 18 41 1
46 19 42 1
47 19 43 1
48 21 44 1
49 21 45 1
50 22 46 1
51 22 47 1
52 27 48 1
@<TRIPOS>SUBSTRUCTURE
1	UNK0	1	GROUP	1 ****	UNK
