# created with PyMOL 2.3.2
@<TRIPOS>MOLECULE
1807
34 37 1                 
SMALL
USER_CHARGES
@<TRIPOS>ATOM
1	  Cl	1.288	-1.256	-3.227	Cl	1	UNK0	0.000	
2	   C	0.277	-2.043	-2.004	C.2	1	UNK0	0.000	
3	   C	-0.286	-1.258	-1.028	C.2	1	UNK0	0.000	
4	   C	-1.084	-1.852	-0.054	C.2	1	UNK0	0.000	
5	   C	-1.263	-3.210	-0.133	C.2	1	UNK0	0.000	
6	   N	-2.077	-3.564	0.898	N.pl3	1	UNK0	0.000	
7	   C	-2.408	-2.492	1.609	C.2	1	UNK0	0.000	
8	   C	-1.784	-1.381	1.022	C.2	1	UNK0	0.000	
9	   C	-1.861	0.003	1.534	C.3	1	UNK0	0.000	
10	   C	-0.756	0.438	2.410	C.3	1	UNK0	0.000	
11	   N	0.564	0.479	1.916	N.pl3	1	UNK0	0.000	
12	   C	0.995	1.447	0.944	C.2	1	UNK0	0.000	
13	   N	0.162	2.373	0.451	N.2	1	UNK0	0.000	
14	   N	0.479	3.293	-0.439	N.pl3	1	UNK0	0.000	
15	   N	-0.172	4.280	-1.049	N.2	1	UNK0	0.000	
16	   N	0.630	4.913	-1.866	N.2	1	UNK0	0.000	
17	   N	1.802	4.339	-1.787	N.2	1	UNK0	0.000	
18	   C	1.742	3.315	-0.899	C.2	1	UNK0	0.000	
19	   C	2.685	2.398	-0.450	C.2	1	UNK0	0.000	
20	   C	2.297	1.452	0.486	C.2	1	UNK0	0.000	
21	   C	-0.691	-4.012	-1.127	C.2	1	UNK0	0.000	
22	   C	0.096	-3.408	-2.081	C.2	1	UNK0	0.000	
23	   H	-0.154	-0.191	-0.982	 H	1	UNK0	0.000	
24	   H	-2.392	-4.530	1.097	 H	1	UNK0	0.000	
25	   H	-3.041	-2.415	2.496	 H	1	UNK0	0.000	
26	   H	-2.812	0.088	2.141	 H	1	UNK0	0.000	
27	   H	-2.028	0.648	0.646	 H	1	UNK0	0.000	
28	   H	-0.788	-0.246	3.320	 H	1	UNK0	0.000	
29	   H	-1.003	1.446	2.877	 H	1	UNK0	0.000	
30	   H	1.281	-0.213	2.253	 H	1	UNK0	0.000	
31	   H	3.690	2.448	-0.843	 H	1	UNK0	0.000	
32	   H	3.013	0.724	0.855	 H	1	UNK0	0.000	
33	   H	-0.870	-5.082	-1.135	 H	1	UNK0	0.000	
34	   H	0.572	-3.984	-2.883	 H	1	UNK0	0.000	
@<TRIPOS>BOND
1 1 2 1
2 2 3 2
3 2 22 1
4 3 4 1
5 4 5 2
6 4 8 1
7 5 6 1
8 5 21 1
9 6 7 1
10 7 8 2
11 8 9 1
12 9 10 1
13 10 11 1
14 11 12 1
15 12 13 2
16 12 20 1
17 13 14 1
18 14 15 1
19 14 18 1
20 15 16 2
21 16 17 1
22 17 18 2
23 18 19 1
24 19 20 2
25 21 22 2
26 3 23 1
27 6 24 1
28 7 25 1
29 9 26 1
30 9 27 1
31 10 28 1
32 10 29 1
33 11 30 1
34 19 31 1
35 20 32 1
36 21 33 1
37 22 34 1
@<TRIPOS>SUBSTRUCTURE
1	UNK0	1	GROUP	1 ****	UNK
