# created with PyMOL 2.3.2
@<TRIPOS>MOLECULE
1809
45 48 1                 
SMALL
USER_CHARGES
@<TRIPOS>ATOM
1	   S	2.565	0.277	-3.936	S.O2	1	UNK0	0.000	
2	   O	2.072	0.544	-5.324	O.2	1	UNK0	0.000	
3	   O	3.783	-0.598	-4.016	O.2	1	UNK0	0.000	
4	   N	1.377	-0.492	-3.042	N.3	1	UNK0	0.000	
5	   C	0.148	0.172	-2.866	C.3	1	UNK0	0.000	
6	   C	-0.122	0.359	-1.377	C.3	1	UNK0	0.000	
7	   N	-0.321	-0.962	-0.836	N.pl3	1	UNK0	0.000	
8	   C	0.556	-2.012	-1.402	C.3	1	UNK0	0.000	
9	   C	1.795	-1.358	-2.001	C.3	1	UNK0	0.000	
10	   C	-1.267	-1.294	0.164	C.2	1	UNK0	0.000	
11	   O	-1.389	-2.494	0.570	O.2	1	UNK0	0.000	
12	   C	-2.123	-0.238	0.746	C.3	1	UNK0	0.000	
13	   C	-3.262	-0.831	1.557	C.3	1	UNK0	0.000	
14	   C	-2.993	-0.945	3.015	C.3	1	UNK0	0.000	
15	   N	-1.585	-0.991	3.363	N.pl3	1	UNK0	0.000	
16	   C	-0.701	-0.231	2.702	C.2	1	UNK0	0.000	
17	   C	0.539	-0.472	3.234	C.2	1	UNK0	0.000	
18	   N	0.368	-1.377	4.207	N.2	1	UNK0	0.000	
19	   C	-0.933	-1.696	4.287	C.2	1	UNK0	0.000	
20	   C	-1.246	0.635	1.621	C.3	1	UNK0	0.000	
21	   C	3.094	1.810	-3.241	C.2	1	UNK0	0.000	
22	   S	3.799	2.126	-1.720	S.3	1	UNK0	0.000	
23	   C	3.993	3.814	-1.851	C.2	1	UNK0	0.000	
24	   C	3.493	4.086	-3.099	C.2	1	UNK0	0.000	
25	   C	3.032	3.051	-3.810	C.2	1	UNK0	0.000	
26	  Cl	4.670	4.947	-0.674	Cl	1	UNK0	0.000	
27	   H	0.121	1.119	-3.417	 H	1	UNK0	0.000	
28	   H	-0.678	-0.466	-3.255	 H	1	UNK0	0.000	
29	   H	0.790	0.860	-0.979	 H	1	UNK0	0.000	
30	   H	-1.010	0.996	-1.260	 H	1	UNK0	0.000	
31	   H	-0.033	-2.550	-2.185	 H	1	UNK0	0.000	
32	   H	0.798	-2.738	-0.622	 H	1	UNK0	0.000	
33	   H	2.337	-0.882	-1.179	 H	1	UNK0	0.000	
34	   H	2.398	-2.182	-2.433	 H	1	UNK0	0.000	
35	   H	-2.506	0.390	-0.074	 H	1	UNK0	0.000	
36	   H	-3.588	-1.788	1.091	 H	1	UNK0	0.000	
37	   H	-4.130	-0.127	1.429	 H	1	UNK0	0.000	
38	   H	-3.438	-0.126	3.620	 H	1	UNK0	0.000	
39	   H	-3.455	-1.885	3.375	 H	1	UNK0	0.000	
40	   H	1.461	0.004	2.898	 H	1	UNK0	0.000	
41	   H	-1.333	-2.419	5.010	 H	1	UNK0	0.000	
42	   H	-1.844	1.426	2.112	 H	1	UNK0	0.000	
43	   H	-0.430	1.016	1.030	 H	1	UNK0	0.000	
44	   H	3.497	5.145	-3.453	 H	1	UNK0	0.000	
45	   H	2.610	3.181	-4.830	 H	1	UNK0	0.000	
@<TRIPOS>BOND
1 1 2 2
2 1 3 2
3 1 4 1
4 1 21 1
5 4 5 1
6 4 9 1
7 5 6 1
8 6 7 1
9 7 8 1
10 7 10 1
11 8 9 1
12 10 11 2
13 10 12 1
14 12 13 1
15 12 20 1
16 13 14 1
17 14 15 1
18 15 16 1
19 15 19 1
20 16 17 2
21 16 20 1
22 17 18 1
23 18 19 2
24 21 22 1
25 21 25 2
26 22 23 1
27 23 24 2
28 23 26 1
29 24 25 1
30 5 27 1
31 5 28 1
32 6 29 1
33 6 30 1
34 8 31 1
35 8 32 1
36 9 33 1
37 9 34 1
38 12 35 1
39 13 36 1
40 13 37 1
41 14 38 1
42 14 39 1
43 17 40 1
44 19 41 1
45 20 42 1
46 20 43 1
47 24 44 1
48 25 45 1
@<TRIPOS>SUBSTRUCTURE
1	UNK0	1	GROUP	1 ****	UNK
