# created with PyMOL 2.3.2
@<TRIPOS>MOLECULE
1811
49 52 1                 
SMALL
USER_CHARGES
@<TRIPOS>ATOM
1	  Cl	0.889	1.944	1.641	Cl	1	UNK0	0.000	
2	   C	-0.627	1.026	1.391	C.2	1	UNK0	0.000	
3	   C	-1.452	1.419	0.353	C.2	1	UNK0	0.000	
4	   C	-2.597	0.629	0.213	C.2	1	UNK0	0.000	
5	   C	-2.890	-0.424	1.027	C.2	1	UNK0	0.000	
6	   C	-2.017	-0.794	2.061	C.2	1	UNK0	0.000	
7	   C	-0.851	-0.029	2.239	C.2	1	UNK0	0.000	
8	   C	0.101	-0.197	3.368	C.3	1	UNK0	0.000	
9	   N	1.009	-1.206	3.084	N.3	1	UNK0	0.000	
10	   C	2.178	-1.401	3.788	C.3	1	UNK0	0.000	
11	   C	3.428	-1.226	2.944	C.3	1	UNK0	0.000	
12	   N	3.188	-1.202	1.542	N.pl3	1	UNK0	0.000	
13	   N	3.968	-0.863	0.523	N.2	1	UNK0	0.000	
14	   C	3.355	-0.927	-0.673	C.2	1	UNK0	0.000	
15	   C	2.070	-1.342	-0.362	C.2	1	UNK0	0.000	
16	   C	2.017	-1.499	0.989	C.2	1	UNK0	0.000	
17	   C	0.927	-1.946	1.880	C.3	1	UNK0	0.000	
18	   C	3.863	-0.626	-1.991	C.3	1	UNK0	0.000	
19	   O	5.229	-0.299	-1.856	O.3	1	UNK0	0.000	
20	   C	3.730	-1.705	-3.049	C.3	1	UNK0	0.000	
21	   N	2.389	-2.100	-3.253	N.3	1	UNK0	0.000	
22	   C	1.462	-1.208	-3.818	C.3	1	UNK0	0.000	
23	   C	2.030	-3.449	-3.035	C.3	1	UNK0	0.000	
24	   O	-4.137	-0.957	0.611	O.3	1	UNK0	0.000	
25	   C	-4.818	0.150	-0.078	C.3	1	UNK0	0.000	
26	   O	-3.622	0.702	-0.726	O.3	1	UNK0	0.000	
27	   H	-1.207	2.230	-0.286	 H	1	UNK0	0.000	
28	   H	-2.230	-1.612	2.701	 H	1	UNK0	0.000	
29	   H	-0.584	-0.578	4.272	 H	1	UNK0	0.000	
30	   H	0.474	0.770	3.704	 H	1	UNK0	0.000	
31	   H	2.235	-2.440	4.244	 H	1	UNK0	0.000	
32	   H	2.291	-0.682	4.661	 H	1	UNK0	0.000	
33	   H	4.216	-2.011	3.225	 H	1	UNK0	0.000	
34	   H	3.914	-0.274	3.241	 H	1	UNK0	0.000	
35	   H	1.235	-1.529	-1.064	 H	1	UNK0	0.000	
36	   H	1.079	-3.045	2.028	 H	1	UNK0	0.000	
37	   H	-0.073	-1.883	1.364	 H	1	UNK0	0.000	
38	   H	3.389	0.283	-2.363	 H	1	UNK0	0.000	
39	   H	5.808	-1.124	-1.985	 H	1	UNK0	0.000	
40	   H	4.399	-2.577	-2.814	 H	1	UNK0	0.000	
41	   H	4.154	-1.293	-3.982	 H	1	UNK0	0.000	
42	   H	1.328	-1.186	-4.887	 H	1	UNK0	0.000	
43	   H	0.458	-1.452	-3.335	 H	1	UNK0	0.000	
44	   H	1.693	-0.185	-3.392	 H	1	UNK0	0.000	
45	   H	1.913	-4.047	-3.946	 H	1	UNK0	0.000	
46	   H	2.748	-3.884	-2.300	 H	1	UNK0	0.000	
47	   H	1.030	-3.437	-2.492	 H	1	UNK0	0.000	
48	   H	-5.543	-0.190	-0.787	 H	1	UNK0	0.000	
49	   H	-5.150	0.903	0.673	 H	1	UNK0	0.000	
@<TRIPOS>BOND
1 1 2 1
2 2 3 2
3 2 7 1
4 3 4 1
5 4 5 2
6 4 26 1
7 5 6 1
8 5 24 1
9 6 7 2
10 7 8 1
11 8 9 1
12 9 10 1
13 9 17 1
14 10 11 1
15 11 12 1
16 12 13 1
17 12 16 1
18 13 14 2
19 14 15 1
20 14 18 1
21 15 16 2
22 16 17 1
23 18 19 1
24 18 20 1
25 20 21 1
26 21 22 1
27 21 23 1
28 24 25 1
29 25 26 1
30 3 27 1
31 6 28 1
32 8 29 1
33 8 30 1
34 10 31 1
35 10 32 1
36 11 33 1
37 11 34 1
38 15 35 1
39 17 36 1
40 17 37 1
41 18 38 1
42 19 39 1
43 20 40 1
44 20 41 1
45 22 42 1
46 22 43 1
47 22 44 1
48 23 45 1
49 23 46 1
50 23 47 1
51 25 48 1
52 25 49 1
@<TRIPOS>SUBSTRUCTURE
1	UNK0	1	GROUP	1 ****	UNK
