# created with PyMOL 2.3.2
@<TRIPOS>MOLECULE
1816
58 61 1                 
SMALL
USER_CHARGES
@<TRIPOS>ATOM
1	  Cl	0.119	-0.226	-8.156	Cl	1	UNK0	0.000	
2	   C	0.016	0.975	-6.889	C.2	1	UNK0	0.000	
3	   C	-0.366	0.650	-5.591	C.2	1	UNK0	0.000	
4	   C	-0.448	1.596	-4.598	C.2	1	UNK0	0.000	
5	   C	-0.140	2.901	-4.905	C.2	1	UNK0	0.000	
6	   C	0.245	3.224	-6.213	C.2	1	UNK0	0.000	
7	   C	0.326	2.277	-7.208	C.2	1	UNK0	0.000	
8	   O	0.713	2.611	-8.519	O.3	1	UNK0	0.000	
9	   C	1.038	3.929	-8.886	C.3	1	UNK0	0.000	
10	   O	-0.213	3.814	-3.967	O.3	1	UNK0	0.000	
11	   C	-0.571	3.541	-2.736	C.2	1	UNK0	0.000	
12	   O	-0.630	4.458	-1.850	O.co2	1	UNK0	0.000	
13	   C	-0.904	2.254	-2.317	C.2	1	UNK0	0.000	
14	   C	-0.831	1.283	-3.290	C.2	1	UNK0	0.000	
15	   C	-1.152	-0.105	-2.973	C.3	1	UNK0	0.000	
16	   C	-1.299	2.011	-0.911	C.3	1	UNK0	0.000	
17	   C	-0.115	2.003	-0.008	C.2	1	UNK0	0.000	
18	   O	1.031	2.198	-0.542	O.2	1	UNK0	0.000	
19	   N	-0.160	1.801	1.360	N.pl3	1	UNK0	0.000	
20	   C	1.002	1.799	2.193	C.3	1	UNK0	0.000	
21	   C	1.087	0.433	2.877	C.3	1	UNK0	0.000	
22	   N	-0.127	0.176	3.575	N.pl3	1	UNK0	0.000	
23	   C	-1.179	1.210	3.474	C.3	1	UNK0	0.000	
24	   C	-1.422	1.577	2.027	C.3	1	UNK0	0.000	
25	   C	-0.408	-0.975	4.341	C.2	1	UNK0	0.000	
26	   O	-1.615	-0.957	4.897	O.2	1	UNK0	0.000	
27	   C	0.364	-2.147	4.625	C.2	1	UNK0	0.000	
28	   C	-0.182	-3.153	5.462	C.2	1	UNK0	0.000	
29	   C	0.526	-4.286	5.762	C.2	1	UNK0	0.000	
30	   O	0.018	-5.164	6.508	O.2	1	UNK0	0.000	
31	   N	1.760	-4.513	5.293	N.pl3	1	UNK0	0.000	
32	   C	2.274	-3.567	4.506	C.2	1	UNK0	0.000	
33	   O	3.446	-3.735	4.034	O.2	1	UNK0	0.000	
34	   N	1.588	-2.415	4.184	N.pl3	1	UNK0	0.000	
35	   C	2.492	-5.714	5.623	C.3	1	UNK0	0.000	
36	   H	-0.611	-0.370	-5.334	 H	1	UNK0	0.000	
37	   H	0.482	4.254	-6.434	 H	1	UNK0	0.000	
38	   H	1.631	4.465	-8.122	 H	1	UNK0	0.000	
39	   H	1.514	3.901	-9.881	 H	1	UNK0	0.000	
40	   H	0.058	4.489	-8.932	 H	1	UNK0	0.000	
41	   H	-1.972	-0.412	-3.690	 H	1	UNK0	0.000	
42	   H	-1.541	-0.277	-1.979	 H	1	UNK0	0.000	
43	   H	-0.313	-0.793	-3.221	 H	1	UNK0	0.000	
44	   H	-2.014	1.216	-0.744	 H	1	UNK0	0.000	
45	   H	-1.853	2.958	-0.612	 H	1	UNK0	0.000	
46	   H	0.946	2.548	3.013	 H	1	UNK0	0.000	
47	   H	1.939	2.026	1.646	 H	1	UNK0	0.000	
48	   H	1.213	-0.353	2.092	 H	1	UNK0	0.000	
49	   H	2.003	0.420	3.509	 H	1	UNK0	0.000	
50	   H	-2.061	0.837	4.000	 H	1	UNK0	0.000	
51	   H	-0.778	2.099	3.980	 H	1	UNK0	0.000	
52	   H	-1.921	0.721	1.543	 H	1	UNK0	0.000	
53	   H	-2.062	2.464	1.916	 H	1	UNK0	0.000	
54	   H	-1.178	-2.971	5.842	 H	1	UNK0	0.000	
55	   H	2.076	-1.743	3.560	 H	1	UNK0	0.000	
56	   H	3.548	-5.574	5.308	 H	1	UNK0	0.000	
57	   H	2.122	-6.588	5.016	 H	1	UNK0	0.000	
58	   H	2.448	-5.968	6.698	 H	1	UNK0	0.000	
@<TRIPOS>BOND
1 1 2 1
2 2 3 2
3 2 7 1
4 3 4 1
5 4 5 2
6 4 14 1
7 5 6 1
8 5 10 1
9 6 7 2
10 7 8 1
11 8 9 1
12 10 11 1
13 11 12 2
14 11 13 1
15 13 14 2
16 13 16 1
17 14 15 1
18 16 17 1
19 17 18 2
20 17 19 1
21 19 20 1
22 19 24 1
23 20 21 1
24 21 22 1
25 22 23 1
26 22 25 1
27 23 24 1
28 25 26 2
29 25 27 1
30 27 28 2
31 27 34 1
32 28 29 1
33 29 30 2
34 29 31 1
35 31 32 1
36 31 35 1
37 32 33 2
38 32 34 1
39 3 36 1
40 6 37 1
41 9 38 1
42 9 39 1
43 9 40 1
44 15 41 1
45 15 42 1
46 15 43 1
47 16 44 1
48 16 45 1
49 20 46 1
50 20 47 1
51 21 48 1
52 21 49 1
53 23 50 1
54 23 51 1
55 24 52 1
56 24 53 1
57 28 54 1
58 34 55 1
59 35 56 1
60 35 57 1
61 35 58 1
@<TRIPOS>SUBSTRUCTURE
1	UNK0	1	GROUP	1 ****	UNK
