# created with PyMOL 2.3.2
@<TRIPOS>MOLECULE
1817
39 42 1                 
SMALL
USER_CHARGES
@<TRIPOS>ATOM
1	  Cl	-4.865	6.125	0.513	Cl	1	UNK0	0.000	
2	   C	-3.886	5.268	-0.654	C.2	1	UNK0	0.000	
3	   N	-3.694	5.664	-1.929	N.2	1	UNK0	0.000	
4	   N	-2.901	4.778	-2.519	N.pl3	1	UNK0	0.000	
5	   C	-2.582	3.821	-1.643	C.2	1	UNK0	0.000	
6	   N	-3.197	4.132	-0.488	N.2	1	UNK0	0.000	
7	   C	-1.720	2.670	-1.934	C.3	1	UNK0	0.000	
8	   C	-1.538	1.755	-0.753	C.3	1	UNK0	0.000	
9	   C	-0.675	0.623	-1.083	C.2	1	UNK0	0.000	
10	   O	-0.206	0.546	-2.260	O.2	1	UNK0	0.000	
11	   N	-0.322	-0.405	-0.172	N.pl3	1	UNK0	0.000	
12	   C	0.540	-1.508	-0.553	C.3	1	UNK0	0.000	
13	   C	1.686	-1.502	0.401	C.3	1	UNK0	0.000	
14	   N	2.769	-2.375	0.030	N.pl3	1	UNK0	0.000	
15	   N	3.151	-3.026	-1.038	N.2	1	UNK0	0.000	
16	   N	4.282	-3.698	-0.771	N.2	1	UNK0	0.000	
17	   C	4.637	-3.470	0.514	C.2	1	UNK0	0.000	
18	   C	3.668	-2.631	1.004	C.2	1	UNK0	0.000	
19	   C	3.409	-1.975	2.313	C.3	1	UNK0	0.000	
20	   O	2.103	-2.122	2.708	O.3	1	UNK0	0.000	
21	   C	1.148	-1.855	1.771	C.3	1	UNK0	0.000	
22	   C	0.270	-0.684	2.201	C.3	1	UNK0	0.000	
23	   C	-0.806	-0.409	1.195	C.3	1	UNK0	0.000	
24	   H	-2.584	4.832	-3.510	 H	1	UNK0	0.000	
25	   H	-0.692	3.037	-2.214	 H	1	UNK0	0.000	
26	   H	-2.080	2.109	-2.811	 H	1	UNK0	0.000	
27	   H	-1.250	2.291	0.162	 H	1	UNK0	0.000	
28	   H	-2.562	1.330	-0.535	 H	1	UNK0	0.000	
29	   H	0.826	-1.479	-1.617	 H	1	UNK0	0.000	
30	   H	-0.049	-2.446	-0.358	 H	1	UNK0	0.000	
31	   H	2.085	-0.462	0.484	 H	1	UNK0	0.000	
32	   H	5.498	-3.862	1.045	 H	1	UNK0	0.000	
33	   H	3.615	-0.881	2.233	 H	1	UNK0	0.000	
34	   H	4.066	-2.431	3.072	 H	1	UNK0	0.000	
35	   H	0.465	-2.746	1.650	 H	1	UNK0	0.000	
36	   H	-0.241	-1.022	3.140	 H	1	UNK0	0.000	
37	   H	0.900	0.200	2.344	 H	1	UNK0	0.000	
38	   H	-1.556	-1.231	1.262	 H	1	UNK0	0.000	
39	   H	-1.285	0.550	1.470	 H	1	UNK0	0.000	
@<TRIPOS>BOND
1 1 2 1
2 2 3 2
3 2 6 1
4 3 4 1
5 4 5 1
6 5 6 2
7 5 7 1
8 7 8 1
9 8 9 1
10 9 10 2
11 9 11 1
12 11 12 1
13 11 23 1
14 12 13 1
15 13 14 1
16 13 21 1
17 14 15 1
18 14 18 1
19 15 16 2
20 16 17 1
21 17 18 2
22 18 19 1
23 19 20 1
24 20 21 1
25 21 22 1
26 22 23 1
27 4 24 1
28 7 25 1
29 7 26 1
30 8 27 1
31 8 28 1
32 12 29 1
33 12 30 1
34 13 31 1
35 17 32 1
36 19 33 1
37 19 34 1
38 21 35 1
39 22 36 1
40 22 37 1
41 23 38 1
42 23 39 1
@<TRIPOS>SUBSTRUCTURE
1	UNK0	1	GROUP	1 ****	UNK
