# created with PyMOL 2.3.2
@<TRIPOS>MOLECULE
1818
35 38 1                 
SMALL
USER_CHARGES
@<TRIPOS>ATOM
1	  Cl	3.545	2.616	-0.299	Cl	1	UNK0	0.000	
2	   C	2.061	1.806	-0.833	C.2	1	UNK0	0.000	
3	   C	1.567	0.795	-0.021	C.2	1	UNK0	0.000	
4	   C	0.422	0.154	-0.411	C.2	1	UNK0	0.000	
5	   O	-0.035	-0.763	0.316	O.2	1	UNK0	0.000	
6	   N	-0.172	0.528	-1.558	N.pl3	1	UNK0	0.000	
7	   C	0.318	1.514	-2.341	C.2	1	UNK0	0.000	
8	   N	1.452	2.165	-1.976	N.2	1	UNK0	0.000	
9	   C	-0.290	1.909	-3.530	C.2	1	UNK0	0.000	
10	   C	-1.440	1.234	-3.881	C.2	1	UNK0	0.000	
11	   C	-1.950	0.221	-3.083	C.2	1	UNK0	0.000	
12	   C	-1.293	-0.110	-1.926	C.2	1	UNK0	0.000	
13	   C	0.280	3.000	-4.367	C.3	1	UNK0	0.000	
14	   C	2.291	0.442	1.238	C.3	1	UNK0	0.000	
15	   N	1.667	1.029	2.408	N.pl3	1	UNK0	0.000	
16	   C	0.921	0.267	3.351	C.2	1	UNK0	0.000	
17	   O	0.229	0.824	4.260	O.2	1	UNK0	0.000	
18	   N	0.946	-1.154	3.282	N.pl3	1	UNK0	0.000	
19	   C	1.731	-1.742	2.252	C.2	1	UNK0	0.000	
20	   C	2.413	-1.044	1.390	C.2	1	UNK0	0.000	
21	   C	3.265	-1.953	0.651	C.2	1	UNK0	0.000	
22	   O	4.087	-1.717	-0.274	O.co2	1	UNK0	0.000	
23	   O	3.042	-3.247	1.136	O.3	1	UNK0	0.000	
24	   C	1.908	-3.214	1.985	C.3	1	UNK0	0.000	
25	   H	-1.969	1.483	-4.790	 H	1	UNK0	0.000	
26	   H	-2.861	-0.311	-3.365	 H	1	UNK0	0.000	
27	   H	-1.652	-0.901	-1.260	 H	1	UNK0	0.000	
28	   H	1.368	2.836	-4.505	 H	1	UNK0	0.000	
29	   H	-0.190	2.887	-5.382	 H	1	UNK0	0.000	
30	   H	0.031	3.975	-3.938	 H	1	UNK0	0.000	
31	   H	3.311	0.865	1.138	 H	1	UNK0	0.000	
32	   H	1.750	2.052	2.595	 H	1	UNK0	0.000	
33	   H	0.401	-1.740	3.971	 H	1	UNK0	0.000	
34	   H	1.043	-3.588	1.392	 H	1	UNK0	0.000	
35	   H	2.050	-3.778	2.912	 H	1	UNK0	0.000	
@<TRIPOS>BOND
1 1 2 1
2 2 3 2
3 2 8 1
4 3 4 1
5 3 14 1
6 4 5 2
7 4 6 1
8 6 7 1
9 6 12 1
10 7 8 2
11 7 9 1
12 9 10 2
13 9 13 1
14 10 11 1
15 11 12 2
16 14 15 1
17 14 20 1
18 15 16 1
19 16 17 2
20 16 18 1
21 18 19 1
22 19 20 2
23 19 24 1
24 20 21 1
25 21 22 2
26 21 23 1
27 23 24 1
28 10 25 1
29 11 26 1
30 12 27 1
31 13 28 1
32 13 29 1
33 13 30 1
34 14 31 1
35 15 32 1
36 18 33 1
37 24 34 1
38 24 35 1
@<TRIPOS>SUBSTRUCTURE
1	UNK0	1	GROUP	1 ****	UNK
