# created with PyMOL 2.3.2
@<TRIPOS>MOLECULE
1820
43 46 1                 
SMALL
USER_CHARGES
@<TRIPOS>ATOM
1	  Cl	0.498	4.630	1.276	Cl	1	UNK0	0.000	
2	   C	0.118	4.353	-0.409	C.2	1	UNK0	0.000	
3	   C	-0.364	3.183	-0.884	C.2	1	UNK0	0.000	
4	   C	-0.624	3.136	-2.262	C.2	1	UNK0	0.000	
5	   C	-0.415	4.193	-3.114	C.2	1	UNK0	0.000	
6	   C	0.081	5.379	-2.596	C.2	1	UNK0	0.000	
7	   C	0.341	5.456	-1.271	C.2	1	UNK0	0.000	
8	   C	-0.655	2.001	-0.085	C.3	1	UNK0	0.000	
9	   N	0.451	1.240	0.441	N.pl3	1	UNK0	0.000	
10	   C	1.224	0.359	-0.286	C.2	1	UNK0	0.000	
11	   C	2.152	-0.234	0.549	C.2	1	UNK0	0.000	
12	   C	3.046	-1.167	0.040	C.2	1	UNK0	0.000	
13	   C	2.978	-1.471	-1.282	C.2	1	UNK0	0.000	
14	   C	2.064	-0.894	-2.127	C.2	1	UNK0	0.000	
15	   C	1.177	0.032	-1.624	C.2	1	UNK0	0.000	
16	   N	1.948	0.273	1.768	N.pl3	1	UNK0	0.000	
17	   C	0.913	1.164	1.695	C.cat	1	UNK0	0.000	
18	   N	0.418	1.752	2.722	N.pl3	1	UNK0	0.000	
19	   C	2.698	-0.073	2.933	C.3	1	UNK0	0.000	
20	   C	2.132	-1.209	3.676	C.2	1	UNK0	0.000	
21	   O	2.671	-1.629	4.708	O.2	1	UNK0	0.000	
22	   C	0.899	-1.858	3.183	C.2	1	UNK0	0.000	
23	   O	0.205	-1.556	2.131	O.3	1	UNK0	0.000	
24	   C	-0.830	-2.338	1.991	C.2	1	UNK0	0.000	
25	   C	-0.828	-3.231	3.028	C.2	1	UNK0	0.000	
26	   C	0.272	-2.925	3.785	C.2	1	UNK0	0.000	
27	   H	-1.023	2.234	-2.682	 H	1	UNK0	0.000	
28	   H	-0.609	4.173	-4.176	 H	1	UNK0	0.000	
29	   H	0.251	6.224	-3.263	 H	1	UNK0	0.000	
30	   H	0.728	6.390	-0.878	 H	1	UNK0	0.000	
31	   H	-1.256	1.284	-0.729	 H	1	UNK0	0.000	
32	   H	-1.359	2.270	0.774	 H	1	UNK0	0.000	
33	   H	3.750	-1.598	0.738	 H	1	UNK0	0.000	
34	   H	3.689	-2.209	-1.673	 H	1	UNK0	0.000	
35	   H	2.017	-1.146	-3.193	 H	1	UNK0	0.000	
36	   H	0.435	0.506	-2.242	 H	1	UNK0	0.000	
37	   H	0.864	1.625	3.667	 H	1	UNK0	0.000	
38	   H	-0.431	2.354	2.738	 H	1	UNK0	0.000	
39	   H	3.773	-0.295	2.688	 H	1	UNK0	0.000	
40	   H	2.739	0.829	3.600	 H	1	UNK0	0.000	
41	   H	-1.596	-2.342	1.222	 H	1	UNK0	0.000	
42	   H	-1.508	-4.035	3.272	 H	1	UNK0	0.000	
43	   H	0.638	-3.392	4.695	 H	1	UNK0	0.000	
@<TRIPOS>BOND
1 1 2 1
2 2 3 2
3 2 7 1
4 3 4 1
5 3 8 1
6 4 5 2
7 5 6 1
8 6 7 2
9 8 9 1
10 9 10 1
11 9 17 1
12 10 11 1
13 10 15 2
14 11 12 2
15 11 16 1
16 12 13 1
17 13 14 2
18 14 15 1
19 16 17 1
20 16 19 1
21 17 18 2
22 19 20 1
23 20 21 2
24 20 22 1
25 22 23 1
26 22 26 2
27 23 24 1
28 24 25 2
29 25 26 1
30 4 27 1
31 5 28 1
32 6 29 1
33 7 30 1
34 8 31 1
35 8 32 1
36 12 33 1
37 13 34 1
38 14 35 1
39 15 36 1
40 18 37 1
41 18 38 1
42 19 39 1
43 19 40 1
44 24 41 1
45 25 42 1
46 26 43 1
@<TRIPOS>SUBSTRUCTURE
1	UNK0	1	GROUP	1 ****	UNK
