# created with PyMOL 2.3.2
@<TRIPOS>MOLECULE
1821
46 50 1                 
SMALL
USER_CHARGES
@<TRIPOS>ATOM
1	  Cl	-0.619	0.379	3.005	Cl	1	UNK0	0.000	
2	   C	0.686	-0.014	1.896	C.2	1	UNK0	0.000	
3	   C	1.663	0.920	1.626	C.2	1	UNK0	0.000	
4	   C	2.666	0.562	0.748	C.2	1	UNK0	0.000	
5	   N	2.680	-0.658	0.182	N.2	1	UNK0	0.000	
6	   N	1.757	-1.575	0.421	N.pl3	1	UNK0	0.000	
7	   C	0.771	-1.243	1.275	C.2	1	UNK0	0.000	
8	   O	-0.121	-2.109	1.516	O.2	1	UNK0	0.000	
9	   C	1.812	-2.862	-0.204	C.2	1	UNK0	0.000	
10	   N	2.476	-3.954	0.215	N.pl3	1	UNK0	0.000	
11	   C	2.298	-4.988	-0.629	C.2	1	UNK0	0.000	
12	   C	1.473	-4.514	-1.636	C.2	1	UNK0	0.000	
13	   N	1.199	-3.225	-1.346	N.2	1	UNK0	0.000	
14	   C	1.127	-5.382	-2.646	C.2	1	UNK0	0.000	
15	   C	1.573	-6.684	-2.678	C.2	1	UNK0	0.000	
16	   C	2.400	-7.173	-1.676	C.2	1	UNK0	0.000	
17	   C	2.746	-6.301	-0.665	C.2	1	UNK0	0.000	
18	   N	1.625	2.215	2.244	N.pl3	1	UNK0	0.000	
19	   C	1.667	2.388	3.672	C.3	1	UNK0	0.000	
20	   C	0.678	3.437	4.063	C.3	1	UNK0	0.000	
21	   N	-0.266	3.760	3.011	N.pl3	1	UNK0	0.000	
22	   C	0.174	4.029	1.648	C.3	1	UNK0	0.000	
23	   C	1.540	3.421	1.429	C.3	1	UNK0	0.000	
24	   C	-1.675	3.830	3.266	C.2	1	UNK0	0.000	
25	   N	-2.153	3.594	4.501	N.2	1	UNK0	0.000	
26	   C	-3.472	3.649	4.783	C.2	1	UNK0	0.000	
27	   C	-4.385	3.955	3.796	C.2	1	UNK0	0.000	
28	   C	-3.888	4.196	2.532	C.2	1	UNK0	0.000	
29	   N	-2.556	4.127	2.307	N.2	1	UNK0	0.000	
30	   H	3.457	1.291	0.517	 H	1	UNK0	0.000	
31	   H	3.047	-3.961	1.088	 H	1	UNK0	0.000	
32	   H	0.492	-5.026	-3.426	 H	1	UNK0	0.000	
33	   H	1.297	-7.377	-3.484	 H	1	UNK0	0.000	
34	   H	2.760	-8.205	-1.691	 H	1	UNK0	0.000	
35	   H	3.387	-6.642	0.132	 H	1	UNK0	0.000	
36	   H	2.702	2.773	3.908	 H	1	UNK0	0.000	
37	   H	1.577	1.442	4.230	 H	1	UNK0	0.000	
38	   H	1.189	4.401	4.348	 H	1	UNK0	0.000	
39	   H	0.089	3.140	4.957	 H	1	UNK0	0.000	
40	   H	0.157	5.111	1.428	 H	1	UNK0	0.000	
41	   H	-0.511	3.552	0.897	 H	1	UNK0	0.000	
42	   H	2.284	4.136	1.837	 H	1	UNK0	0.000	
43	   H	1.741	3.209	0.360	 H	1	UNK0	0.000	
44	   H	-3.858	3.460	5.772	 H	1	UNK0	0.000	
45	   H	-5.445	4.003	4.008	 H	1	UNK0	0.000	
46	   H	-4.575	4.441	1.725	 H	1	UNK0	0.000	
@<TRIPOS>BOND
1 1 2 1
2 2 3 2
3 2 7 1
4 3 4 1
5 3 18 1
6 4 5 2
7 5 6 1
8 6 7 1
9 6 9 1
10 7 8 2
11 9 10 1
12 9 13 2
13 10 11 1
14 11 12 2
15 11 17 1
16 12 13 1
17 12 14 1
18 14 15 2
19 15 16 1
20 16 17 2
21 18 19 1
22 18 23 1
23 19 20 1
24 20 21 1
25 21 22 1
26 21 24 1
27 22 23 1
28 24 25 2
29 24 29 1
30 25 26 1
31 26 27 2
32 27 28 1
33 28 29 2
34 4 30 1
35 10 31 1
36 14 32 1
37 15 33 1
38 16 34 1
39 17 35 1
40 19 36 1
41 19 37 1
42 20 38 1
43 20 39 1
44 22 40 1
45 22 41 1
46 23 42 1
47 23 43 1
48 26 44 1
49 27 45 1
50 28 46 1
@<TRIPOS>SUBSTRUCTURE
1	UNK0	1	GROUP	1 ****	UNK
