# created with PyMOL 2.3.2
@<TRIPOS>MOLECULE
1823
37 40 1                 
SMALL
USER_CHARGES
@<TRIPOS>ATOM
1	  Cl	-0.621	-5.970	5.903	Cl	1	UNK0	0.000	
2	   C	-0.569	-4.896	4.507	C.2	1	UNK0	0.000	
3	   N	-1.061	-3.638	4.581	N.2	1	UNK0	0.000	
4	   N	-1.018	-2.834	3.526	N.pl3	1	UNK0	0.000	
5	   C	-0.489	-3.237	2.360	C.2	1	UNK0	0.000	
6	   N	-0.590	-2.225	1.509	N.2	1	UNK0	0.000	
7	   C	-1.174	-1.161	2.084	C.2	1	UNK0	0.000	
8	   C	-1.444	-1.561	3.375	C.2	1	UNK0	0.000	
9	   C	-1.476	0.148	1.513	C.2	1	UNK0	0.000	
10	   O	-2.026	0.994	2.231	O.2	1	UNK0	0.000	
11	   N	-1.166	0.499	0.154	N.pl3	1	UNK0	0.000	
12	   C	-1.515	1.819	-0.289	C.3	1	UNK0	0.000	
13	   C	-1.238	1.988	-1.764	C.3	1	UNK0	0.000	
14	   C	0.154	1.379	-1.969	C.3	1	UNK0	0.000	
15	   O	0.793	1.867	-3.066	O.3	1	UNK0	0.000	
16	   C	2.054	2.317	-2.669	C.3	1	UNK0	0.000	
17	   C	2.253	1.476	-1.423	C.3	1	UNK0	0.000	
18	   O	0.968	1.618	-0.852	O.3	1	UNK0	0.000	
19	   C	-0.102	-0.108	-2.003	C.3	1	UNK0	0.000	
20	   C	-0.532	-0.521	-0.623	C.3	1	UNK0	0.000	
21	   C	0.025	-4.511	2.237	C.2	1	UNK0	0.000	
22	   C	-0.016	-5.348	3.323	C.2	1	UNK0	0.000	
23	   H	-1.918	-0.962	4.147	 H	1	UNK0	0.000	
24	   H	-2.546	2.114	-0.018	 H	1	UNK0	0.000	
25	   H	-0.805	2.524	0.236	 H	1	UNK0	0.000	
26	   H	-1.996	1.369	-2.299	 H	1	UNK0	0.000	
27	   H	-1.289	3.017	-2.104	 H	1	UNK0	0.000	
28	   H	2.835	2.118	-3.425	 H	1	UNK0	0.000	
29	   H	2.031	3.388	-2.345	 H	1	UNK0	0.000	
30	   H	3.042	1.861	-0.764	 H	1	UNK0	0.000	
31	   H	2.368	0.408	-1.668	 H	1	UNK0	0.000	
32	   H	0.780	-0.674	-2.364	 H	1	UNK0	0.000	
33	   H	-0.972	-0.279	-2.692	 H	1	UNK0	0.000	
34	   H	0.422	-0.793	-0.083	 H	1	UNK0	0.000	
35	   H	-1.173	-1.421	-0.644	 H	1	UNK0	0.000	
36	   H	0.462	-4.890	1.329	 H	1	UNK0	0.000	
37	   H	0.375	-6.373	3.299	 H	1	UNK0	0.000	
@<TRIPOS>BOND
1 1 2 1
2 2 3 2
3 2 22 1
4 3 4 1
5 4 5 1
6 4 8 1
7 5 6 2
8 5 21 1
9 6 7 1
10 7 8 2
11 7 9 1
12 9 10 2
13 9 11 1
14 11 12 1
15 11 20 1
16 12 13 1
17 13 14 1
18 14 15 1
19 14 18 1
20 14 19 1
21 15 16 1
22 16 17 1
23 17 18 1
24 19 20 1
25 21 22 2
26 8 23 1
27 12 24 1
28 12 25 1
29 13 26 1
30 13 27 1
31 16 28 1
32 16 29 1
33 17 30 1
34 17 31 1
35 19 32 1
36 19 33 1
37 20 34 1
38 20 35 1
39 21 36 1
40 22 37 1
@<TRIPOS>SUBSTRUCTURE
1	UNK0	1	GROUP	1 ****	UNK
