# created with PyMOL 2.3.2
@<TRIPOS>MOLECULE
1824
47 50 1                 
SMALL
USER_CHARGES
@<TRIPOS>ATOM
1	  Cl	4.603	2.348	-5.874	Cl	1	UNK0	0.000	
2	   C	4.456	1.116	-4.626	C.2	1	UNK0	0.000	
3	   C	3.196	0.817	-4.175	C.2	1	UNK0	0.000	
4	   C	3.066	-0.162	-3.181	C.2	1	UNK0	0.000	
5	   C	4.193	-0.782	-2.696	C.2	1	UNK0	0.000	
6	   C	5.442	-0.459	-3.169	C.2	1	UNK0	0.000	
7	   C	5.602	0.503	-4.150	C.2	1	UNK0	0.000	
8	   N	1.760	-0.483	-2.737	N.pl3	1	UNK0	0.000	
9	   C	1.378	-1.393	-1.740	C.2	1	UNK0	0.000	
10	   O	2.214	-2.050	-1.096	O.2	1	UNK0	0.000	
11	   C	-0.042	-1.607	-1.424	C.3	1	UNK0	0.000	
12	   N	-0.401	-1.160	-0.067	N.pl3	1	UNK0	0.000	
13	   C	-0.348	-1.968	1.006	C.2	1	UNK0	0.000	
14	   N	-0.754	-1.252	2.059	N.pl3	1	UNK0	0.000	
15	   C	-1.063	0.005	1.679	C.2	1	UNK0	0.000	
16	   C	-0.831	0.047	0.309	C.2	1	UNK0	0.000	
17	   C	-1.548	1.108	2.500	C.2	1	UNK0	0.000	
18	   C	-1.724	1.074	3.851	C.2	1	UNK0	0.000	
19	   C	-2.224	2.182	4.557	C.2	1	UNK0	0.000	
20	   C	-2.559	3.347	3.928	C.2	1	UNK0	0.000	
21	   C	-2.385	3.397	2.567	C.2	1	UNK0	0.000	
22	   C	-1.895	2.316	1.865	C.2	1	UNK0	0.000	
23	  Cl	-3.194	4.742	4.807	Cl	1	UNK0	0.000	
24	   C	-0.760	-2.059	3.276	C.3	1	UNK0	0.000	
25	   C	-0.649	-3.471	2.773	C.3	1	UNK0	0.000	
26	   C	0.021	-3.372	1.433	C.3	1	UNK0	0.000	
27	   C	1.987	1.524	-4.725	C.3	1	UNK0	0.000	
28	   H	4.136	-1.554	-1.914	 H	1	UNK0	0.000	
29	   H	6.330	-0.970	-2.767	 H	1	UNK0	0.000	
30	   H	6.593	0.755	-4.523	 H	1	UNK0	0.000	
31	   H	0.964	0.046	-3.244	 H	1	UNK0	0.000	
32	   H	-0.259	-2.695	-1.508	 H	1	UNK0	0.000	
33	   H	-0.741	-1.085	-2.141	 H	1	UNK0	0.000	
34	   H	-0.977	0.900	-0.311	 H	1	UNK0	0.000	
35	   H	-1.456	0.178	4.384	 H	1	UNK0	0.000	
36	   H	-2.347	2.126	5.627	 H	1	UNK0	0.000	
37	   H	-2.651	4.333	2.082	 H	1	UNK0	0.000	
38	   H	-1.763	2.363	0.806	 H	1	UNK0	0.000	
39	   H	-1.770	-1.967	3.787	 H	1	UNK0	0.000	
40	   H	0.020	-1.754	3.984	 H	1	UNK0	0.000	
41	   H	-0.149	-4.107	3.506	 H	1	UNK0	0.000	
42	   H	-1.707	-3.864	2.651	 H	1	UNK0	0.000	
43	   H	-0.423	-4.119	0.760	 H	1	UNK0	0.000	
44	   H	1.129	-3.424	1.497	 H	1	UNK0	0.000	
45	   H	1.226	0.830	-5.087	 H	1	UNK0	0.000	
46	   H	1.571	2.228	-3.961	 H	1	UNK0	0.000	
47	   H	2.354	2.180	-5.541	 H	1	UNK0	0.000	
@<TRIPOS>BOND
1 1 2 1
2 2 3 2
3 2 7 1
4 3 4 1
5 3 27 1
6 4 5 2
7 4 8 1
8 5 6 1
9 6 7 2
10 8 9 1
11 9 10 2
12 9 11 1
13 11 12 1
14 12 13 2
15 12 16 1
16 13 14 1
17 13 26 1
18 14 15 1
19 14 24 1
20 15 16 2
21 15 17 1
22 17 18 2
23 17 22 1
24 18 19 1
25 19 20 2
26 20 21 1
27 20 23 1
28 21 22 2
29 24 25 1
30 25 26 1
31 5 28 1
32 6 29 1
33 7 30 1
34 8 31 1
35 11 32 1
36 11 33 1
37 16 34 1
38 18 35 1
39 19 36 1
40 21 37 1
41 22 38 1
42 24 39 1
43 24 40 1
44 25 41 1
45 25 42 1
46 26 43 1
47 26 44 1
48 27 45 1
49 27 46 1
50 27 47 1
@<TRIPOS>SUBSTRUCTURE
1	UNK0	1	GROUP	1 ****	UNK
