# created with PyMOL 2.3.2
@<TRIPOS>MOLECULE
1826
39 42 1                 
SMALL
USER_CHARGES
@<TRIPOS>ATOM
1	   F	1.025	0.706	1.012	 F	1	UNK0	0.000	
2	   C	0.793	1.123	2.302	C.2	1	UNK0	0.000	
3	   C	0.189	0.262	3.194	C.2	1	UNK0	0.000	
4	   C	-0.079	0.608	4.522	C.2	1	UNK0	0.000	
5	   C	0.295	1.875	4.913	C.2	1	UNK0	0.000	
6	   C	0.897	2.748	4.047	C.2	1	UNK0	0.000	
7	   C	1.157	2.385	2.721	C.2	1	UNK0	0.000	
8	  Cl	-0.846	-0.547	5.571	Cl	1	UNK0	0.000	
9	   C	-0.210	-1.114	2.748	C.3	1	UNK0	0.000	
10	   C	-1.426	-1.078	1.919	C.2	1	UNK0	0.000	
11	   O	-2.496	-0.577	2.454	O.2	1	UNK0	0.000	
12	   N	-1.569	-1.528	0.593	N.pl3	1	UNK0	0.000	
13	   C	-2.889	-1.407	-0.041	C.3	1	UNK0	0.000	
14	   C	-2.816	-0.732	-1.360	C.3	1	UNK0	0.000	
15	   C	-1.547	-0.885	-2.072	C.2	1	UNK0	0.000	
16	   C	-0.463	-1.505	-1.549	C.2	1	UNK0	0.000	
17	   C	-0.477	-2.086	-0.168	C.3	1	UNK0	0.000	
18	   C	0.725	-1.623	-2.267	C.2	1	UNK0	0.000	
19	   O	1.718	-2.192	-1.786	O.2	1	UNK0	0.000	
20	   N	0.802	-1.109	-3.512	N.pl3	1	UNK0	0.000	
21	   N	1.779	-1.064	-4.422	N.pl3	1	UNK0	0.000	
22	   C	1.361	-0.431	-5.526	C.2	1	UNK0	0.000	
23	   C	0.062	-0.053	-5.318	C.2	1	UNK0	0.000	
24	   C	-0.268	-0.492	-4.040	C.2	1	UNK0	0.000	
25	   N	-1.417	-0.383	-3.336	N.2	1	UNK0	0.000	
26	   H	0.080	2.131	5.953	 H	1	UNK0	0.000	
27	   H	1.188	3.738	4.356	 H	1	UNK0	0.000	
28	   H	1.630	3.075	2.042	 H	1	UNK0	0.000	
29	   H	-0.448	-1.749	3.634	 H	1	UNK0	0.000	
30	   H	0.625	-1.573	2.214	 H	1	UNK0	0.000	
31	   H	-3.320	-2.436	-0.093	 H	1	UNK0	0.000	
32	   H	-3.565	-0.822	0.612	 H	1	UNK0	0.000	
33	   H	-3.677	-1.039	-2.007	 H	1	UNK0	0.000	
34	   H	-2.992	0.381	-1.212	 H	1	UNK0	0.000	
35	   H	-0.621	-3.175	-0.273	 H	1	UNK0	0.000	
36	   H	0.474	-1.891	0.330	 H	1	UNK0	0.000	
37	   H	2.713	-1.466	-4.272	 H	1	UNK0	0.000	
38	   H	1.928	-0.233	-6.445	 H	1	UNK0	0.000	
39	   H	-0.633	0.480	-5.964	 H	1	UNK0	0.000	
@<TRIPOS>BOND
1 1 2 1
2 2 3 2
3 2 7 1
4 3 4 1
5 3 9 1
6 4 5 2
7 4 8 1
8 5 6 1
9 6 7 2
10 9 10 1
11 10 11 2
12 10 12 1
13 12 13 1
14 12 17 1
15 13 14 1
16 14 15 1
17 15 16 2
18 15 25 1
19 16 17 1
20 16 18 1
21 18 19 2
22 18 20 1
23 20 21 1
24 20 24 1
25 21 22 1
26 22 23 2
27 23 24 1
28 24 25 2
29 5 26 1
30 6 27 1
31 7 28 1
32 9 29 1
33 9 30 1
34 13 31 1
35 13 32 1
36 14 33 1
37 14 34 1
38 17 35 1
39 17 36 1
40 21 37 1
41 22 38 1
42 23 39 1
@<TRIPOS>SUBSTRUCTURE
1	UNK0	1	GROUP	1 ****	UNK
