# created with PyMOL 2.3.2
@<TRIPOS>MOLECULE
1832
56 60 1                 
SMALL
USER_CHARGES
@<TRIPOS>ATOM
1	   S	-0.212	-2.494	2.690	S.O2	1	UNK0	0.000	
2	   O	-0.928	-3.307	3.733	O.2	1	UNK0	0.000	
3	   O	0.960	-3.340	2.236	O.2	1	UNK0	0.000	
4	   N	0.397	-1.056	3.320	N.3	1	UNK0	0.000	
5	   C	0.068	-0.718	4.650	C.3	1	UNK0	0.000	
6	   C	0.281	0.776	4.858	C.3	1	UNK0	0.000	
7	   C	1.585	1.188	4.210	C.3	1	UNK0	0.000	
8	   O	1.885	2.509	4.468	O.3	1	UNK0	0.000	
9	   C	3.267	2.601	4.538	C.3	1	UNK0	0.000	
10	   C	3.761	1.164	4.634	C.3	1	UNK0	0.000	
11	   O	2.590	0.440	4.867	O.3	1	UNK0	0.000	
12	   C	1.601	0.901	2.725	C.3	1	UNK0	0.000	
13	   C	0.338	0.070	2.453	C.3	1	UNK0	0.000	
14	   C	-1.305	-2.267	1.344	C.2	1	UNK0	0.000	
15	   C	-0.973	-2.780	0.080	C.2	1	UNK0	0.000	
16	   C	-1.779	-2.630	-1.025	C.2	1	UNK0	0.000	
17	   C	-2.980	-1.955	-0.950	C.2	1	UNK0	0.000	
18	   C	-3.320	-1.444	0.287	C.2	1	UNK0	0.000	
19	   C	-2.499	-1.596	1.415	C.2	1	UNK0	0.000	
20	  Cl	-3.024	-0.928	2.930	Cl	1	UNK0	0.000	
21	   N	-3.826	-1.780	-2.081	N.pl3	1	UNK0	0.000	
22	   C	-3.375	-2.342	-3.332	C.2	1	UNK0	0.000	
23	   O	-4.146	-2.433	-4.320	O.2	1	UNK0	0.000	
24	   C	-1.989	-2.822	-3.474	C.3	1	UNK0	0.000	
25	   O	-1.400	-3.158	-2.245	O.3	1	UNK0	0.000	
26	   C	-5.091	-1.074	-2.026	C.3	1	UNK0	0.000	
27	   C	-4.942	0.372	-2.218	C.2	1	UNK0	0.000	
28	   N	-5.951	1.256	-2.204	N.2	1	UNK0	0.000	
29	   O	-5.462	2.447	-2.406	O.3	1	UNK0	0.000	
30	   C	-4.165	2.382	-2.554	C.2	1	UNK0	0.000	
31	   N	-3.827	1.086	-2.439	N.2	1	UNK0	0.000	
32	   C	-3.309	3.570	-2.801	C.3	1	UNK0	0.000	
33	   C	-1.865	3.220	-2.937	C.3	1	UNK0	0.000	
34	   H	-0.939	-1.034	4.970	 H	1	UNK0	0.000	
35	   H	0.846	-1.196	5.338	 H	1	UNK0	0.000	
36	   H	0.399	1.001	5.951	 H	1	UNK0	0.000	
37	   H	-0.574	1.389	4.530	 H	1	UNK0	0.000	
38	   H	3.515	3.184	5.454	 H	1	UNK0	0.000	
39	   H	3.696	3.118	3.674	 H	1	UNK0	0.000	
40	   H	4.244	0.840	3.698	 H	1	UNK0	0.000	
41	   H	4.480	1.116	5.453	 H	1	UNK0	0.000	
42	   H	1.608	1.818	2.109	 H	1	UNK0	0.000	
43	   H	2.451	0.220	2.512	 H	1	UNK0	0.000	
44	   H	0.285	-0.201	1.376	 H	1	UNK0	0.000	
45	   H	-0.546	0.709	2.646	 H	1	UNK0	0.000	
46	   H	-0.016	-3.317	0.026	 H	1	UNK0	0.000	
47	   H	-4.254	-0.906	0.367	 H	1	UNK0	0.000	
48	   H	-2.009	-3.696	-4.165	 H	1	UNK0	0.000	
49	   H	-1.358	-2.059	-3.971	 H	1	UNK0	0.000	
50	   H	-5.802	-1.522	-2.773	 H	1	UNK0	0.000	
51	   H	-5.548	-1.263	-1.042	 H	1	UNK0	0.000	
52	   H	-3.683	4.148	-3.676	 H	1	UNK0	0.000	
53	   H	-3.411	4.265	-1.928	 H	1	UNK0	0.000	
54	   H	-1.745	2.132	-2.792	 H	1	UNK0	0.000	
55	   H	-1.554	3.440	-3.997	 H	1	UNK0	0.000	
56	   H	-1.188	3.818	-2.308	 H	1	UNK0	0.000	
@<TRIPOS>BOND
1 1 2 2
2 1 3 2
3 1 4 1
4 1 14 1
5 4 5 1
6 4 13 1
7 5 6 1
8 6 7 1
9 7 8 1
10 7 11 1
11 7 12 1
12 8 9 1
13 9 10 1
14 10 11 1
15 12 13 1
16 14 15 2
17 14 19 1
18 15 16 1
19 16 17 2
20 16 25 1
21 17 18 1
22 17 21 1
23 18 19 2
24 19 20 1
25 21 22 1
26 21 26 1
27 22 23 2
28 22 24 1
29 24 25 1
30 26 27 1
31 27 28 2
32 27 31 1
33 28 29 1
34 29 30 1
35 30 31 2
36 30 32 1
37 32 33 1
38 5 34 1
39 5 35 1
40 6 36 1
41 6 37 1
42 9 38 1
43 9 39 1
44 10 40 1
45 10 41 1
46 12 42 1
47 12 43 1
48 13 44 1
49 13 45 1
50 15 46 1
51 18 47 1
52 24 48 1
53 24 49 1
54 26 50 1
55 26 51 1
56 32 52 1
57 32 53 1
58 33 54 1
59 33 55 1
60 33 56 1
@<TRIPOS>SUBSTRUCTURE
1	UNK0	1	GROUP	1 ****	UNK
