# created with PyMOL 2.3.2
@<TRIPOS>MOLECULE
1833
57 60 1                 
SMALL
USER_CHARGES
@<TRIPOS>ATOM
1	   S	-2.971	-2.651	-3.236	S.O2	1	UNK0	0.000	
2	   O	-4.478	-2.616	-3.241	O.2	1	UNK0	0.000	
3	   O	-2.582	-3.645	-4.322	O.2	1	UNK0	0.000	
4	   N	-2.380	-1.136	-3.672	N.3	1	UNK0	0.000	
5	   C	-0.970	-1.020	-3.779	C.3	1	UNK0	0.000	
6	   C	-0.446	0.226	-3.047	C.3	1	UNK0	0.000	
7	   N	-1.151	0.279	-1.818	N.3	1	UNK0	0.000	
8	   C	-2.535	0.560	-1.888	C.3	1	UNK0	0.000	
9	   C	-3.074	-0.010	-3.182	C.3	1	UNK0	0.000	
10	   C	-0.450	0.738	-0.688	C.3	1	UNK0	0.000	
11	   C	0.709	-0.160	-0.439	C.2	1	UNK0	0.000	
12	   N	1.117	-1.259	-1.069	N.2	1	UNK0	0.000	
13	   O	2.190	-1.707	-0.488	O.3	1	UNK0	0.000	
14	   C	2.528	-0.948	0.522	C.2	1	UNK0	0.000	
15	   N	1.607	0.024	0.562	N.2	1	UNK0	0.000	
16	   C	3.682	-1.106	1.446	C.3	1	UNK0	0.000	
17	   C	3.691	-0.012	2.476	C.3	1	UNK0	0.000	
18	   C	2.463	-0.032	3.290	C.2	1	UNK0	0.000	
19	   O	1.628	-0.970	3.034	O.2	1	UNK0	0.000	
20	   N	2.197	0.920	4.305	N.pl3	1	UNK0	0.000	
21	   C	3.034	2.021	4.701	C.3	1	UNK0	0.000	
22	   C	2.016	3.161	4.765	C.3	1	UNK0	0.000	
23	   C	0.802	2.458	5.330	C.3	1	UNK0	0.000	
24	   C	1.030	0.975	5.145	C.3	1	UNK0	0.000	
25	   C	-2.458	-3.214	-1.687	C.2	1	UNK0	0.000	
26	   C	-1.302	-3.956	-1.563	C.2	1	UNK0	0.000	
27	   C	-0.846	-4.432	-0.343	C.2	1	UNK0	0.000	
28	   C	-1.567	-4.159	0.790	C.2	1	UNK0	0.000	
29	   C	-2.727	-3.414	0.662	C.2	1	UNK0	0.000	
30	   C	-3.184	-2.939	-0.550	C.2	1	UNK0	0.000	
31	  Br	-1.031	-4.765	2.523	Br	1	UNK0	0.000	
32	   H	-0.596	-0.955	-4.823	 H	1	UNK0	0.000	
33	   H	-0.461	-1.879	-3.296	 H	1	UNK0	0.000	
34	   H	0.631	0.192	-2.886	 H	1	UNK0	0.000	
35	   H	-0.654	1.107	-3.716	 H	1	UNK0	0.000	
36	   H	-2.715	1.671	-1.864	 H	1	UNK0	0.000	
37	   H	-3.059	0.082	-1.039	 H	1	UNK0	0.000	
38	   H	-3.029	0.806	-3.958	 H	1	UNK0	0.000	
39	   H	-4.144	-0.257	-3.078	 H	1	UNK0	0.000	
40	   H	-1.132	0.717	0.189	 H	1	UNK0	0.000	
41	   H	-0.074	1.781	-0.765	 H	1	UNK0	0.000	
42	   H	4.598	-1.160	0.857	 H	1	UNK0	0.000	
43	   H	3.556	-2.102	1.954	 H	1	UNK0	0.000	
44	   H	4.545	-0.221	3.184	 H	1	UNK0	0.000	
45	   H	3.914	0.970	2.039	 H	1	UNK0	0.000	
46	   H	3.840	2.243	3.983	 H	1	UNK0	0.000	
47	   H	3.436	1.880	5.738	 H	1	UNK0	0.000	
48	   H	2.364	4.000	5.374	 H	1	UNK0	0.000	
49	   H	1.832	3.452	3.700	 H	1	UNK0	0.000	
50	   H	0.629	2.740	6.386	 H	1	UNK0	0.000	
51	   H	-0.064	2.725	4.680	 H	1	UNK0	0.000	
52	   H	1.245	0.471	6.121	 H	1	UNK0	0.000	
53	   H	0.151	0.463	4.686	 H	1	UNK0	0.000	
54	   H	-0.680	-4.209	-2.428	 H	1	UNK0	0.000	
55	   H	0.058	-5.010	-0.249	 H	1	UNK0	0.000	
56	   H	-3.312	-3.191	1.564	 H	1	UNK0	0.000	
57	   H	-4.114	-2.354	-0.581	 H	1	UNK0	0.000	
@<TRIPOS>BOND
1 1 2 2
2 1 3 2
3 1 4 1
4 1 25 1
5 4 5 1
6 4 9 1
7 5 6 1
8 6 7 1
9 7 8 1
10 7 10 1
11 8 9 1
12 10 11 1
13 11 12 2
14 11 15 1
15 12 13 1
16 13 14 1
17 14 15 2
18 14 16 1
19 16 17 1
20 17 18 1
21 18 19 2
22 18 20 1
23 20 21 1
24 20 24 1
25 21 22 1
26 22 23 1
27 23 24 1
28 25 26 2
29 25 30 1
30 26 27 1
31 27 28 2
32 28 29 1
33 28 31 1
34 29 30 2
35 5 32 1
36 5 33 1
37 6 34 1
38 6 35 1
39 8 36 1
40 8 37 1
41 9 38 1
42 9 39 1
43 10 40 1
44 10 41 1
45 16 42 1
46 16 43 1
47 17 44 1
48 17 45 1
49 21 46 1
50 21 47 1
51 22 48 1
52 22 49 1
53 23 50 1
54 23 51 1
55 24 52 1
56 24 53 1
57 26 54 1
58 27 55 1
59 29 56 1
60 30 57 1
@<TRIPOS>SUBSTRUCTURE
1	UNK0	1	GROUP	1 ****	UNK
