# created with PyMOL 2.3.2
@<TRIPOS>MOLECULE
1834
42 45 1                 
SMALL
USER_CHARGES
@<TRIPOS>ATOM
1	  Cl	-4.266	-4.346	-5.233	Cl	1	UNK0	0.000	
2	   C	-3.561	-4.029	-3.658	C.2	1	UNK0	0.000	
3	   C	-2.993	-5.046	-2.938	C.2	1	UNK0	0.000	
4	   C	-2.439	-4.756	-1.693	C.2	1	UNK0	0.000	
5	   C	-2.418	-3.522	-1.130	C.2	1	UNK0	0.000	
6	   C	-3.009	-2.496	-1.890	C.2	1	UNK0	0.000	
7	   C	-3.563	-2.763	-3.124	C.2	1	UNK0	0.000	
8	   N	-1.847	-3.174	0.117	N.pl3	1	UNK0	0.000	
9	   C	-1.273	-4.039	1.028	C.2	1	UNK0	0.000	
10	   O	-1.206	-5.307	0.864	O.2	1	UNK0	0.000	
11	   C	-0.664	-3.513	2.322	C.3	1	UNK0	0.000	
12	   N	0.108	-2.303	1.991	N.pl3	1	UNK0	0.000	
13	   N	1.384	-2.352	1.568	N.2	1	UNK0	0.000	
14	   N	1.805	-1.122	1.363	N.2	1	UNK0	0.000	
15	   C	0.813	-0.251	1.654	C.2	1	UNK0	0.000	
16	   N	-0.218	-1.036	2.036	N.2	1	UNK0	0.000	
17	   C	0.911	1.191	1.504	C.2	1	UNK0	0.000	
18	   C	1.907	1.807	0.750	C.2	1	UNK0	0.000	
19	   C	1.960	3.187	0.583	C.2	1	UNK0	0.000	
20	   C	1.033	4.018	1.153	C.2	1	UNK0	0.000	
21	   C	0.037	3.422	1.908	C.2	1	UNK0	0.000	
22	   C	-0.016	2.047	2.074	C.2	1	UNK0	0.000	
23	   C	1.097	5.494	0.946	C.3	1	UNK0	0.000	
24	   N	2.880	0.977	0.131	N.pl3	1	UNK0	0.000	
25	   N	2.797	0.086	-0.827	N.2	1	UNK0	0.000	
26	   N	3.961	-0.431	-1.101	N.2	1	UNK0	0.000	
27	   N	4.859	0.145	-0.286	N.2	1	UNK0	0.000	
28	   C	4.180	1.015	0.473	C.2	1	UNK0	0.000	
29	   H	-2.994	-6.047	-3.356	 H	1	UNK0	0.000	
30	   H	-2.005	-5.591	-1.173	 H	1	UNK0	0.000	
31	   H	-3.040	-1.478	-1.521	 H	1	UNK0	0.000	
32	   H	-4.013	-1.975	-3.705	 H	1	UNK0	0.000	
33	   H	-1.861	-2.137	0.389	 H	1	UNK0	0.000	
34	   H	-1.502	-3.191	2.982	 H	1	UNK0	0.000	
35	   H	-0.071	-4.285	2.804	 H	1	UNK0	0.000	
36	   H	2.775	3.604	-0.036	 H	1	UNK0	0.000	
37	   H	-0.697	4.069	2.367	 H	1	UNK0	0.000	
38	   H	-0.798	1.569	2.678	 H	1	UNK0	0.000	
39	   H	0.405	5.845	0.149	 H	1	UNK0	0.000	
40	   H	2.118	5.842	0.639	 H	1	UNK0	0.000	
41	   H	0.804	6.066	1.853	 H	1	UNK0	0.000	
42	   H	4.628	1.652	1.247	 H	1	UNK0	0.000	
@<TRIPOS>BOND
1 1 2 1
2 2 3 2
3 2 7 1
4 3 4 1
5 4 5 2
6 5 6 1
7 5 8 1
8 6 7 2
9 8 9 1
10 9 10 2
11 9 11 1
12 11 12 1
13 12 13 1
14 12 16 1
15 13 14 2
16 14 15 1
17 15 16 2
18 15 17 1
19 17 18 1
20 17 22 2
21 18 19 2
22 18 24 1
23 19 20 1
24 20 21 2
25 20 23 1
26 21 22 1
27 24 25 1
28 24 28 1
29 25 26 2
30 26 27 1
31 27 28 2
32 3 29 1
33 4 30 1
34 6 31 1
35 7 32 1
36 8 33 1
37 11 34 1
38 11 35 1
39 19 36 1
40 21 37 1
41 22 38 1
42 23 39 1
43 23 40 1
44 23 41 1
45 28 42 1
@<TRIPOS>SUBSTRUCTURE
1	UNK0	1	GROUP	1 ****	UNK
