# created with PyMOL 2.3.2
@<TRIPOS>MOLECULE
1835
47 50 1                 
SMALL
USER_CHARGES
@<TRIPOS>ATOM
1	  Cl	3.016	-0.509	2.324	Cl	1	UNK0	0.000	
2	   C	2.217	0.521	3.489	C.2	1	UNK0	0.000	
3	   C	1.169	1.303	3.054	C.2	1	UNK0	0.000	
4	   C	0.542	2.113	3.976	C.2	1	UNK0	0.000	
5	   C	0.944	2.151	5.304	C.2	1	UNK0	0.000	
6	   C	1.992	1.371	5.748	C.2	1	UNK0	0.000	
7	   C	2.619	0.561	4.826	C.2	1	UNK0	0.000	
8	  Cl	-0.797	3.114	3.426	Cl	1	UNK0	0.000	
9	   C	0.729	1.279	1.656	C.2	1	UNK0	0.000	
10	   N	-0.244	1.999	1.233	N.2	1	UNK0	0.000	
11	   N	-0.600	1.916	-0.115	N.pl3	1	UNK0	0.000	
12	   C	0.296	1.438	-1.108	C.2	1	UNK0	0.000	
13	   N	0.422	0.159	-1.495	N.pl3	1	UNK0	0.000	
14	   C	1.372	0.151	-2.446	C.2	1	UNK0	0.000	
15	   N	1.919	-0.837	-3.195	N.2	1	UNK0	0.000	
16	   C	2.881	-0.589	-4.105	C.2	1	UNK0	0.000	
17	   N	3.327	0.672	-4.292	N.2	1	UNK0	0.000	
18	   C	2.833	1.707	-3.587	C.2	1	UNK0	0.000	
19	   C	1.848	1.427	-2.660	C.2	1	UNK0	0.000	
20	   N	1.155	2.217	-1.807	N.2	1	UNK0	0.000	
21	   N	3.320	3.016	-3.806	N.pl3	1	UNK0	0.000	
22	   C	-0.267	-1.016	-1.047	C.3	1	UNK0	0.000	
23	   O	-1.397	-0.720	-0.289	O.3	1	UNK0	0.000	
24	   C	-2.046	-1.954	-0.270	C.3	1	UNK0	0.000	
25	   C	-2.145	-2.250	-1.759	C.3	1	UNK0	0.000	
26	   C	-0.760	-1.845	-2.220	C.3	1	UNK0	0.000	
27	   O	-0.017	-3.019	-2.362	O.3	1	UNK0	0.000	
28	   O	-2.401	-3.592	-2.003	O.3	1	UNK0	0.000	
29	   C	-3.402	-1.887	0.379	C.3	1	UNK0	0.000	
30	   O	-4.261	-1.023	-0.254	O.3	1	UNK0	0.000	
31	   H	0.457	2.784	6.033	 H	1	UNK0	0.000	
32	   H	2.340	1.367	6.772	 H	1	UNK0	0.000	
33	   H	3.453	-0.066	5.154	 H	1	UNK0	0.000	
34	   H	1.233	0.638	0.951	 H	1	UNK0	0.000	
35	   H	-1.569	2.228	-0.363	 H	1	UNK0	0.000	
36	   H	3.323	-1.372	-4.706	 H	1	UNK0	0.000	
37	   H	4.310	3.266	-3.639	 H	1	UNK0	0.000	
38	   H	2.667	3.746	-4.142	 H	1	UNK0	0.000	
39	   H	0.369	-1.679	-0.419	 H	1	UNK0	0.000	
40	   H	-1.378	-2.686	0.178	 H	1	UNK0	0.000	
41	   H	-2.921	-1.583	-2.223	 H	1	UNK0	0.000	
42	   H	-0.782	-1.256	-3.158	 H	1	UNK0	0.000	
43	   H	0.560	-3.186	-1.590	 H	1	UNK0	0.000	
44	   H	-2.296	-4.076	-1.140	 H	1	UNK0	0.000	
45	   H	-3.242	-1.551	1.426	 H	1	UNK0	0.000	
46	   H	-3.778	-2.929	0.450	 H	1	UNK0	0.000	
47	   H	-3.785	-0.377	-0.820	 H	1	UNK0	0.000	
@<TRIPOS>BOND
1 1 2 1
2 2 3 2
3 2 7 1
4 3 4 1
5 3 9 1
6 4 5 2
7 4 8 1
8 5 6 1
9 6 7 2
10 9 10 2
11 10 11 1
12 11 12 1
13 12 13 1
14 12 20 2
15 13 14 1
16 13 22 1
17 14 15 2
18 14 19 1
19 15 16 1
20 16 17 2
21 17 18 1
22 18 19 2
23 18 21 1
24 19 20 1
25 22 23 1
26 22 26 1
27 23 24 1
28 24 25 1
29 24 29 1
30 25 26 1
31 25 28 1
32 26 27 1
33 29 30 1
34 5 31 1
35 6 32 1
36 7 33 1
37 9 34 1
38 11 35 1
39 16 36 1
40 21 37 1
41 21 38 1
42 22 39 1
43 24 40 1
44 25 41 1
45 26 42 1
46 27 43 1
47 28 44 1
48 29 45 1
49 29 46 1
50 30 47 1
@<TRIPOS>SUBSTRUCTURE
1	UNK0	1	GROUP	1 ****	UNK
