# created with PyMOL 2.3.2
@<TRIPOS>MOLECULE
1836
39 42 1                 
SMALL
USER_CHARGES
@<TRIPOS>ATOM
1	  Cl	-4.170	4.853	3.107	Cl	1	UNK0	0.000	
2	   C	-3.549	3.569	2.066	C.2	1	UNK0	0.000	
3	   C	-2.964	2.442	2.598	C.2	1	UNK0	0.000	
4	   C	-2.468	1.418	1.784	C.2	1	UNK0	0.000	
5	   C	-2.546	1.496	0.414	C.2	1	UNK0	0.000	
6	   C	-3.145	2.650	-0.106	C.2	1	UNK0	0.000	
7	   C	-3.634	3.660	0.693	C.2	1	UNK0	0.000	
8	   C	-2.030	0.434	-0.481	C.3	1	UNK0	0.000	
9	   N	-1.331	1.128	-1.576	N.pl3	1	UNK0	0.000	
10	   C	-0.127	1.606	-0.979	C.2	1	UNK0	0.000	
11	   O	0.559	2.544	-1.467	O.2	1	UNK0	0.000	
12	   C	0.156	0.836	0.259	C.3	1	UNK0	0.000	
13	   C	-0.857	-0.307	0.121	C.3	1	UNK0	0.000	
14	   N	-0.312	-1.218	-0.837	N.pl3	1	UNK0	0.000	
15	   C	0.801	-2.027	-0.495	C.2	1	UNK0	0.000	
16	   N	1.391	-1.987	0.709	N.2	1	UNK0	0.000	
17	   C	2.454	-2.775	1.003	C.2	1	UNK0	0.000	
18	   C	2.950	-3.638	0.056	C.2	1	UNK0	0.000	
19	   N	2.382	-3.703	-1.163	N.pl3	1	UNK0	0.000	
20	   C	1.333	-2.912	-1.424	C.2	1	UNK0	0.000	
21	   N	0.953	-3.166	-2.699	N.2	1	UNK0	0.000	
22	   N	1.760	-4.095	-3.202	N.2	1	UNK0	0.000	
23	   C	2.656	-4.447	-2.273	C.2	1	UNK0	0.000	
24	   C	-1.830	1.241	-2.906	C.3	1	UNK0	0.000	
25	   H	-2.898	2.372	3.676	 H	1	UNK0	0.000	
26	   H	-2.021	0.555	2.268	 H	1	UNK0	0.000	
27	   H	-3.214	2.726	-1.190	 H	1	UNK0	0.000	
28	   H	-4.096	4.550	0.286	 H	1	UNK0	0.000	
29	   H	-2.815	-0.227	-0.867	 H	1	UNK0	0.000	
30	   H	1.191	0.443	0.294	 H	1	UNK0	0.000	
31	   H	-0.059	1.376	1.179	 H	1	UNK0	0.000	
32	   H	-1.081	-0.781	1.097	 H	1	UNK0	0.000	
33	   H	-0.735	-1.283	-1.781	 H	1	UNK0	0.000	
34	   H	2.892	-2.704	1.987	 H	1	UNK0	0.000	
35	   H	3.787	-4.253	0.296	 H	1	UNK0	0.000	
36	   H	3.460	-5.161	-2.311	 H	1	UNK0	0.000	
37	   H	-2.929	1.086	-2.918	 H	1	UNK0	0.000	
38	   H	-1.401	0.406	-3.504	 H	1	UNK0	0.000	
39	   H	-1.589	2.218	-3.371	 H	1	UNK0	0.000	
@<TRIPOS>BOND
1 1 2 1
2 2 3 2
3 2 7 1
4 3 4 1
5 4 5 2
6 5 6 1
7 5 8 1
8 6 7 2
9 8 9 1
10 8 13 1
11 9 10 1
12 9 24 1
13 10 11 2
14 10 12 1
15 12 13 1
16 13 14 1
17 14 15 1
18 15 16 2
19 15 20 1
20 16 17 1
21 17 18 2
22 18 19 1
23 19 20 1
24 19 23 1
25 20 21 2
26 21 22 1
27 22 23 2
28 3 25 1
29 4 26 1
30 6 27 1
31 7 28 1
32 8 29 1
33 12 30 1
34 12 31 1
35 13 32 1
36 14 33 1
37 17 34 1
38 18 35 1
39 23 36 1
40 24 37 1
41 24 38 1
42 24 39 1
@<TRIPOS>SUBSTRUCTURE
1	UNK0	1	GROUP	1 ****	UNK
