# created with PyMOL 2.3.2
@<TRIPOS>MOLECULE
1838
49 52 1                 
SMALL
USER_CHARGES
@<TRIPOS>ATOM
1	  Cl	4.537	7.646	3.414	Cl	1	UNK0	0.000	
2	   C	3.173	6.647	2.980	C.2	1	UNK0	0.000	
3	   C	2.159	6.495	3.886	C.2	1	UNK0	0.000	
4	   C	1.065	5.718	3.588	C.2	1	UNK0	0.000	
5	   C	0.924	5.048	2.366	C.2	1	UNK0	0.000	
6	   C	1.958	5.219	1.479	C.2	1	UNK0	0.000	
7	   C	3.075	6.007	1.770	C.2	1	UNK0	0.000	
8	   N	-0.233	4.271	2.143	N.pl3	1	UNK0	0.000	
9	   C	-0.549	3.532	0.991	C.2	1	UNK0	0.000	
10	   O	0.194	3.481	-0.005	O.2	1	UNK0	0.000	
11	   C	-1.824	2.744	0.889	C.3	1	UNK0	0.000	
12	   N	-1.928	2.069	-0.385	N.pl3	1	UNK0	0.000	
13	   N	-2.483	2.578	-1.473	N.pl3	1	UNK0	0.000	
14	   N	-2.412	1.704	-2.454	N.pl3	1	UNK0	0.000	
15	   C	-1.797	0.599	-2.002	C.2	1	UNK0	0.000	
16	   C	-1.508	0.840	-0.733	C.2	1	UNK0	0.000	
17	   C	-0.876	-0.288	-0.257	C.2	1	UNK0	0.000	
18	   O	-0.439	-0.459	0.919	O.2	1	UNK0	0.000	
19	   N	-0.770	-1.220	-1.205	N.pl3	1	UNK0	0.000	
20	   C	-1.337	-0.689	-2.302	C.2	1	UNK0	0.000	
21	   O	-1.451	-1.241	-3.434	O.2	1	UNK0	0.000	
22	   C	-0.179	-2.509	-1.085	C.2	1	UNK0	0.000	
23	   C	1.051	-2.818	-1.626	C.2	1	UNK0	0.000	
24	   C	1.648	-4.052	-1.528	C.2	1	UNK0	0.000	
25	   C	0.984	-5.052	-0.847	C.2	1	UNK0	0.000	
26	   C	-0.253	-4.788	-0.288	C.2	1	UNK0	0.000	
27	   C	-0.830	-3.530	-0.405	C.2	1	UNK0	0.000	
28	   O	1.585	-6.300	-0.747	O.3	1	UNK0	0.000	
29	   C	0.960	-7.370	-0.063	C.3	1	UNK0	0.000	
30	   O	2.894	-4.345	-2.083	O.3	1	UNK0	0.000	
31	   C	3.543	-3.293	-2.773	C.3	1	UNK0	0.000	
32	   H	2.230	7.003	4.855	 H	1	UNK0	0.000	
33	   H	0.296	5.633	4.337	 H	1	UNK0	0.000	
34	   H	1.944	4.745	0.511	 H	1	UNK0	0.000	
35	   H	3.878	6.124	1.049	 H	1	UNK0	0.000	
36	   H	-0.957	4.233	2.934	 H	1	UNK0	0.000	
37	   H	-1.776	2.014	1.739	 H	1	UNK0	0.000	
38	   H	-2.647	3.467	1.055	 H	1	UNK0	0.000	
39	   H	-2.912	3.550	-1.511	 H	1	UNK0	0.000	
40	   H	-2.773	1.855	-3.414	 H	1	UNK0	0.000	
41	   H	1.567	-2.036	-2.157	 H	1	UNK0	0.000	
42	   H	-0.796	-5.552	0.251	 H	1	UNK0	0.000	
43	   H	-1.786	-3.342	0.033	 H	1	UNK0	0.000	
44	   H	0.557	-6.936	0.897	 H	1	UNK0	0.000	
45	   H	1.718	-8.120	0.274	 H	1	UNK0	0.000	
46	   H	0.131	-7.822	-0.613	 H	1	UNK0	0.000	
47	   H	4.524	-3.660	-3.129	 H	1	UNK0	0.000	
48	   H	2.966	-2.995	-3.675	 H	1	UNK0	0.000	
49	   H	3.662	-2.396	-2.147	 H	1	UNK0	0.000	
@<TRIPOS>BOND
1 1 2 1
2 2 3 2
3 2 7 1
4 3 4 1
5 4 5 2
6 5 6 1
7 5 8 1
8 6 7 2
9 8 9 1
10 9 10 2
11 9 11 1
12 11 12 1
13 12 13 1
14 12 16 1
15 13 14 1
16 14 15 1
17 15 16 2
18 15 20 1
19 16 17 1
20 17 18 2
21 17 19 1
22 19 20 1
23 19 22 1
24 20 21 2
25 22 23 2
26 22 27 1
27 23 24 1
28 24 25 2
29 24 30 1
30 25 26 1
31 25 28 1
32 26 27 2
33 28 29 1
34 30 31 1
35 3 32 1
36 4 33 1
37 6 34 1
38 7 35 1
39 8 36 1
40 11 37 1
41 11 38 1
42 13 39 1
43 14 40 1
44 23 41 1
45 26 42 1
46 27 43 1
47 29 44 1
48 29 45 1
49 29 46 1
50 31 47 1
51 31 48 1
52 31 49 1
@<TRIPOS>SUBSTRUCTURE
1	UNK0	1	GROUP	1 ****	UNK
