# created with PyMOL 2.3.2
@<TRIPOS>MOLECULE
1839
46 50 1                 
SMALL
USER_CHARGES
@<TRIPOS>ATOM
1	  Cl	2.500	-1.953	-7.834	Cl	1	UNK0	0.000	
2	   C	2.163	-1.744	-6.134	C.2	1	UNK0	0.000	
3	   C	2.762	-0.727	-5.425	C.2	1	UNK0	0.000	
4	   C	2.519	-0.529	-4.075	C.2	1	UNK0	0.000	
5	   C	1.644	-1.380	-3.407	C.2	1	UNK0	0.000	
6	   C	1.045	-2.390	-4.095	C.2	1	UNK0	0.000	
7	   C	1.291	-2.581	-5.437	C.2	1	UNK0	0.000	
8	   N	1.406	-1.164	-2.023	N.pl3	1	UNK0	0.000	
9	   N	2.303	-1.048	-1.055	N.2	1	UNK0	0.000	
10	   C	1.701	-0.851	0.119	C.2	1	UNK0	0.000	
11	   C	0.335	-0.836	-0.086	C.2	1	UNK0	0.000	
12	   C	0.176	-1.035	-1.434	C.2	1	UNK0	0.000	
13	   N	-1.113	-1.120	-2.054	N.pl3	1	UNK0	0.000	
14	   C	-2.218	-0.985	-1.148	C.2	1	UNK0	0.000	
15	   O	-3.289	-0.524	-1.569	O.2	1	UNK0	0.000	
16	   C	-2.007	-1.420	0.286	C.3	1	UNK0	0.000	
17	   C	-0.842	-0.635	0.782	C.3	1	UNK0	0.000	
18	   C	-0.540	-0.874	2.205	C.2	1	UNK0	0.000	
19	   C	-0.737	0.293	2.896	C.2	1	UNK0	0.000	
20	   C	-0.510	0.310	4.280	C.2	1	UNK0	0.000	
21	   C	-0.095	-0.817	4.956	C.2	1	UNK0	0.000	
22	   C	0.102	-1.986	4.259	C.2	1	UNK0	0.000	
23	   C	-0.123	-1.997	2.900	C.2	1	UNK0	0.000	
24	   N	-1.161	1.330	2.027	N.pl3	1	UNK0	0.000	
25	   C	-1.234	0.794	0.730	C.2	1	UNK0	0.000	
26	   O	-1.584	1.459	-0.298	O.2	1	UNK0	0.000	
27	   C	-1.461	2.713	2.447	C.3	1	UNK0	0.000	
28	   C	-2.896	2.834	2.815	C.2	1	UNK0	0.000	
29	   O	-3.351	3.939	3.201	O.2	1	UNK0	0.000	
30	   N	-3.805	1.740	2.752	N.pl3	1	UNK0	0.000	
31	   H	3.458	-0.032	-5.912	 H	1	UNK0	0.000	
32	   H	2.991	0.273	-3.520	 H	1	UNK0	0.000	
33	   H	0.368	-3.043	-3.564	 H	1	UNK0	0.000	
34	   H	0.821	-3.385	-6.007	 H	1	UNK0	0.000	
35	   H	2.176	-0.725	1.065	 H	1	UNK0	0.000	
36	   H	-1.184	-1.265	-3.062	 H	1	UNK0	0.000	
37	   H	-1.919	-2.503	0.370	 H	1	UNK0	0.000	
38	   H	-2.932	-1.115	0.833	 H	1	UNK0	0.000	
39	   H	-0.657	1.208	4.843	 H	1	UNK0	0.000	
40	   H	0.074	-0.785	6.014	 H	1	UNK0	0.000	
41	   H	0.428	-2.858	4.810	 H	1	UNK0	0.000	
42	   H	0.028	-2.917	2.327	 H	1	UNK0	0.000	
43	   H	-1.164	3.444	1.692	 H	1	UNK0	0.000	
44	   H	-0.870	2.905	3.365	 H	1	UNK0	0.000	
45	   H	-4.253	1.427	3.622	 H	1	UNK0	0.000	
46	   H	-4.034	1.244	1.867	 H	1	UNK0	0.000	
@<TRIPOS>BOND
1 1 2 1
2 2 3 2
3 2 7 1
4 3 4 1
5 4 5 2
6 5 6 1
7 5 8 1
8 6 7 2
9 8 9 1
10 8 12 1
11 9 10 2
12 10 11 1
13 11 12 2
14 11 17 1
15 12 13 1
16 13 14 1
17 14 15 2
18 14 16 1
19 16 17 1
20 17 18 1
21 17 25 1
22 18 19 1
23 18 23 2
24 19 20 2
25 19 24 1
26 20 21 1
27 21 22 2
28 22 23 1
29 24 25 1
30 24 27 1
31 25 26 2
32 27 28 1
33 28 29 2
34 28 30 1
35 3 31 1
36 4 32 1
37 6 33 1
38 7 34 1
39 10 35 1
40 13 36 1
41 16 37 1
42 16 38 1
43 20 39 1
44 21 40 1
45 22 41 1
46 23 42 1
47 27 43 1
48 27 44 1
49 30 45 1
50 30 46 1
@<TRIPOS>SUBSTRUCTURE
1	UNK0	1	GROUP	1 ****	UNK
