# created with PyMOL 2.3.2
@<TRIPOS>MOLECULE
1840
49 52 1                 
SMALL
USER_CHARGES
@<TRIPOS>ATOM
1	  Cl	-5.022	-2.676	-4.121	Cl	1	UNK0	0.000	
2	   C	-4.743	-2.169	-2.457	C.2	1	UNK0	0.000	
3	   C	-3.528	-1.624	-2.129	C.2	1	UNK0	0.000	
4	   C	-3.310	-1.223	-0.807	C.2	1	UNK0	0.000	
5	   C	-4.261	-1.356	0.151	C.2	1	UNK0	0.000	
6	   C	-5.494	-1.919	-0.222	C.2	1	UNK0	0.000	
7	   C	-5.745	-2.326	-1.514	C.2	1	UNK0	0.000	
8	   N	-3.805	-0.852	1.396	N.pl3	1	UNK0	0.000	
9	   C	-2.502	-0.374	1.215	C.2	1	UNK0	0.000	
10	   O	-1.765	0.204	2.101	O.2	1	UNK0	0.000	
11	   C	-2.095	-0.645	-0.199	C.3	1	UNK0	0.000	
12	   N	-1.651	0.535	-0.845	N.3	1	UNK0	0.000	
13	   C	-0.510	0.189	-1.619	C.3	1	UNK0	0.000	
14	   C	0.110	-1.023	-1.050	C.3	1	UNK0	0.000	
15	   C	-0.955	-1.609	-0.209	C.3	1	UNK0	0.000	
16	   C	-0.371	-1.716	1.173	C.2	1	UNK0	0.000	
17	   O	-0.941	-2.244	2.154	O.2	1	UNK0	0.000	
18	   N	0.927	-1.130	1.215	N.pl3	1	UNK0	0.000	
19	   C	1.255	-0.821	-0.156	C.2	1	UNK0	0.000	
20	   O	2.376	-0.427	-0.558	O.2	1	UNK0	0.000	
21	   C	1.809	-0.877	2.330	C.3	1	UNK0	0.000	
22	   C	2.414	-2.081	2.960	C.3	1	UNK0	0.000	
23	   C	1.544	-3.101	3.557	C.3	1	UNK0	0.000	
24	   C	1.240	0.103	3.324	C.3	1	UNK0	0.000	
25	   C	0.411	1.349	-1.888	C.3	1	UNK0	0.000	
26	   O	1.521	1.013	-2.618	O.3	1	UNK0	0.000	
27	   C	0.826	2.110	-0.660	C.3	1	UNK0	0.000	
28	   H	-2.790	-1.530	-2.911	 H	1	UNK0	0.000	
29	   H	-6.235	-2.013	0.567	 H	1	UNK0	0.000	
30	   H	-6.711	-2.757	-1.766	 H	1	UNK0	0.000	
31	   H	-4.344	-0.837	2.302	 H	1	UNK0	0.000	
32	   H	-1.373	1.235	-0.123	 H	1	UNK0	0.000	
33	   H	-0.899	-0.108	-2.646	 H	1	UNK0	0.000	
34	   H	0.355	-1.783	-1.858	 H	1	UNK0	0.000	
35	   H	-1.275	-2.631	-0.554	 H	1	UNK0	0.000	
36	   H	2.721	-0.340	1.896	 H	1	UNK0	0.000	
37	   H	3.181	-1.771	3.731	 H	1	UNK0	0.000	
38	   H	3.049	-2.569	2.167	 H	1	UNK0	0.000	
39	   H	2.148	-3.772	4.260	 H	1	UNK0	0.000	
40	   H	1.130	-3.827	2.829	 H	1	UNK0	0.000	
41	   H	0.729	-2.739	4.194	 H	1	UNK0	0.000	
42	   H	0.423	-0.282	3.925	 H	1	UNK0	0.000	
43	   H	0.886	0.988	2.747	 H	1	UNK0	0.000	
44	   H	2.074	0.461	3.951	 H	1	UNK0	0.000	
45	   H	-0.137	2.110	-2.530	 H	1	UNK0	0.000	
46	   H	2.181	1.764	-2.513	 H	1	UNK0	0.000	
47	   H	1.922	2.270	-0.703	 H	1	UNK0	0.000	
48	   H	0.607	1.504	0.248	 H	1	UNK0	0.000	
49	   H	0.358	3.118	-0.595	 H	1	UNK0	0.000	
@<TRIPOS>BOND
1 1 2 1
2 2 3 2
3 2 7 1
4 3 4 1
5 4 5 2
6 4 11 1
7 5 6 1
8 5 8 1
9 6 7 2
10 8 9 1
11 9 10 2
12 9 11 1
13 11 12 1
14 11 15 1
15 12 13 1
16 13 14 1
17 13 25 1
18 14 15 1
19 14 19 1
20 15 16 1
21 16 17 2
22 16 18 1
23 18 19 1
24 18 21 1
25 19 20 2
26 21 22 1
27 21 24 1
28 22 23 1
29 25 26 1
30 25 27 1
31 3 28 1
32 6 29 1
33 7 30 1
34 8 31 1
35 12 32 1
36 13 33 1
37 14 34 1
38 15 35 1
39 21 36 1
40 22 37 1
41 22 38 1
42 23 39 1
43 23 40 1
44 23 41 1
45 24 42 1
46 24 43 1
47 24 44 1
48 25 45 1
49 26 46 1
50 27 47 1
51 27 48 1
52 27 49 1
@<TRIPOS>SUBSTRUCTURE
1	UNK0	1	GROUP	1 ****	UNK
