# created with PyMOL 2.3.2
@<TRIPOS>MOLECULE
1841
44 47 1                 
SMALL
USER_CHARGES
@<TRIPOS>ATOM
1	  Cl	-1.554	-3.871	-3.945	Cl	1	UNK0	0.000	
2	   C	-0.589	-3.062	-2.709	C.2	1	UNK0	0.000	
3	   C	-0.040	-1.828	-2.960	C.2	1	UNK0	0.000	
4	   C	0.713	-1.196	-1.995	C.2	1	UNK0	0.000	
5	   C	0.934	-1.776	-0.770	C.2	1	UNK0	0.000	
6	   C	0.381	-3.015	-0.523	C.2	1	UNK0	0.000	
7	   C	-0.374	-3.650	-1.485	C.2	1	UNK0	0.000	
8	   O	1.665	-1.263	0.289	O.3	1	UNK0	0.000	
9	   C	2.786	-0.442	0.376	C.3	1	UNK0	0.000	
10	   C	2.866	0.675	-0.604	C.3	1	UNK0	0.000	
11	   N	1.613	0.919	-1.309	N.pl3	1	UNK0	0.000	
12	   C	1.215	0.123	-2.451	C.3	1	UNK0	0.000	
13	   C	0.786	1.972	-0.846	C.2	1	UNK0	0.000	
14	   O	1.223	2.617	0.152	O.2	1	UNK0	0.000	
15	   C	-0.513	2.341	-1.449	C.3	1	UNK0	0.000	
16	   C	-1.072	3.560	-0.683	C.3	1	UNK0	0.000	
17	   N	-0.989	3.157	0.716	N.pl3	1	UNK0	0.000	
18	   C	-1.216	1.786	1.097	C.2	1	UNK0	0.000	
19	   C	-1.510	0.877	0.181	C.2	1	UNK0	0.000	
20	   C	-1.598	1.304	-1.221	C.3	1	UNK0	0.000	
21	   N	-1.062	1.708	2.510	N.pl3	1	UNK0	0.000	
22	   N	-0.749	2.963	3.043	N.pl3	1	UNK0	0.000	
23	   C	-0.707	3.849	1.924	C.2	1	UNK0	0.000	
24	   O	-0.450	5.088	2.017	O.2	1	UNK0	0.000	
25	   C	-0.513	3.312	4.435	C.3	1	UNK0	0.000	
26	   H	-0.191	-1.342	-3.907	 H	1	UNK0	0.000	
27	   H	0.542	-3.484	0.428	 H	1	UNK0	0.000	
28	   H	-0.823	-4.629	-1.319	 H	1	UNK0	0.000	
29	   H	3.689	-1.098	0.195	 H	1	UNK0	0.000	
30	   H	2.944	-0.097	1.426	 H	1	UNK0	0.000	
31	   H	3.062	1.620	-0.022	 H	1	UNK0	0.000	
32	   H	3.703	0.547	-1.312	 H	1	UNK0	0.000	
33	   H	2.095	-0.047	-3.106	 H	1	UNK0	0.000	
34	   H	0.470	0.620	-3.093	 H	1	UNK0	0.000	
35	   H	-0.414	2.594	-2.526	 H	1	UNK0	0.000	
36	   H	-2.142	3.657	-0.944	 H	1	UNK0	0.000	
37	   H	-0.477	4.455	-0.892	 H	1	UNK0	0.000	
38	   H	-1.681	-0.166	0.478	 H	1	UNK0	0.000	
39	   H	-1.623	0.497	-1.952	 H	1	UNK0	0.000	
40	   H	-2.620	1.791	-1.313	 H	1	UNK0	0.000	
41	   H	-1.166	0.841	3.076	 H	1	UNK0	0.000	
42	   H	-0.929	2.530	5.086	 H	1	UNK0	0.000	
43	   H	-0.879	4.326	4.639	 H	1	UNK0	0.000	
44	   H	0.594	3.328	4.658	 H	1	UNK0	0.000	
@<TRIPOS>BOND
1 1 2 1
2 2 3 2
3 2 7 1
4 3 4 1
5 4 5 2
6 4 12 1
7 5 6 1
8 5 8 1
9 6 7 2
10 8 9 1
11 9 10 1
12 10 11 1
13 11 12 1
14 11 13 1
15 13 14 2
16 13 15 1
17 15 16 1
18 15 20 1
19 16 17 1
20 17 18 1
21 17 23 1
22 18 19 2
23 18 21 1
24 19 20 1
25 21 22 1
26 22 23 1
27 22 25 1
28 23 24 2
29 3 26 1
30 6 27 1
31 7 28 1
32 9 29 1
33 9 30 1
34 10 31 1
35 10 32 1
36 12 33 1
37 12 34 1
38 15 35 1
39 16 36 1
40 16 37 1
41 19 38 1
42 20 39 1
43 20 40 1
44 21 41 1
45 25 42 1
46 25 43 1
47 25 44 1
@<TRIPOS>SUBSTRUCTURE
1	UNK0	1	GROUP	1 ****	UNK
