# created with PyMOL 2.3.2
@<TRIPOS>MOLECULE
1847
42 45 1                 
SMALL
USER_CHARGES
@<TRIPOS>ATOM
1	  Cl	-5.458	-0.585	1.784	Cl	1	UNK0	0.000	
2	   C	-4.365	-0.229	0.440	C.2	1	UNK0	0.000	
3	   C	-4.952	0.266	-0.703	C.2	1	UNK0	0.000	
4	   C	-4.117	0.546	-1.752	C.2	1	UNK0	0.000	
5	   C	-2.739	0.334	-1.648	C.2	1	UNK0	0.000	
6	   C	-2.150	-0.159	-0.507	C.2	1	UNK0	0.000	
7	   C	-3.018	-0.442	0.558	C.2	1	UNK0	0.000	
8	   N	-0.761	-0.392	-0.349	N.pl3	1	UNK0	0.000	
9	   C	0.261	-0.178	-1.282	C.2	1	UNK0	0.000	
10	   O	0.026	0.268	-2.415	O.2	1	UNK0	0.000	
11	   N	1.622	-0.464	-0.969	N.pl3	1	UNK0	0.000	
12	   C	2.116	-0.982	0.280	C.3	1	UNK0	0.000	
13	   C	3.444	-0.366	0.419	C.2	1	UNK0	0.000	
14	   N	4.390	-0.072	1.363	N.pl3	1	UNK0	0.000	
15	   N	5.370	0.507	0.700	N.2	1	UNK0	0.000	
16	   C	5.103	0.599	-0.616	C.2	1	UNK0	0.000	
17	   C	3.859	0.040	-0.827	C.2	1	UNK0	0.000	
18	   C	2.786	-0.303	-1.821	C.3	1	UNK0	0.000	
19	   C	4.299	-0.353	2.793	C.3	1	UNK0	0.000	
20	   C	3.647	0.863	3.463	C.3	1	UNK0	0.000	
21	   O	4.505	1.942	3.182	O.3	1	UNK0	0.000	
22	   N	-4.700	1.057	-2.940	N.pl3	1	UNK0	0.000	
23	   C	-6.098	1.282	-3.071	C.2	1	UNK0	0.000	
24	   O	-6.664	1.564	-4.155	O.2	1	UNK0	0.000	
25	   C	-6.947	1.179	-1.859	C.3	1	UNK0	0.000	
26	   O	-6.312	0.478	-0.816	O.3	1	UNK0	0.000	
27	   H	-2.139	0.574	-2.505	 H	1	UNK0	0.000	
28	   H	-2.627	-0.831	1.484	 H	1	UNK0	0.000	
29	   H	-0.482	-0.780	0.608	 H	1	UNK0	0.000	
30	   H	1.464	-0.707	1.161	 H	1	UNK0	0.000	
31	   H	2.170	-2.095	0.189	 H	1	UNK0	0.000	
32	   H	5.725	1.027	-1.402	 H	1	UNK0	0.000	
33	   H	3.097	-1.244	-2.291	 H	1	UNK0	0.000	
34	   H	2.648	0.509	-2.565	 H	1	UNK0	0.000	
35	   H	5.314	-0.420	3.195	 H	1	UNK0	0.000	
36	   H	3.683	-1.262	2.987	 H	1	UNK0	0.000	
37	   H	3.505	0.708	4.532	 H	1	UNK0	0.000	
38	   H	2.691	1.059	2.913	 H	1	UNK0	0.000	
39	   H	4.020	2.806	3.204	 H	1	UNK0	0.000	
40	   H	-4.056	1.271	-3.744	 H	1	UNK0	0.000	
41	   H	-7.151	2.208	-1.483	 H	1	UNK0	0.000	
42	   H	-7.909	0.684	-2.103	 H	1	UNK0	0.000	
@<TRIPOS>BOND
1 1 2 1
2 2 3 2
3 2 7 1
4 3 4 1
5 3 26 1
6 4 5 2
7 4 22 1
8 5 6 1
9 6 7 2
10 6 8 1
11 8 9 1
12 9 10 2
13 9 11 1
14 11 12 1
15 11 18 1
16 12 13 1
17 13 14 1
18 13 17 2
19 14 15 1
20 14 19 1
21 15 16 2
22 16 17 1
23 17 18 1
24 19 20 1
25 20 21 1
26 22 23 1
27 23 24 2
28 23 25 1
29 25 26 1
30 5 27 1
31 7 28 1
32 8 29 1
33 12 30 1
34 12 31 1
35 16 32 1
36 18 33 1
37 18 34 1
38 19 35 1
39 19 36 1
40 20 37 1
41 20 38 1
42 21 39 1
43 22 40 1
44 25 41 1
45 25 42 1
@<TRIPOS>SUBSTRUCTURE
1	UNK0	1	GROUP	1 ****	UNK
