# created with PyMOL 2.3.2
@<TRIPOS>MOLECULE
1848
54 58 1                 
SMALL
USER_CHARGES
@<TRIPOS>ATOM
1	  Cl	-1.195	-2.846	0.430	Cl	1	UNK0	0.000	
2	   C	-0.747	-1.180	0.620	C.2	1	UNK0	0.000	
3	   C	-0.491	-0.427	-0.519	C.2	1	UNK0	0.000	
4	   C	-0.138	0.883	-0.402	C.2	1	UNK0	0.000	
5	   C	-0.049	1.412	0.894	C.2	1	UNK0	0.000	
6	   C	-0.305	0.653	2.014	C.2	1	UNK0	0.000	
7	   C	-0.664	-0.676	1.904	C.2	1	UNK0	0.000	
8	   C	-0.894	-1.527	3.064	C.2	1	UNK0	0.000	
9	   C	-1.799	-1.322	3.994	C.2	1	UNK0	0.000	
10	   C	-1.925	-2.265	5.134	C.2	1	UNK0	0.000	
11	   O	-1.125	-3.229	5.198	O.2	1	UNK0	0.000	
12	   N	-2.915	-2.091	6.126	N.pl3	1	UNK0	0.000	
13	   C	-3.844	-1.019	6.102	C.2	1	UNK0	0.000	
14	   O	-4.717	-0.899	7.013	O.2	1	UNK0	0.000	
15	   N	-3.754	-0.097	5.025	N.pl3	1	UNK0	0.000	
16	   C	-2.767	-0.232	3.994	C.2	1	UNK0	0.000	
17	   O	-2.780	0.633	3.090	O.2	1	UNK0	0.000	
18	   N	0.129	1.677	-1.533	N.pl3	1	UNK0	0.000	
19	   C	-0.017	1.144	-2.861	C.3	1	UNK0	0.000	
20	   C	0.252	-0.343	-2.908	C.3	1	UNK0	0.000	
21	   C	-0.604	-1.045	-1.866	C.3	1	UNK0	0.000	
22	   C	1.685	-0.652	-2.688	C.2	1	UNK0	0.000	
23	   O	2.483	0.114	-2.102	O.2	1	UNK0	0.000	
24	   N	2.185	-1.888	-3.170	N.pl3	1	UNK0	0.000	
25	   C	1.513	-2.627	-4.190	C.2	1	UNK0	0.000	
26	   O	1.995	-3.717	-4.582	O.2	1	UNK0	0.000	
27	   N	0.319	-2.072	-4.704	N.pl3	1	UNK0	0.000	
28	   C	-0.169	-0.847	-4.223	C.2	1	UNK0	0.000	
29	   O	-0.965	-0.183	-4.913	O.2	1	UNK0	0.000	
30	   C	-0.367	-2.836	-5.751	C.3	1	UNK0	0.000	
31	   C	3.411	-2.452	-2.636	C.3	1	UNK0	0.000	
32	   C	0.878	1.975	-3.698	C.3	1	UNK0	0.000	
33	   C	0.611	3.372	-3.115	C.3	1	UNK0	0.000	
34	   C	0.572	3.076	-1.622	C.3	1	UNK0	0.000	
35	   H	0.236	2.462	0.954	 H	1	UNK0	0.000	
36	   H	-0.200	1.097	2.994	 H	1	UNK0	0.000	
37	   H	-0.271	-2.430	3.204	 H	1	UNK0	0.000	
38	   H	-2.994	-2.760	6.923	 H	1	UNK0	0.000	
39	   H	-4.437	0.710	4.986	 H	1	UNK0	0.000	
40	   H	-1.062	1.283	-3.232	 H	1	UNK0	0.000	
41	   H	-1.644	-1.192	-2.194	 H	1	UNK0	0.000	
42	   H	-0.158	-2.076	-1.761	 H	1	UNK0	0.000	
43	   H	-0.167	-3.925	-5.657	 H	1	UNK0	0.000	
44	   H	0.046	-2.531	-6.749	 H	1	UNK0	0.000	
45	   H	-1.452	-2.661	-5.747	 H	1	UNK0	0.000	
46	   H	3.508	-3.526	-2.882	 H	1	UNK0	0.000	
47	   H	3.424	-2.404	-1.516	 H	1	UNK0	0.000	
48	   H	4.242	-1.829	-3.011	 H	1	UNK0	0.000	
49	   H	0.547	2.045	-4.761	 H	1	UNK0	0.000	
50	   H	1.949	1.812	-3.601	 H	1	UNK0	0.000	
51	   H	-0.423	3.694	-3.432	 H	1	UNK0	0.000	
52	   H	1.384	4.088	-3.395	 H	1	UNK0	0.000	
53	   H	-0.124	3.762	-1.106	 H	1	UNK0	0.000	
54	   H	1.576	3.211	-1.171	 H	1	UNK0	0.000	
@<TRIPOS>BOND
1 1 2 1
2 2 3 2
3 2 7 1
4 3 4 1
5 3 21 1
6 4 5 2
7 4 18 1
8 5 6 1
9 6 7 2
10 7 8 1
11 8 9 2
12 9 10 1
13 9 16 1
14 10 11 2
15 10 12 1
16 12 13 1
17 13 14 2
18 13 15 1
19 15 16 1
20 16 17 2
21 18 19 1
22 18 34 1
23 19 20 1
24 19 32 1
25 20 21 1
26 20 22 1
27 20 28 1
28 22 23 2
29 22 24 1
30 24 25 1
31 24 31 1
32 25 26 2
33 25 27 1
34 27 28 1
35 27 30 1
36 28 29 2
37 32 33 1
38 33 34 1
39 5 35 1
40 6 36 1
41 8 37 1
42 12 38 1
43 15 39 1
44 19 40 1
45 21 41 1
46 21 42 1
47 30 43 1
48 30 44 1
49 30 45 1
50 31 46 1
51 31 47 1
52 31 48 1
53 32 49 1
54 32 50 1
55 33 51 1
56 33 52 1
57 34 53 1
58 34 54 1
@<TRIPOS>SUBSTRUCTURE
1	UNK0	1	GROUP	1 ****	UNK
