# created with PyMOL 2.3.2
@<TRIPOS>MOLECULE
1849
46 49 1                 
SMALL
USER_CHARGES
@<TRIPOS>ATOM
1	  Cl	-4.192	-1.423	5.867	Cl	1	UNK0	0.000	
2	   C	-2.956	-2.427	5.131	C.2	1	UNK0	0.000	
3	   C	-2.041	-1.938	4.239	C.2	1	UNK0	0.000	
4	   C	-1.088	-2.753	3.683	C.2	1	UNK0	0.000	
5	   C	-1.042	-4.103	4.027	C.2	1	UNK0	0.000	
6	   C	-1.977	-4.555	4.926	C.2	1	UNK0	0.000	
7	   C	-2.946	-3.762	5.501	C.2	1	UNK0	0.000	
8	   C	-0.076	-2.245	2.708	C.3	1	UNK0	0.000	
9	   N	-0.588	-1.102	1.952	N.pl3	1	UNK0	0.000	
10	   C	-1.835	-0.489	2.348	C.3	1	UNK0	0.000	
11	   C	-2.060	-0.512	3.848	C.3	1	UNK0	0.000	
12	   C	0.101	-0.576	0.839	C.2	1	UNK0	0.000	
13	   O	1.182	-1.111	0.497	O.2	1	UNK0	0.000	
14	   C	-0.444	0.568	0.110	C.3	1	UNK0	0.000	
15	   N	0.371	0.989	-1.000	N.pl3	1	UNK0	0.000	
16	   C	1.361	1.971	-0.690	C.3	1	UNK0	0.000	
17	   C	1.665	2.923	-1.803	C.3	1	UNK0	0.000	
18	   N	2.133	2.282	-2.995	N.3	1	UNK0	0.000	
19	   C	0.962	2.075	-3.792	C.3	1	UNK0	0.000	
20	   C	-0.082	3.062	-3.364	C.3	1	UNK0	0.000	
21	   C	0.511	3.801	-2.187	C.3	1	UNK0	0.000	
22	   C	0.478	0.672	-3.608	C.3	1	UNK0	0.000	
23	   C	0.054	0.350	-2.242	C.2	1	UNK0	0.000	
24	   O	-0.715	-0.658	-2.176	O.2	1	UNK0	0.000	
25	   H	-0.288	-4.741	3.586	 H	1	UNK0	0.000	
26	   H	-1.973	-5.599	5.218	 H	1	UNK0	0.000	
27	   H	-3.663	-4.174	6.208	 H	1	UNK0	0.000	
28	   H	0.883	-1.994	3.206	 H	1	UNK0	0.000	
29	   H	0.151	-3.032	1.958	 H	1	UNK0	0.000	
30	   H	-2.647	-1.138	1.907	 H	1	UNK0	0.000	
31	   H	-1.955	0.524	1.933	 H	1	UNK0	0.000	
32	   H	-1.230	0.019	4.362	 H	1	UNK0	0.000	
33	   H	-3.025	-0.025	4.034	 H	1	UNK0	0.000	
34	   H	-0.493	1.430	0.838	 H	1	UNK0	0.000	
35	   H	-1.445	0.310	-0.261	 H	1	UNK0	0.000	
36	   H	1.021	2.595	0.184	 H	1	UNK0	0.000	
37	   H	2.330	1.529	-0.355	 H	1	UNK0	0.000	
38	   H	2.483	3.593	-1.447	 H	1	UNK0	0.000	
39	   H	2.557	1.345	-2.747	 H	1	UNK0	0.000	
40	   H	1.237	2.207	-4.851	 H	1	UNK0	0.000	
41	   H	-0.411	3.742	-4.162	 H	1	UNK0	0.000	
42	   H	-0.979	2.515	-2.996	 H	1	UNK0	0.000	
43	   H	-0.182	3.950	-1.359	 H	1	UNK0	0.000	
44	   H	0.900	4.789	-2.555	 H	1	UNK0	0.000	
45	   H	-0.401	0.541	-4.306	 H	1	UNK0	0.000	
46	   H	1.244	-0.048	-3.984	 H	1	UNK0	0.000	
@<TRIPOS>BOND
1 1 2 1
2 2 3 2
3 2 7 1
4 3 4 1
5 3 11 1
6 4 5 2
7 4 8 1
8 5 6 1
9 6 7 2
10 8 9 1
11 9 10 1
12 9 12 1
13 10 11 1
14 12 13 2
15 12 14 1
16 14 15 1
17 15 16 1
18 15 23 1
19 16 17 1
20 17 18 1
21 17 21 1
22 18 19 1
23 19 20 1
24 19 22 1
25 20 21 1
26 22 23 1
27 23 24 2
28 5 25 1
29 6 26 1
30 7 27 1
31 8 28 1
32 8 29 1
33 10 30 1
34 10 31 1
35 11 32 1
36 11 33 1
37 14 34 1
38 14 35 1
39 16 36 1
40 16 37 1
41 17 38 1
42 18 39 1
43 19 40 1
44 20 41 1
45 20 42 1
46 21 43 1
47 21 44 1
48 22 45 1
49 22 46 1
@<TRIPOS>SUBSTRUCTURE
1	UNK0	1	GROUP	1 ****	UNK
