# created with PyMOL 2.3.2
@<TRIPOS>MOLECULE
1851
40 43 1                 
SMALL
USER_CHARGES
@<TRIPOS>ATOM
1	  Cl	-2.050	-3.384	0.428	Cl	1	UNK0	0.000	
2	   C	-0.877	-2.439	-0.500	C.2	1	UNK0	0.000	
3	   C	-0.572	-1.114	-0.159	C.2	1	UNK0	0.000	
4	   C	0.332	-0.381	-0.871	C.2	1	UNK0	0.000	
5	   C	0.952	-0.993	-1.959	C.2	1	UNK0	0.000	
6	   C	0.659	-2.294	-2.301	C.2	1	UNK0	0.000	
7	   C	-0.248	-3.003	-1.573	C.2	1	UNK0	0.000	
8	   C	0.438	0.964	-0.277	C.3	1	UNK0	0.000	
9	   C	-0.058	2.025	-1.128	C.2	1	UNK0	0.000	
10	   C	0.644	3.159	-1.369	C.2	1	UNK0	0.000	
11	   O	1.905	3.376	-0.803	O.3	1	UNK0	0.000	
12	   C	2.377	2.355	0.014	C.2	1	UNK0	0.000	
13	   C	1.761	1.242	0.289	C.2	1	UNK0	0.000	
14	   C	2.401	0.240	1.186	C.2	1	UNK0	0.000	
15	   O	3.516	0.505	1.646	O.co2	1	UNK0	0.000	
16	   O	1.802	-0.956	1.517	O.3	1	UNK0	0.000	
17	   C	2.361	-1.924	2.351	C.3	1	UNK0	0.000	
18	   N	3.685	2.514	0.636	N.pl3	1	UNK0	0.000	
19	   C	0.099	4.145	-2.205	C.2	1	UNK0	0.000	
20	   C	-1.131	3.981	-2.783	C.2	1	UNK0	0.000	
21	   O	-1.763	2.869	-2.517	O.3	1	UNK0	0.000	
22	   C	-1.317	1.920	-1.754	C.2	1	UNK0	0.000	
23	   O	-1.974	0.851	-1.525	O.co2	1	UNK0	0.000	
24	   C	-1.715	5.020	-3.670	C.3	1	UNK0	0.000	
25	   C	-0.542	0.882	0.877	C.2	1	UNK0	0.000	
26	   O	-0.810	1.799	1.699	O.2	1	UNK0	0.000	
27	   N	-1.139	-0.394	0.922	N.pl3	1	UNK0	0.000	
28	   H	1.663	-0.412	-2.517	 H	1	UNK0	0.000	
29	   H	1.156	-2.737	-3.147	 H	1	UNK0	0.000	
30	   H	-0.510	-4.047	-1.814	 H	1	UNK0	0.000	
31	   H	3.212	-1.526	2.927	 H	1	UNK0	0.000	
32	   H	1.594	-2.413	3.015	 H	1	UNK0	0.000	
33	   H	2.745	-2.745	1.707	 H	1	UNK0	0.000	
34	   H	4.562	2.291	0.157	 H	1	UNK0	0.000	
35	   H	3.705	2.872	1.611	 H	1	UNK0	0.000	
36	   H	0.695	5.030	-2.367	 H	1	UNK0	0.000	
37	   H	-2.806	4.808	-3.771	 H	1	UNK0	0.000	
38	   H	-1.273	4.881	-4.676	 H	1	UNK0	0.000	
39	   H	-1.509	6.023	-3.292	 H	1	UNK0	0.000	
40	   H	-1.863	-0.717	1.633	 H	1	UNK0	0.000	
@<TRIPOS>BOND
1 1 2 1
2 2 3 2
3 2 7 1
4 3 4 1
5 3 27 1
6 4 5 2
7 4 8 1
8 5 6 1
9 6 7 2
10 8 9 1
11 8 13 1
12 8 25 1
13 9 10 2
14 9 22 1
15 10 11 1
16 10 19 1
17 11 12 1
18 12 13 2
19 12 18 1
20 13 14 1
21 14 15 2
22 14 16 1
23 16 17 1
24 19 20 2
25 20 21 1
26 20 24 1
27 21 22 1
28 22 23 2
29 25 26 2
30 25 27 1
31 5 28 1
32 6 29 1
33 7 30 1
34 17 31 1
35 17 32 1
36 17 33 1
37 18 34 1
38 18 35 1
39 19 36 1
40 24 37 1
41 24 38 1
42 24 39 1
43 27 40 1
@<TRIPOS>SUBSTRUCTURE
1	UNK0	1	GROUP	1 ****	UNK
