# created with PyMOL 2.3.2
@<TRIPOS>MOLECULE
1853
61 64 1                 
SMALL
USER_CHARGES
@<TRIPOS>ATOM
1	   S	-4.461	0.415	2.469	S.O2	1	UNK0	0.000	
2	   O	-5.068	1.766	2.305	O.2	1	UNK0	0.000	
3	   O	-3.286	0.528	3.423	O.2	1	UNK0	0.000	
4	   N	-5.611	-0.660	3.113	N.3	1	UNK0	0.000	
5	   C	-5.142	-1.958	3.447	C.3	1	UNK0	0.000	
6	   C	-5.730	-2.940	2.462	C.3	1	UNK0	0.000	
7	   C	-6.921	-2.220	1.893	C.3	1	UNK0	0.000	
8	   C	-6.804	-0.807	2.356	C.3	1	UNK0	0.000	
9	   C	-3.766	-0.154	0.949	C.2	1	UNK0	0.000	
10	   C	-2.613	-0.913	0.936	C.2	1	UNK0	0.000	
11	   C	-2.052	-1.368	-0.240	C.2	1	UNK0	0.000	
12	   C	-2.671	-1.051	-1.440	C.2	1	UNK0	0.000	
13	   C	-3.825	-0.293	-1.430	C.2	1	UNK0	0.000	
14	   C	-4.375	0.156	-0.251	C.2	1	UNK0	0.000	
15	  Cl	-1.938	-1.643	-2.902	Cl	1	UNK0	0.000	
16	   C	-0.830	-2.163	-0.211	C.2	1	UNK0	0.000	
17	   O	-0.926	-3.411	-0.128	O.2	1	UNK0	0.000	
18	   N	0.456	-1.566	-0.274	N.pl3	1	UNK0	0.000	
19	   C	0.531	-0.131	-0.373	C.3	1	UNK0	0.000	
20	   C	1.506	0.166	-1.496	C.3	1	UNK0	0.000	
21	   N	2.800	-0.302	-1.074	N.3	1	UNK0	0.000	
22	   C	2.892	-1.627	-0.619	C.3	1	UNK0	0.000	
23	   C	1.653	-2.326	-0.242	C.3	1	UNK0	0.000	
24	   C	3.541	0.695	-0.403	C.3	1	UNK0	0.000	
25	   C	4.078	1.772	-1.227	C.2	1	UNK0	0.000	
26	   O	4.685	2.756	-0.587	O.2	1	UNK0	0.000	
27	   N	4.073	1.961	-2.606	N.pl3	1	UNK0	0.000	
28	   C	4.615	3.198	-3.216	C.3	1	UNK0	0.000	
29	   C	5.868	2.853	-3.954	C.3	1	UNK0	0.000	
30	   O	5.814	1.527	-4.373	O.3	1	UNK0	0.000	
31	   C	4.530	1.194	-4.795	C.3	1	UNK0	0.000	
32	   C	3.612	0.989	-3.552	C.3	1	UNK0	0.000	
33	   H	-5.598	-2.227	4.445	 H	1	UNK0	0.000	
34	   H	-4.037	-2.054	3.524	 H	1	UNK0	0.000	
35	   H	-4.959	-3.167	1.693	 H	1	UNK0	0.000	
36	   H	-6.055	-3.882	2.964	 H	1	UNK0	0.000	
37	   H	-7.871	-2.721	2.239	 H	1	UNK0	0.000	
38	   H	-6.981	-2.300	0.772	 H	1	UNK0	0.000	
39	   H	-7.675	-0.596	3.045	 H	1	UNK0	0.000	
40	   H	-6.913	-0.082	1.528	 H	1	UNK0	0.000	
41	   H	-2.138	-1.155	1.878	 H	1	UNK0	0.000	
42	   H	-4.306	-0.049	-2.366	 H	1	UNK0	0.000	
43	   H	-5.277	0.752	-0.216	 H	1	UNK0	0.000	
44	   H	-0.472	0.326	-0.603	 H	1	UNK0	0.000	
45	   H	0.963	0.299	0.552	 H	1	UNK0	0.000	
46	   H	1.230	-0.254	-2.460	 H	1	UNK0	0.000	
47	   H	1.535	1.264	-1.587	 H	1	UNK0	0.000	
48	   H	3.650	-1.651	0.221	 H	1	UNK0	0.000	
49	   H	3.395	-2.233	-1.432	 H	1	UNK0	0.000	
50	   H	1.477	-3.252	-0.861	 H	1	UNK0	0.000	
51	   H	1.763	-2.721	0.809	 H	1	UNK0	0.000	
52	   H	2.908	1.186	0.386	 H	1	UNK0	0.000	
53	   H	4.364	0.200	0.219	 H	1	UNK0	0.000	
54	   H	4.730	3.981	-2.442	 H	1	UNK0	0.000	
55	   H	3.834	3.532	-3.927	 H	1	UNK0	0.000	
56	   H	6.733	2.956	-3.270	 H	1	UNK0	0.000	
57	   H	6.026	3.557	-4.794	 H	1	UNK0	0.000	
58	   H	4.533	0.279	-5.399	 H	1	UNK0	0.000	
59	   H	4.117	2.076	-5.316	 H	1	UNK0	0.000	
60	   H	2.575	1.240	-3.853	 H	1	UNK0	0.000	
61	   H	3.694	-0.064	-3.234	 H	1	UNK0	0.000	
@<TRIPOS>BOND
1 1 2 2
2 1 3 2
3 1 4 1
4 1 9 1
5 4 5 1
6 4 8 1
7 5 6 1
8 6 7 1
9 7 8 1
10 9 10 2
11 9 14 1
12 10 11 1
13 11 12 2
14 11 16 1
15 12 13 1
16 12 15 1
17 13 14 2
18 16 17 2
19 16 18 1
20 18 19 1
21 18 23 1
22 19 20 1
23 20 21 1
24 21 22 1
25 21 24 1
26 22 23 1
27 24 25 1
28 25 26 2
29 25 27 1
30 27 28 1
31 27 32 1
32 28 29 1
33 29 30 1
34 30 31 1
35 31 32 1
36 5 33 1
37 5 34 1
38 6 35 1
39 6 36 1
40 7 37 1
41 7 38 1
42 8 39 1
43 8 40 1
44 10 41 1
45 13 42 1
46 14 43 1
47 19 44 1
48 19 45 1
49 20 46 1
50 20 47 1
51 22 48 1
52 22 49 1
53 23 50 1
54 23 51 1
55 24 52 1
56 24 53 1
57 28 54 1
58 28 55 1
59 29 56 1
60 29 57 1
61 31 58 1
62 31 59 1
63 32 60 1
64 32 61 1
@<TRIPOS>SUBSTRUCTURE
1	UNK0	1	GROUP	1 ****	UNK
