# created with PyMOL 2.3.2
@<TRIPOS>MOLECULE
1854
41 44 1                 
SMALL
USER_CHARGES
@<TRIPOS>ATOM
1	  Cl	-4.659	3.086	2.878	Cl	1	UNK0	0.000	
2	   C	-3.423	2.140	2.065	C.2	1	UNK0	0.000	
3	   C	-2.349	1.736	2.837	C.2	1	UNK0	0.000	
4	   C	-1.345	0.990	2.258	C.2	1	UNK0	0.000	
5	   C	-1.468	0.679	0.908	C.2	1	UNK0	0.000	
6	   C	-2.532	1.074	0.127	C.2	1	UNK0	0.000	
7	   C	-3.539	1.829	0.730	C.2	1	UNK0	0.000	
8	   C	-2.610	0.723	-1.273	C.2	1	UNK0	0.000	
9	   O	-3.615	1.111	-1.948	O.2	1	UNK0	0.000	
10	   N	-1.640	-0.034	-1.973	N.pl3	1	UNK0	0.000	
11	   C	-1.730	-0.372	-3.351	C.3	1	UNK0	0.000	
12	   C	-0.628	-1.173	-3.925	C.3	1	UNK0	0.000	
13	   C	0.720	-0.565	-3.853	C.2	1	UNK0	0.000	
14	   N	1.652	-0.763	-2.882	N.pl3	1	UNK0	0.000	
15	   C	2.703	-0.011	-3.201	C.2	1	UNK0	0.000	
16	   N	2.436	0.648	-4.356	N.2	1	UNK0	0.000	
17	   N	1.230	0.304	-4.742	N.2	1	UNK0	0.000	
18	   C	3.816	-0.140	-2.187	C.3	1	UNK0	0.000	
19	   C	3.049	-0.714	-1.005	C.3	1	UNK0	0.000	
20	   C	1.914	-1.497	-1.657	C.3	1	UNK0	0.000	
21	   O	-0.285	0.594	3.030	O.3	1	UNK0	0.000	
22	   C	-0.225	0.744	4.434	C.3	1	UNK0	0.000	
23	   C	-1.053	1.914	4.914	C.3	1	UNK0	0.000	
24	   O	-2.246	2.058	4.185	O.3	1	UNK0	0.000	
25	   H	-0.652	0.093	0.511	 H	1	UNK0	0.000	
26	   H	-4.380	2.156	0.163	 H	1	UNK0	0.000	
27	   H	-0.813	-0.356	-1.437	 H	1	UNK0	0.000	
28	   H	-2.674	-0.940	-3.498	 H	1	UNK0	0.000	
29	   H	-1.842	0.558	-3.948	 H	1	UNK0	0.000	
30	   H	-0.608	-2.214	-3.497	 H	1	UNK0	0.000	
31	   H	-0.866	-1.334	-5.011	 H	1	UNK0	0.000	
32	   H	4.203	0.837	-1.881	 H	1	UNK0	0.000	
33	   H	4.612	-0.794	-2.539	 H	1	UNK0	0.000	
34	   H	2.630	0.081	-0.356	 H	1	UNK0	0.000	
35	   H	3.730	-1.374	-0.461	 H	1	UNK0	0.000	
36	   H	1.064	-1.678	-1.020	 H	1	UNK0	0.000	
37	   H	2.361	-2.504	-1.879	 H	1	UNK0	0.000	
38	   H	-0.586	-0.202	4.883	 H	1	UNK0	0.000	
39	   H	0.816	0.902	4.761	 H	1	UNK0	0.000	
40	   H	-0.491	2.868	4.825	 H	1	UNK0	0.000	
41	   H	-1.311	1.786	5.985	 H	1	UNK0	0.000	
@<TRIPOS>BOND
1 1 2 1
2 2 3 2
3 2 7 1
4 3 4 1
5 3 24 1
6 4 5 2
7 4 21 1
8 5 6 1
9 6 7 2
10 6 8 1
11 8 9 2
12 8 10 1
13 10 11 1
14 11 12 1
15 12 13 1
16 13 14 1
17 13 17 2
18 14 15 1
19 14 20 1
20 15 16 2
21 15 18 1
22 16 17 1
23 18 19 1
24 19 20 1
25 21 22 1
26 22 23 1
27 23 24 1
28 5 25 1
29 7 26 1
30 10 27 1
31 11 28 1
32 11 29 1
33 12 30 1
34 12 31 1
35 18 32 1
36 18 33 1
37 19 34 1
38 19 35 1
39 20 36 1
40 20 37 1
41 22 38 1
42 22 39 1
43 23 40 1
44 23 41 1
@<TRIPOS>SUBSTRUCTURE
1	UNK0	1	GROUP	1 ****	UNK
