# created with PyMOL 2.3.2
@<TRIPOS>MOLECULE
1855
51 54 1                 
SMALL
USER_CHARGES
@<TRIPOS>ATOM
1	  Br	-2.172	7.361	-2.315	Br	1	UNK0	0.000	
2	   C	-1.360	6.662	-0.742	C.2	1	UNK0	0.000	
3	   C	-1.508	5.323	-0.447	C.2	1	UNK0	0.000	
4	   C	-0.959	4.722	0.668	C.2	1	UNK0	0.000	
5	   C	-0.225	5.547	1.513	C.2	1	UNK0	0.000	
6	   C	-0.067	6.894	1.230	C.2	1	UNK0	0.000	
7	   C	-0.628	7.464	0.108	C.2	1	UNK0	0.000	
8	   O	0.358	5.039	2.644	O.3	1	UNK0	0.000	
9	   C	-1.148	3.306	0.929	C.2	1	UNK0	0.000	
10	   N	-1.838	2.620	0.100	N.2	1	UNK0	0.000	
11	   N	-2.108	1.278	0.203	N.pl3	1	UNK0	0.000	
12	   C	-1.138	0.265	-0.030	C.2	1	UNK0	0.000	
13	   O	0.015	0.641	-0.345	O.2	1	UNK0	0.000	
14	   C	-1.444	-1.151	0.085	C.2	1	UNK0	0.000	
15	   N	-2.604	-1.743	0.404	N.2	1	UNK0	0.000	
16	   N	-2.446	-3.048	0.393	N.2	1	UNK0	0.000	
17	   N	-1.172	-3.341	0.064	N.pl3	1	UNK0	0.000	
18	   C	-0.524	-2.198	-0.133	C.2	1	UNK0	0.000	
19	   C	0.853	-1.945	-0.531	C.3	1	UNK0	0.000	
20	   N	1.748	-3.030	-0.683	N.3	1	UNK0	0.000	
21	   C	2.995	-2.570	-1.317	C.3	1	UNK0	0.000	
22	   C	3.632	-1.490	-0.500	C.3	1	UNK0	0.000	
23	   C	3.812	-1.950	0.939	C.3	1	UNK0	0.000	
24	   C	3.524	-3.423	1.014	C.3	1	UNK0	0.000	
25	   C	2.124	-3.696	0.558	C.3	1	UNK0	0.000	
26	   C	-0.702	-4.667	-0.055	C.2	1	UNK0	0.000	
27	   N	-0.227	-5.294	-1.145	N.2	1	UNK0	0.000	
28	   O	0.088	-6.509	-0.813	O.3	1	UNK0	0.000	
29	   N	-0.147	-6.742	0.442	N.2	1	UNK0	0.000	
30	   C	-0.647	-5.609	0.965	C.2	1	UNK0	0.000	
31	   N	-1.056	-5.372	2.302	N.pl3	1	UNK0	0.000	
32	   H	-2.088	4.662	-1.110	 H	1	UNK0	0.000	
33	   H	0.507	7.556	1.884	 H	1	UNK0	0.000	
34	   H	-0.491	8.526	-0.094	 H	1	UNK0	0.000	
35	   H	0.326	4.102	2.964	 H	1	UNK0	0.000	
36	   H	-0.727	2.824	1.793	 H	1	UNK0	0.000	
37	   H	-3.082	0.985	0.468	 H	1	UNK0	0.000	
38	   H	1.345	-1.200	0.175	 H	1	UNK0	0.000	
39	   H	0.890	-1.365	-1.514	 H	1	UNK0	0.000	
40	   H	2.752	-2.144	-2.309	 H	1	UNK0	0.000	
41	   H	3.657	-3.435	-1.495	 H	1	UNK0	0.000	
42	   H	4.662	-1.284	-0.939	 H	1	UNK0	0.000	
43	   H	3.051	-0.566	-0.587	 H	1	UNK0	0.000	
44	   H	4.858	-1.719	1.281	 H	1	UNK0	0.000	
45	   H	3.139	-1.427	1.641	 H	1	UNK0	0.000	
46	   H	4.281	-4.032	0.478	 H	1	UNK0	0.000	
47	   H	3.589	-3.717	2.084	 H	1	UNK0	0.000	
48	   H	1.439	-3.350	1.354	 H	1	UNK0	0.000	
49	   H	2.055	-4.800	0.357	 H	1	UNK0	0.000	
50	   H	-0.401	-4.895	2.948	 H	1	UNK0	0.000	
51	   H	-1.985	-5.657	2.661	 H	1	UNK0	0.000	
@<TRIPOS>BOND
1 1 2 1
2 2 3 2
3 2 7 1
4 3 4 1
5 4 5 2
6 4 9 1
7 5 6 1
8 5 8 1
9 6 7 2
10 9 10 2
11 10 11 1
12 11 12 1
13 12 13 2
14 12 14 1
15 14 15 1
16 14 18 2
17 15 16 2
18 16 17 1
19 17 18 1
20 17 26 1
21 18 19 1
22 19 20 1
23 20 21 1
24 20 25 1
25 21 22 1
26 22 23 1
27 23 24 1
28 24 25 1
29 26 27 2
30 26 30 1
31 27 28 1
32 28 29 1
33 29 30 2
34 30 31 1
35 3 32 1
36 6 33 1
37 7 34 1
38 8 35 1
39 9 36 1
40 11 37 1
41 19 38 1
42 19 39 1
43 21 40 1
44 21 41 1
45 22 42 1
46 22 43 1
47 23 44 1
48 23 45 1
49 24 46 1
50 24 47 1
51 25 48 1
52 25 49 1
53 31 50 1
54 31 51 1
@<TRIPOS>SUBSTRUCTURE
1	UNK0	1	GROUP	1 ****	UNK
