# created with PyMOL 2.3.2
@<TRIPOS>MOLECULE
1861
61 64 1                 
SMALL
USER_CHARGES
@<TRIPOS>ATOM
1	  Cl	2.604	-1.403	-8.128	Cl	1	UNK0	0.000	
2	   C	1.642	-2.306	-7.025	C.2	1	UNK0	0.000	
3	   C	0.592	-1.612	-6.272	C.2	1	UNK0	0.000	
4	   C	-0.184	-2.285	-5.402	C.2	1	UNK0	0.000	
5	   C	0.026	-3.656	-5.209	C.2	1	UNK0	0.000	
6	   C	0.998	-4.344	-5.880	C.2	1	UNK0	0.000	
7	   C	1.792	-3.677	-6.776	C.2	1	UNK0	0.000	
8	   C	-1.251	-1.557	-4.589	C.3	1	UNK0	0.000	
9	   N	-0.758	-0.765	-3.634	N.pl3	1	UNK0	0.000	
10	   C	-0.226	0.095	-2.606	C.2	1	UNK0	0.000	
11	   O	-0.042	1.262	-2.766	O.2	1	UNK0	0.000	
12	   C	0.104	-0.620	-1.282	C.3	1	UNK0	0.000	
13	   C	1.386	-0.306	-0.650	C.3	1	UNK0	0.000	
14	   C	1.800	1.051	-0.331	C.2	1	UNK0	0.000	
15	   O	2.034	1.825	-1.355	O.2	1	UNK0	0.000	
16	   N	1.997	1.635	0.918	N.pl3	1	UNK0	0.000	
17	   C	2.576	2.974	1.027	C.3	1	UNK0	0.000	
18	   C	2.532	3.448	2.458	C.3	1	UNK0	0.000	
19	   C	1.151	3.260	2.907	C.2	1	UNK0	0.000	
20	   N	0.170	4.001	3.454	N.pl3	1	UNK0	0.000	
21	   N	-0.879	3.282	3.656	N.2	1	UNK0	0.000	
22	   C	-0.659	1.975	3.241	C.2	1	UNK0	0.000	
23	   C	0.622	1.988	2.775	C.2	1	UNK0	0.000	
24	   C	1.620	1.005	2.199	C.3	1	UNK0	0.000	
25	   C	-1.540	0.866	3.281	C.2	1	UNK0	0.000	
26	   O	-0.944	-0.241	2.708	O.2	1	UNK0	0.000	
27	   N	-2.795	0.539	3.688	N.pl3	1	UNK0	0.000	
28	   C	-3.407	-0.794	3.474	C.3	1	UNK0	0.000	
29	   C	-4.673	-0.541	2.674	C.3	1	UNK0	0.000	
30	   O	-5.466	0.467	3.155	O.3	1	UNK0	0.000	
31	   C	-4.877	1.621	3.569	C.3	1	UNK0	0.000	
32	   C	-3.705	1.404	4.473	C.3	1	UNK0	0.000	
33	   C	0.382	5.443	3.688	C.3	1	UNK0	0.000	
34	   H	0.503	-0.569	-6.483	 H	1	UNK0	0.000	
35	   H	-0.639	-4.174	-4.514	 H	1	UNK0	0.000	
36	   H	1.186	-5.399	-5.766	 H	1	UNK0	0.000	
37	   H	2.593	-4.190	-7.350	 H	1	UNK0	0.000	
38	   H	-1.997	-2.345	-4.216	 H	1	UNK0	0.000	
39	   H	-1.890	-1.036	-5.368	 H	1	UNK0	0.000	
40	   H	0.122	-0.195	-4.461	 H	1	UNK0	0.000	
41	   H	-0.690	-0.296	-0.512	 H	1	UNK0	0.000	
42	   H	-0.039	-1.709	-1.415	 H	1	UNK0	0.000	
43	   H	1.304	-0.802	0.405	 H	1	UNK0	0.000	
44	   H	2.264	-0.863	-1.094	 H	1	UNK0	0.000	
45	   H	3.642	2.894	0.655	 H	1	UNK0	0.000	
46	   H	2.025	3.681	0.412	 H	1	UNK0	0.000	
47	   H	2.873	4.471	2.542	 H	1	UNK0	0.000	
48	   H	3.239	2.791	3.034	 H	1	UNK0	0.000	
49	   H	1.237	-0.005	2.126	 H	1	UNK0	0.000	
50	   H	2.529	1.010	2.879	 H	1	UNK0	0.000	
51	   H	-3.701	-1.163	4.492	 H	1	UNK0	0.000	
52	   H	-2.743	-1.471	2.928	 H	1	UNK0	0.000	
53	   H	-5.280	-1.495	2.806	 H	1	UNK0	0.000	
54	   H	-4.424	-0.514	1.622	 H	1	UNK0	0.000	
55	   H	-4.481	2.210	2.688	 H	1	UNK0	0.000	
56	   H	-5.700	2.193	4.111	 H	1	UNK0	0.000	
57	   H	-3.195	2.343	4.789	 H	1	UNK0	0.000	
58	   H	-3.996	0.752	5.356	 H	1	UNK0	0.000	
59	   H	0.912	5.852	2.774	 H	1	UNK0	0.000	
60	   H	1.089	5.613	4.528	 H	1	UNK0	0.000	
61	   H	-0.545	5.948	3.869	 H	1	UNK0	0.000	
@<TRIPOS>BOND
1 1 2 1
2 2 3 2
3 2 7 1
4 3 4 1
5 4 5 2
6 4 8 1
7 5 6 1
8 6 7 2
9 8 9 1
10 9 10 1
11 10 11 2
12 10 12 1
13 12 13 1
14 13 14 1
15 14 15 2
16 14 16 1
17 16 17 1
18 16 24 1
19 17 18 1
20 18 19 1
21 19 20 1
22 19 23 2
23 20 21 1
24 20 33 1
25 21 22 2
26 22 23 1
27 22 25 1
28 23 24 1
29 25 26 2
30 25 27 1
31 27 28 1
32 27 32 1
33 28 29 1
34 29 30 1
35 30 31 1
36 31 32 1
37 3 34 1
38 5 35 1
39 6 36 1
40 7 37 1
41 8 38 1
42 8 39 1
43 9 40 1
44 12 41 1
45 12 42 1
46 13 43 1
47 13 44 1
48 17 45 1
49 17 46 1
50 18 47 1
51 18 48 1
52 24 49 1
53 24 50 1
54 28 51 1
55 28 52 1
56 29 53 1
57 29 54 1
58 31 55 1
59 31 56 1
60 32 57 1
61 32 58 1
62 33 59 1
63 33 60 1
64 33 61 1
@<TRIPOS>SUBSTRUCTURE
1	UNK0	1	GROUP	1 ****	UNK
