# created with PyMOL 2.3.2
@<TRIPOS>MOLECULE
1862
60 63 1                 
SMALL
USER_CHARGES
@<TRIPOS>ATOM
1	  Cl	-3.567	0.778	-5.049	Cl	1	UNK0	0.000	
2	   C	-3.488	1.477	-3.436	C.2	1	UNK0	0.000	
3	   C	-3.561	0.701	-2.292	C.2	1	UNK0	0.000	
4	   C	-3.480	1.333	-1.090	C.2	1	UNK0	0.000	
5	   C	-3.333	2.700	-1.037	C.2	1	UNK0	0.000	
6	   C	-3.260	3.467	-2.166	C.2	1	UNK0	0.000	
7	   C	-3.336	2.866	-3.382	C.2	1	UNK0	0.000	
8	   C	-3.424	0.571	0.195	C.3	1	UNK0	0.000	
9	   N	-2.953	-0.784	-0.064	N.3	1	UNK0	0.000	
10	   C	-1.496	-0.788	-0.164	C.3	1	UNK0	0.000	
11	   C	-0.788	-0.539	1.040	C.3	1	UNK0	0.000	
12	   O	-0.846	-1.348	2.144	O.3	1	UNK0	0.000	
13	   C	0.016	-0.780	3.076	C.3	1	UNK0	0.000	
14	   C	0.880	0.245	2.326	C.3	1	UNK0	0.000	
15	   C	0.697	-0.256	0.909	C.3	1	UNK0	0.000	
16	   N	1.497	-1.240	0.423	N.3	1	UNK0	0.000	
17	   C	2.842	-0.932	0.126	C.3	1	UNK0	0.000	
18	   C	3.353	-1.717	-1.099	C.3	1	UNK0	0.000	
19	   N	2.192	-2.034	-1.894	N.pl3	1	UNK0	0.000	
20	   C	1.262	-2.973	-1.271	C.3	1	UNK0	0.000	
21	   C	1.123	-2.572	0.205	C.3	1	UNK0	0.000	
22	   C	2.038	-1.459	-3.164	C.2	1	UNK0	0.000	
23	   C	0.986	-0.605	-3.447	C.2	1	UNK0	0.000	
24	   C	0.830	-0.059	-4.672	C.2	1	UNK0	0.000	
25	   C	1.698	-0.311	-5.707	C.2	1	UNK0	0.000	
26	   C	2.761	-1.162	-5.457	C.2	1	UNK0	0.000	
27	   C	2.902	-1.710	-4.203	C.2	1	UNK0	0.000	
28	   O	2.143	0.313	2.792	O.3	1	UNK0	0.000	
29	   C	0.980	-1.712	3.722	C.3	1	UNK0	0.000	
30	   O	0.428	-2.744	4.445	O.3	1	UNK0	0.000	
31	   H	-3.676	-0.358	-2.366	 H	1	UNK0	0.000	
32	   H	-3.279	3.156	-0.070	 H	1	UNK0	0.000	
33	   H	-3.139	4.556	-2.054	 H	1	UNK0	0.000	
34	   H	-3.272	3.456	-4.291	 H	1	UNK0	0.000	
35	   H	-4.491	0.503	0.559	 H	1	UNK0	0.000	
36	   H	-2.851	1.057	0.941	 H	1	UNK0	0.000	
37	   H	-3.294	-1.413	0.695	 H	1	UNK0	0.000	
38	   H	-1.260	-1.671	-0.796	 H	1	UNK0	0.000	
39	   H	-1.226	0.077	-0.897	 H	1	UNK0	0.000	
40	   H	-1.164	0.474	1.458	 H	1	UNK0	0.000	
41	   H	-0.636	-0.303	3.835	 H	1	UNK0	0.000	
42	   H	0.345	1.241	2.410	 H	1	UNK0	0.000	
43	   H	0.743	0.662	0.273	 H	1	UNK0	0.000	
44	   H	3.592	-1.138	0.917	 H	1	UNK0	0.000	
45	   H	2.980	0.140	-0.161	 H	1	UNK0	0.000	
46	   H	4.161	-1.207	-1.620	 H	1	UNK0	0.000	
47	   H	3.732	-2.697	-0.674	 H	1	UNK0	0.000	
48	   H	0.322	-3.075	-1.801	 H	1	UNK0	0.000	
49	   H	1.748	-3.994	-1.344	 H	1	UNK0	0.000	
50	   H	0.172	-2.932	0.552	 H	1	UNK0	0.000	
51	   H	1.891	-3.214	0.740	 H	1	UNK0	0.000	
52	   H	0.286	-0.391	-2.649	 H	1	UNK0	0.000	
53	   H	-0.013	0.618	-4.861	 H	1	UNK0	0.000	
54	   H	1.620	0.105	-6.703	 H	1	UNK0	0.000	
55	   H	3.449	-1.368	-6.263	 H	1	UNK0	0.000	
56	   H	3.735	-2.372	-4.030	 H	1	UNK0	0.000	
57	   H	2.567	1.207	2.603	 H	1	UNK0	0.000	
58	   H	1.605	-1.103	4.437	 H	1	UNK0	0.000	
59	   H	1.753	-2.084	2.984	 H	1	UNK0	0.000	
60	   H	0.663	-3.597	4.007	 H	1	UNK0	0.000	
@<TRIPOS>BOND
1 1 2 1
2 2 3 2
3 2 7 1
4 3 4 1
5 4 5 2
6 4 8 1
7 5 6 1
8 6 7 2
9 8 9 1
10 9 10 1
11 10 11 1
12 11 12 1
13 11 15 1
14 12 13 1
15 13 14 1
16 13 29 1
17 14 15 1
18 14 28 1
19 15 16 1
20 16 17 1
21 16 21 1
22 17 18 1
23 18 19 1
24 19 20 1
25 19 22 1
26 20 21 1
27 22 23 2
28 22 27 1
29 23 24 1
30 24 25 2
31 25 26 1
32 26 27 2
33 29 30 1
34 3 31 1
35 5 32 1
36 6 33 1
37 7 34 1
38 8 35 1
39 8 36 1
40 9 37 1
41 10 38 1
42 10 39 1
43 11 40 1
44 13 41 1
45 14 42 1
46 15 43 1
47 17 44 1
48 17 45 1
49 18 46 1
50 18 47 1
51 20 48 1
52 20 49 1
53 21 50 1
54 21 51 1
55 23 52 1
56 24 53 1
57 25 54 1
58 26 55 1
59 27 56 1
60 28 57 1
61 29 58 1
62 29 59 1
63 30 60 1
@<TRIPOS>SUBSTRUCTURE
1	UNK0	1	GROUP	1 ****	UNK
