# created with PyMOL 2.3.2
@<TRIPOS>MOLECULE
1864
57 60 1                 
SMALL
USER_CHARGES
@<TRIPOS>ATOM
1	  Cl	-4.765	-1.847	4.284	Cl	1	UNK0	0.000	
2	   C	-3.809	-2.201	2.859	C.2	1	UNK0	0.000	
3	   C	-2.481	-2.549	2.975	C.2	1	UNK0	0.000	
4	   C	-1.676	-2.842	1.865	C.2	1	UNK0	0.000	
5	   C	-2.312	-2.755	0.656	C.2	1	UNK0	0.000	
6	   C	-3.662	-2.405	0.515	C.2	1	UNK0	0.000	
7	   C	-4.417	-2.124	1.635	C.2	1	UNK0	0.000	
8	   C	-0.262	-3.196	2.079	C.3	1	UNK0	0.000	
9	   N	0.706	-2.551	1.264	N.pl3	1	UNK0	0.000	
10	   C	1.115	-3.125	0.073	C.2	1	UNK0	0.000	
11	   C	2.067	-2.321	-0.505	C.2	1	UNK0	0.000	
12	   N	2.220	-1.306	0.314	N.2	1	UNK0	0.000	
13	   C	1.389	-1.413	1.427	C.2	1	UNK0	0.000	
14	   N	1.347	-0.430	2.420	N.pl3	1	UNK0	0.000	
15	   C	2.471	0.528	2.497	C.3	1	UNK0	0.000	
16	   C	1.829	1.877	2.721	C.3	1	UNK0	0.000	
17	   N	0.489	1.965	2.250	N.3	1	UNK0	0.000	
18	   C	-0.436	1.033	2.815	C.3	1	UNK0	0.000	
19	   C	0.337	-0.172	3.357	C.3	1	UNK0	0.000	
20	   C	0.333	2.190	0.851	C.3	1	UNK0	0.000	
21	   C	0.799	3.551	0.493	C.2	1	UNK0	0.000	
22	   O	1.174	4.337	1.404	O.co2	1	UNK0	0.000	
23	   O	0.855	4.037	-0.794	O.3	1	UNK0	0.000	
24	   C	1.322	5.364	-1.060	C.3	1	UNK0	0.000	
25	   C	2.756	5.457	-0.570	C.3	1	UNK0	0.000	
26	   N	2.646	-2.659	-1.696	N.pl3	1	UNK0	0.000	
27	   C	2.299	-3.769	-2.314	C.2	1	UNK0	0.000	
28	   O	2.848	-4.055	-3.408	O.2	1	UNK0	0.000	
29	   N	1.385	-4.582	-1.797	N.pl3	1	UNK0	0.000	
30	   C	0.787	-4.274	-0.608	C.2	1	UNK0	0.000	
31	   O	-0.075	-5.055	-0.131	O.2	1	UNK0	0.000	
32	   C	3.643	-1.745	-2.218	C.3	1	UNK0	0.000	
33	   H	-1.986	-2.620	3.944	 H	1	UNK0	0.000	
34	   H	-1.738	-2.955	-0.237	 H	1	UNK0	0.000	
35	   H	-4.116	-2.354	-0.472	 H	1	UNK0	0.000	
36	   H	-5.449	-1.860	1.473	 H	1	UNK0	0.000	
37	   H	0.034	-3.099	3.165	 H	1	UNK0	0.000	
38	   H	-0.234	-4.330	1.957	 H	1	UNK0	0.000	
39	   H	3.135	0.464	1.640	 H	1	UNK0	0.000	
40	   H	3.006	0.258	3.434	 H	1	UNK0	0.000	
41	   H	1.838	2.179	3.789	 H	1	UNK0	0.000	
42	   H	2.454	2.599	2.159	 H	1	UNK0	0.000	
43	   H	-1.011	1.450	3.655	 H	1	UNK0	0.000	
44	   H	-1.123	0.632	2.039	 H	1	UNK0	0.000	
45	   H	0.776	0.262	4.338	 H	1	UNK0	0.000	
46	   H	-0.308	-0.951	3.710	 H	1	UNK0	0.000	
47	   H	0.777	1.429	0.206	 H	1	UNK0	0.000	
48	   H	-0.767	2.185	0.611	 H	1	UNK0	0.000	
49	   H	0.689	6.137	-0.577	 H	1	UNK0	0.000	
50	   H	1.304	5.572	-2.148	 H	1	UNK0	0.000	
51	   H	2.821	5.799	0.468	 H	1	UNK0	0.000	
52	   H	3.233	4.442	-0.666	 H	1	UNK0	0.000	
53	   H	3.347	6.151	-1.190	 H	1	UNK0	0.000	
54	   H	1.076	-5.473	-2.252	 H	1	UNK0	0.000	
55	   H	3.097	-0.856	-2.610	 H	1	UNK0	0.000	
56	   H	4.381	-1.433	-1.451	 H	1	UNK0	0.000	
57	   H	4.240	-2.241	-3.025	 H	1	UNK0	0.000	
@<TRIPOS>BOND
1 1 2 1
2 2 3 2
3 2 7 1
4 3 4 1
5 4 5 2
6 4 8 1
7 5 6 1
8 6 7 2
9 8 9 1
10 9 10 1
11 9 13 1
12 10 11 2
13 10 30 1
14 11 12 1
15 11 26 1
16 12 13 2
17 13 14 1
18 14 15 1
19 14 19 1
20 15 16 1
21 16 17 1
22 17 18 1
23 17 20 1
24 18 19 1
25 20 21 1
26 21 22 2
27 21 23 1
28 23 24 1
29 24 25 1
30 26 27 1
31 26 32 1
32 27 28 2
33 27 29 1
34 29 30 1
35 30 31 2
36 3 33 1
37 5 34 1
38 6 35 1
39 7 36 1
40 8 37 1
41 8 38 1
42 15 39 1
43 15 40 1
44 16 41 1
45 16 42 1
46 18 43 1
47 18 44 1
48 19 45 1
49 19 46 1
50 20 47 1
51 20 48 1
52 24 49 1
53 24 50 1
54 25 51 1
55 25 52 1
56 25 53 1
57 29 54 1
58 32 55 1
59 32 56 1
60 32 57 1
@<TRIPOS>SUBSTRUCTURE
1	UNK0	1	GROUP	1 ****	UNK
