# created with PyMOL 2.3.2
@<TRIPOS>MOLECULE
1865
46 49 1                 
SMALL
USER_CHARGES
@<TRIPOS>ATOM
1	  Cl	-6.172	2.742	2.102	Cl	1	UNK0	0.000	
2	   C	-4.594	2.000	2.276	C.2	1	UNK0	0.000	
3	   C	-4.136	1.008	1.434	C.2	1	UNK0	0.000	
4	   C	-2.898	0.422	1.566	C.2	1	UNK0	0.000	
5	   C	-2.060	0.828	2.579	C.2	1	UNK0	0.000	
6	   C	-2.503	1.822	3.434	C.2	1	UNK0	0.000	
7	   C	-3.747	2.401	3.290	C.2	1	UNK0	0.000	
8	   C	-2.444	-0.638	0.641	C.3	1	UNK0	0.000	
9	   N	-1.749	-0.115	-0.512	N.pl3	1	UNK0	0.000	
10	   C	-2.300	0.275	-1.779	C.2	1	UNK0	0.000	
11	   O	-3.537	0.214	-2.083	O.2	1	UNK0	0.000	
12	   N	-1.247	0.735	-2.622	N.pl3	1	UNK0	0.000	
13	   C	-0.035	0.165	-2.077	C.3	1	UNK0	0.000	
14	   C	0.026	-1.276	-2.548	C.3	1	UNK0	0.000	
15	   C	1.028	-1.976	-1.637	C.3	1	UNK0	0.000	
16	   N	2.240	-1.186	-1.532	N.pl3	1	UNK0	0.000	
17	   C	2.397	-0.009	-2.345	C.3	1	UNK0	0.000	
18	   C	1.200	0.881	-2.421	C.3	1	UNK0	0.000	
19	   C	3.264	-1.582	-0.633	C.2	1	UNK0	0.000	
20	   O	4.323	-0.882	-0.542	O.2	1	UNK0	0.000	
21	   C	3.180	-2.763	0.209	C.2	1	UNK0	0.000	
22	   N	2.113	-3.586	0.203	N.2	1	UNK0	0.000	
23	   C	2.102	-4.662	1.009	C.2	1	UNK0	0.000	
24	   C	3.149	-4.965	1.853	C.2	1	UNK0	0.000	
25	   N	4.213	-4.148	1.862	N.2	1	UNK0	0.000	
26	   C	4.229	-3.058	1.048	C.2	1	UNK0	0.000	
27	   C	-0.349	0.125	-0.627	C.2	1	UNK0	0.000	
28	   O	0.412	0.265	0.368	O.2	1	UNK0	0.000	
29	   H	-4.811	0.704	0.643	 H	1	UNK0	0.000	
30	   H	-1.065	0.404	2.739	 H	1	UNK0	0.000	
31	   H	-1.831	2.138	4.236	 H	1	UNK0	0.000	
32	   H	-4.094	3.179	3.960	 H	1	UNK0	0.000	
33	   H	-1.848	-1.358	1.220	 H	1	UNK0	0.000	
34	   H	-3.329	-1.218	0.252	 H	1	UNK0	0.000	
35	   H	-1.328	1.349	-3.454	 H	1	UNK0	0.000	
36	   H	-0.990	-1.695	-2.395	 H	1	UNK0	0.000	
37	   H	0.338	-1.330	-3.609	 H	1	UNK0	0.000	
38	   H	1.281	-2.967	-2.003	 H	1	UNK0	0.000	
39	   H	0.524	-2.076	-0.656	 H	1	UNK0	0.000	
40	   H	2.741	-0.360	-3.343	 H	1	UNK0	0.000	
41	   H	3.241	0.632	-1.957	 H	1	UNK0	0.000	
42	   H	1.115	1.190	-3.507	 H	1	UNK0	0.000	
43	   H	1.343	1.847	-1.890	 H	1	UNK0	0.000	
44	   H	1.241	-5.336	1.012	 H	1	UNK0	0.000	
45	   H	3.082	-5.843	2.477	 H	1	UNK0	0.000	
46	   H	5.121	-2.414	1.086	 H	1	UNK0	0.000	
@<TRIPOS>BOND
1 1 2 1
2 2 3 2
3 2 7 1
4 3 4 1
5 4 5 2
6 4 8 1
7 5 6 1
8 6 7 2
9 8 9 1
10 9 10 1
11 9 27 1
12 10 11 2
13 10 12 1
14 12 13 1
15 13 14 1
16 13 18 1
17 13 27 1
18 14 15 1
19 15 16 1
20 16 17 1
21 16 19 1
22 17 18 1
23 19 20 2
24 19 21 1
25 21 22 2
26 21 26 1
27 22 23 1
28 23 24 2
29 24 25 1
30 25 26 2
31 27 28 2
32 3 29 1
33 5 30 1
34 6 31 1
35 7 32 1
36 8 33 1
37 8 34 1
38 12 35 1
39 14 36 1
40 14 37 1
41 15 38 1
42 15 39 1
43 17 40 1
44 17 41 1
45 18 42 1
46 18 43 1
47 23 44 1
48 24 45 1
49 26 46 1
@<TRIPOS>SUBSTRUCTURE
1	UNK0	1	GROUP	1 ****	UNK
