# created with PyMOL 2.3.2
@<TRIPOS>MOLECULE
1866
55 58 1                 
SMALL
USER_CHARGES
@<TRIPOS>ATOM
1	  Cl	-2.876	5.228	2.555	Cl	1	UNK0	0.000	
2	   C	-2.901	4.003	1.308	C.2	1	UNK0	0.000	
3	   C	-2.718	2.680	1.611	C.2	1	UNK0	0.000	
4	   C	-2.730	1.697	0.640	C.2	1	UNK0	0.000	
5	   C	-2.927	1.993	-0.685	C.2	1	UNK0	0.000	
6	   C	-3.113	3.353	-0.977	C.2	1	UNK0	0.000	
7	   C	-3.100	4.321	-0.008	C.2	1	UNK0	0.000	
8	   C	-2.951	1.018	-1.750	C.2	1	UNK0	0.000	
9	   O	-3.106	1.562	-2.933	O.2	1	UNK0	0.000	
10	   N	-2.847	-0.356	-1.790	N.pl3	1	UNK0	0.000	
11	   C	-2.688	-1.352	-0.763	C.3	1	UNK0	0.000	
12	   C	-1.251	-1.814	-0.738	C.3	1	UNK0	0.000	
13	   C	-0.673	-1.554	-2.101	C.3	1	UNK0	0.000	
14	   C	-1.709	-1.972	-3.122	C.3	1	UNK0	0.000	
15	   C	-2.880	-1.018	-3.154	C.3	1	UNK0	0.000	
16	   O	0.452	-2.374	-2.332	O.3	1	UNK0	0.000	
17	   O	-1.152	-3.197	-0.508	O.3	1	UNK0	0.000	
18	   C	-0.430	-1.157	0.372	C.3	1	UNK0	0.000	
19	   N	-0.927	-1.474	1.651	N.3	1	UNK0	0.000	
20	   C	-0.357	-0.899	2.789	C.3	1	UNK0	0.000	
21	   C	0.971	-1.313	3.276	C.3	1	UNK0	0.000	
22	   C	2.105	-1.139	2.381	C.2	1	UNK0	0.000	
23	   C	2.675	0.128	2.253	C.2	1	UNK0	0.000	
24	   C	3.788	0.302	1.475	C.2	1	UNK0	0.000	
25	   C	4.356	-0.747	0.818	C.2	1	UNK0	0.000	
26	   C	3.806	-2.004	0.933	C.2	1	UNK0	0.000	
27	   C	2.688	-2.187	1.712	C.2	1	UNK0	0.000	
28	   O	5.466	-0.242	0.122	O.3	1	UNK0	0.000	
29	   C	5.613	1.128	0.408	C.3	1	UNK0	0.000	
30	   O	4.503	1.468	1.218	O.3	1	UNK0	0.000	
31	   H	-2.557	2.441	2.664	 H	1	UNK0	0.000	
32	   H	-2.568	0.702	0.973	 H	1	UNK0	0.000	
33	   H	-3.273	3.625	-2.029	 H	1	UNK0	0.000	
34	   H	-3.249	5.369	-0.268	 H	1	UNK0	0.000	
35	   H	-3.160	-1.182	0.189	 H	1	UNK0	0.000	
36	   H	-3.246	-2.304	-1.148	 H	1	UNK0	0.000	
37	   H	-0.351	-0.525	-2.270	 H	1	UNK0	0.000	
38	   H	-1.264	-2.096	-4.126	 H	1	UNK0	0.000	
39	   H	-2.090	-2.974	-2.768	 H	1	UNK0	0.000	
40	   H	-3.843	-1.566	-3.146	 H	1	UNK0	0.000	
41	   H	-2.822	-0.264	-3.935	 H	1	UNK0	0.000	
42	   H	0.910	-1.993	-3.126	 H	1	UNK0	0.000	
43	   H	-1.146	-3.349	0.480	 H	1	UNK0	0.000	
44	   H	0.600	-1.500	0.190	 H	1	UNK0	0.000	
45	   H	-0.455	-0.031	0.244	 H	1	UNK0	0.000	
46	   H	-1.950	-1.608	1.730	 H	1	UNK0	0.000	
47	   H	-0.391	0.262	2.709	 H	1	UNK0	0.000	
48	   H	-1.051	-1.026	3.710	 H	1	UNK0	0.000	
49	   H	0.872	-2.406	3.604	 H	1	UNK0	0.000	
50	   H	1.219	-0.788	4.249	 H	1	UNK0	0.000	
51	   H	2.204	0.941	2.784	 H	1	UNK0	0.000	
52	   H	4.254	-2.831	0.413	 H	1	UNK0	0.000	
53	   H	2.257	-3.170	1.803	 H	1	UNK0	0.000	
54	   H	6.559	1.268	0.982	 H	1	UNK0	0.000	
55	   H	5.605	1.743	-0.511	 H	1	UNK0	0.000	
@<TRIPOS>BOND
1 1 2 1
2 2 3 2
3 2 7 1
4 3 4 1
5 4 5 2
6 5 6 1
7 5 8 1
8 6 7 2
9 8 9 2
10 8 10 1
11 10 11 1
12 10 15 1
13 11 12 1
14 12 13 1
15 12 17 1
16 12 18 1
17 13 14 1
18 13 16 1
19 14 15 1
20 18 19 1
21 19 20 1
22 20 21 1
23 21 22 1
24 22 23 2
25 22 27 1
26 23 24 1
27 24 25 2
28 24 30 1
29 25 26 1
30 25 28 1
31 26 27 2
32 28 29 1
33 29 30 1
34 3 31 1
35 4 32 1
36 6 33 1
37 7 34 1
38 11 35 1
39 11 36 1
40 13 37 1
41 14 38 1
42 14 39 1
43 15 40 1
44 15 41 1
45 16 42 1
46 17 43 1
47 18 44 1
48 18 45 1
49 19 46 1
50 20 47 1
51 20 48 1
52 21 49 1
53 21 50 1
54 23 51 1
55 26 52 1
56 27 53 1
57 29 54 1
58 29 55 1
@<TRIPOS>SUBSTRUCTURE
1	UNK0	1	GROUP	1 ****	UNK
