# created with PyMOL 2.3.2
@<TRIPOS>MOLECULE
1867
55 58 1                 
SMALL
USER_CHARGES
@<TRIPOS>ATOM
1	  Cl	6.462	2.446	-2.614	Cl	1	UNK0	0.000	
2	   C	5.498	1.796	-1.295	C.2	1	UNK0	0.000	
3	   C	4.181	2.129	-1.233	C.2	1	UNK0	0.000	
4	   C	3.395	1.630	-0.204	C.2	1	UNK0	0.000	
5	   C	3.861	0.799	0.790	C.2	1	UNK0	0.000	
6	   C	5.233	0.492	0.671	C.2	1	UNK0	0.000	
7	   C	6.021	0.976	-0.338	C.2	1	UNK0	0.000	
8	   C	3.109	0.228	1.859	C.2	1	UNK0	0.000	
9	   O	3.823	-0.437	2.723	O.2	1	UNK0	0.000	
10	   N	1.749	0.244	2.162	N.pl3	1	UNK0	0.000	
11	   C	1.243	-0.418	3.383	C.3	1	UNK0	0.000	
12	   C	0.218	-1.476	3.132	C.3	1	UNK0	0.000	
13	   C	-0.538	-1.144	1.870	C.3	1	UNK0	0.000	
14	   C	-0.638	0.369	1.836	C.3	1	UNK0	0.000	
15	   C	0.729	0.853	1.357	C.3	1	UNK0	0.000	
16	   O	0.283	-1.621	0.844	O.3	1	UNK0	0.000	
17	   C	-1.868	-1.774	1.768	C.3	1	UNK0	0.000	
18	   N	-2.507	-1.469	0.528	N.3	1	UNK0	0.000	
19	   C	-1.977	-2.024	-0.658	C.3	1	UNK0	0.000	
20	   C	-2.892	-1.579	-1.810	C.3	1	UNK0	0.000	
21	   C	-2.890	-0.095	-1.865	C.2	1	UNK0	0.000	
22	   C	-1.951	0.554	-2.635	C.2	1	UNK0	0.000	
23	   C	-1.937	1.927	-2.702	C.2	1	UNK0	0.000	
24	   C	-2.888	2.645	-1.977	C.2	1	UNK0	0.000	
25	   C	-3.824	1.986	-1.208	C.2	1	UNK0	0.000	
26	   C	-3.836	0.616	-1.144	C.2	1	UNK0	0.000	
27	   O	-2.686	4.016	-2.191	O.3	1	UNK0	0.000	
28	   C	-1.330	4.116	-2.645	C.3	1	UNK0	0.000	
29	   O	-1.168	2.892	-3.351	O.3	1	UNK0	0.000	
30	   O	0.775	-2.754	3.088	O.3	1	UNK0	0.000	
31	   H	3.724	2.773	-1.967	 H	1	UNK0	0.000	
32	   H	2.378	1.945	-0.209	 H	1	UNK0	0.000	
33	   H	5.725	-0.155	1.387	 H	1	UNK0	0.000	
34	   H	7.074	0.727	-0.409	 H	1	UNK0	0.000	
35	   H	0.822	0.400	4.003	 H	1	UNK0	0.000	
36	   H	2.119	-0.825	3.962	 H	1	UNK0	0.000	
37	   H	-0.564	-1.489	3.952	 H	1	UNK0	0.000	
38	   H	-1.459	0.751	1.239	 H	1	UNK0	0.000	
39	   H	-0.775	0.717	2.868	 H	1	UNK0	0.000	
40	   H	0.755	0.523	0.294	 H	1	UNK0	0.000	
41	   H	0.783	1.950	1.458	 H	1	UNK0	0.000	
42	   H	0.760	-2.440	1.128	 H	1	UNK0	0.000	
43	   H	-1.735	-2.896	1.784	 H	1	UNK0	0.000	
44	   H	-2.562	-1.503	2.597	 H	1	UNK0	0.000	
45	   H	-3.526	-1.747	0.577	 H	1	UNK0	0.000	
46	   H	-1.968	-3.136	-0.687	 H	1	UNK0	0.000	
47	   H	-0.988	-1.689	-0.987	 H	1	UNK0	0.000	
48	   H	-3.918	-1.958	-1.672	 H	1	UNK0	0.000	
49	   H	-2.406	-1.943	-2.742	 H	1	UNK0	0.000	
50	   H	-1.190	0.011	-3.217	 H	1	UNK0	0.000	
51	   H	-4.550	2.572	-0.656	 H	1	UNK0	0.000	
52	   H	-4.572	0.100	-0.539	 H	1	UNK0	0.000	
53	   H	-1.188	4.993	-3.314	 H	1	UNK0	0.000	
54	   H	-0.622	4.209	-1.816	 H	1	UNK0	0.000	
55	   H	0.781	-3.121	4.013	 H	1	UNK0	0.000	
@<TRIPOS>BOND
1 1 2 1
2 2 3 2
3 2 7 1
4 3 4 1
5 4 5 2
6 5 6 1
7 5 8 1
8 6 7 2
9 8 9 2
10 8 10 1
11 10 11 1
12 10 15 1
13 11 12 1
14 12 13 1
15 12 30 1
16 13 14 1
17 13 16 1
18 13 17 1
19 14 15 1
20 17 18 1
21 18 19 1
22 19 20 1
23 20 21 1
24 21 22 2
25 21 26 1
26 22 23 1
27 23 24 2
28 23 29 1
29 24 25 1
30 24 27 1
31 25 26 2
32 27 28 1
33 28 29 1
34 3 31 1
35 4 32 1
36 6 33 1
37 7 34 1
38 11 35 1
39 11 36 1
40 12 37 1
41 14 38 1
42 14 39 1
43 15 40 1
44 15 41 1
45 16 42 1
46 17 43 1
47 17 44 1
48 18 45 1
49 19 46 1
50 19 47 1
51 20 48 1
52 20 49 1
53 22 50 1
54 25 51 1
55 26 52 1
56 28 53 1
57 28 54 1
58 30 55 1
@<TRIPOS>SUBSTRUCTURE
1	UNK0	1	GROUP	1 ****	UNK
