# created with PyMOL 2.3.2
@<TRIPOS>MOLECULE
1868
44 47 1                 
SMALL
USER_CHARGES
@<TRIPOS>ATOM
1	  Cl	-2.883	0.804	-6.105	Cl	1	UNK0	0.000	
2	   C	-1.719	0.683	-4.802	C.2	1	UNK0	0.000	
3	   C	-2.119	0.847	-3.498	C.2	1	UNK0	0.000	
4	   C	-1.219	0.767	-2.436	C.2	1	UNK0	0.000	
5	   C	0.117	0.517	-2.695	C.2	1	UNK0	0.000	
6	   C	0.490	0.358	-3.997	C.2	1	UNK0	0.000	
7	   C	-0.388	0.433	-5.064	C.2	1	UNK0	0.000	
8	   C	1.143	0.447	-1.624	C.3	1	UNK0	0.000	
9	   N	0.593	0.733	-0.317	N.pl3	1	UNK0	0.000	
10	   C	0.461	2.004	0.120	C.2	1	UNK0	0.000	
11	   C	-0.044	1.892	1.395	C.2	1	UNK0	0.000	
12	   N	-0.198	0.592	1.676	N.2	1	UNK0	0.000	
13	   C	0.206	-0.157	0.588	C.2	1	UNK0	0.000	
14	   N	0.153	-1.562	0.553	N.pl3	1	UNK0	0.000	
15	   C	-1.100	-2.283	0.489	C.3	1	UNK0	0.000	
16	   C	-1.139	-3.311	1.637	C.3	1	UNK0	0.000	
17	   O	0.042	-4.024	1.675	O.3	1	UNK0	0.000	
18	   C	1.173	-3.248	1.854	C.3	1	UNK0	0.000	
19	   C	1.340	-2.368	0.601	C.3	1	UNK0	0.000	
20	   N	-0.298	3.024	2.102	N.pl3	1	UNK0	0.000	
21	   C	-0.079	4.251	1.611	C.2	1	UNK0	0.000	
22	   O	-0.334	5.259	2.308	O.2	1	UNK0	0.000	
23	   N	0.419	4.380	0.359	N.pl3	1	UNK0	0.000	
24	   C	0.681	3.275	-0.363	C.2	1	UNK0	0.000	
25	   O	1.139	3.401	-1.510	O.2	1	UNK0	0.000	
26	   C	-0.836	2.839	3.443	C.3	1	UNK0	0.000	
27	   H	-3.180	1.050	-3.279	 H	1	UNK0	0.000	
28	   H	-1.505	0.895	-1.405	 H	1	UNK0	0.000	
29	   H	1.534	0.162	-4.225	 H	1	UNK0	0.000	
30	   H	-0.072	0.304	-6.099	 H	1	UNK0	0.000	
31	   H	1.629	-0.566	-1.561	 H	1	UNK0	0.000	
32	   H	1.960	1.127	-1.924	 H	1	UNK0	0.000	
33	   H	-1.987	-1.660	0.554	 H	1	UNK0	0.000	
34	   H	-1.059	-2.904	-0.445	 H	1	UNK0	0.000	
35	   H	-1.356	-2.792	2.601	 H	1	UNK0	0.000	
36	   H	-1.976	-3.982	1.437	 H	1	UNK0	0.000	
37	   H	1.100	-2.576	2.753	 H	1	UNK0	0.000	
38	   H	2.033	-3.913	1.924	 H	1	UNK0	0.000	
39	   H	1.401	-3.082	-0.250	 H	1	UNK0	0.000	
40	   H	2.257	-1.766	0.693	 H	1	UNK0	0.000	
41	   H	0.574	5.344	0.009	 H	1	UNK0	0.000	
42	   H	-1.839	2.369	3.438	 H	1	UNK0	0.000	
43	   H	-0.968	3.855	3.889	 H	1	UNK0	0.000	
44	   H	-0.117	2.288	4.080	 H	1	UNK0	0.000	
@<TRIPOS>BOND
1 1 2 1
2 2 3 2
3 2 7 1
4 3 4 1
5 4 5 2
6 5 6 1
7 5 8 1
8 6 7 2
9 8 9 1
10 9 10 1
11 9 13 1
12 10 11 2
13 10 24 1
14 11 12 1
15 11 20 1
16 12 13 2
17 13 14 1
18 14 15 1
19 14 19 1
20 15 16 1
21 16 17 1
22 17 18 1
23 18 19 1
24 20 21 1
25 20 26 1
26 21 22 2
27 21 23 1
28 23 24 1
29 24 25 2
30 3 27 1
31 4 28 1
32 6 29 1
33 7 30 1
34 8 31 1
35 8 32 1
36 15 33 1
37 15 34 1
38 16 35 1
39 16 36 1
40 18 37 1
41 18 38 1
42 19 39 1
43 19 40 1
44 23 41 1
45 26 42 1
46 26 43 1
47 26 44 1
@<TRIPOS>SUBSTRUCTURE
1	UNK0	1	GROUP	1 ****	UNK
