# created with PyMOL 2.3.2
@<TRIPOS>MOLECULE
1869
52 55 1                 
SMALL
USER_CHARGES
@<TRIPOS>ATOM
1	  Cl	-0.205	5.473	-1.905	Cl	1	UNK0	0.000	
2	   C	0.006	4.732	-0.316	C.2	1	UNK0	0.000	
3	   C	-0.262	5.399	0.839	C.2	1	UNK0	0.000	
4	   C	-0.097	4.818	2.074	C.2	1	UNK0	0.000	
5	   C	0.356	3.522	2.111	C.2	1	UNK0	0.000	
6	   C	0.650	2.782	0.961	C.2	1	UNK0	0.000	
7	   C	0.465	3.415	-0.230	C.2	1	UNK0	0.000	
8	   N	1.112	1.457	1.038	N.pl3	1	UNK0	0.000	
9	   C	1.451	0.574	0.023	C.2	1	UNK0	0.000	
10	   O	1.383	0.872	-1.181	O.2	1	UNK0	0.000	
11	   C	1.935	-0.831	0.295	C.3	1	UNK0	0.000	
12	   N	0.801	-1.753	0.342	N.pl3	1	UNK0	0.000	
13	   N	0.263	-2.429	-0.658	N.2	1	UNK0	0.000	
14	   C	-0.773	-3.183	-0.240	C.2	1	UNK0	0.000	
15	   N	-0.889	-2.965	1.092	N.pl3	1	UNK0	0.000	
16	   C	-1.865	-3.613	1.751	C.2	1	UNK0	0.000	
17	   C	-2.748	-4.482	1.146	C.2	1	UNK0	0.000	
18	   N	-2.587	-4.662	-0.184	N.2	1	UNK0	0.000	
19	   C	-1.636	-4.048	-0.903	C.2	1	UNK0	0.000	
20	   N	-1.550	-4.301	-2.286	N.pl3	1	UNK0	0.000	
21	   C	-2.470	-5.227	-2.905	C.3	1	UNK0	0.000	
22	   C	-2.643	-4.971	-4.380	C.3	1	UNK0	0.000	
23	   O	-1.359	-5.007	-4.934	O.3	1	UNK0	0.000	
24	   C	-0.732	-3.822	-4.558	C.3	1	UNK0	0.000	
25	   C	-0.560	-3.649	-3.091	C.3	1	UNK0	0.000	
26	   C	0.079	-2.092	1.425	C.2	1	UNK0	0.000	
27	   O	0.279	-1.654	2.586	O.2	1	UNK0	0.000	
28	   O	0.529	2.921	3.344	O.3	1	UNK0	0.000	
29	   C	0.261	3.581	4.544	C.3	1	UNK0	0.000	
30	   O	-0.723	6.722	0.763	O.3	1	UNK0	0.000	
31	   C	-1.013	7.445	1.948	C.3	1	UNK0	0.000	
32	   H	-0.318	5.370	3.004	 H	1	UNK0	0.000	
33	   H	0.658	2.947	-1.184	 H	1	UNK0	0.000	
34	   H	1.216	1.074	2.033	 H	1	UNK0	0.000	
35	   H	2.491	-0.867	1.255	 H	1	UNK0	0.000	
36	   H	2.592	-1.181	-0.526	 H	1	UNK0	0.000	
37	   H	-1.963	-3.445	2.813	 H	1	UNK0	0.000	
38	   H	-3.533	-4.999	1.696	 H	1	UNK0	0.000	
39	   H	-1.995	-6.247	-2.822	 H	1	UNK0	0.000	
40	   H	-3.443	-5.275	-2.362	 H	1	UNK0	0.000	
41	   H	-3.131	-3.992	-4.572	 H	1	UNK0	0.000	
42	   H	-3.214	-5.810	-4.808	 H	1	UNK0	0.000	
43	   H	-1.262	-2.930	-4.967	 H	1	UNK0	0.000	
44	   H	0.284	-3.792	-5.034	 H	1	UNK0	0.000	
45	   H	0.428	-4.108	-2.807	 H	1	UNK0	0.000	
46	   H	-0.525	-2.538	-2.888	 H	1	UNK0	0.000	
47	   H	0.382	2.866	5.392	 H	1	UNK0	0.000	
48	   H	-0.808	3.920	4.608	 H	1	UNK0	0.000	
49	   H	0.883	4.481	4.637	 H	1	UNK0	0.000	
50	   H	-1.666	6.856	2.639	 H	1	UNK0	0.000	
51	   H	-0.100	7.714	2.498	 H	1	UNK0	0.000	
52	   H	-1.561	8.362	1.711	 H	1	UNK0	0.000	
@<TRIPOS>BOND
1 1 2 1
2 2 3 2
3 2 7 1
4 3 4 1
5 3 30 1
6 4 5 2
7 5 6 1
8 5 28 1
9 6 7 2
10 6 8 1
11 8 9 1
12 9 10 2
13 9 11 1
14 11 12 1
15 12 13 1
16 12 26 1
17 13 14 2
18 14 15 1
19 14 19 1
20 15 16 1
21 15 26 1
22 16 17 2
23 17 18 1
24 18 19 2
25 19 20 1
26 20 21 1
27 20 25 1
28 21 22 1
29 22 23 1
30 23 24 1
31 24 25 1
32 26 27 2
33 28 29 1
34 30 31 1
35 4 32 1
36 7 33 1
37 8 34 1
38 11 35 1
39 11 36 1
40 16 37 1
41 17 38 1
42 21 39 1
43 21 40 1
44 22 41 1
45 22 42 1
46 24 43 1
47 24 44 1
48 25 45 1
49 25 46 1
50 29 47 1
51 29 48 1
52 29 49 1
53 31 50 1
54 31 51 1
55 31 52 1
@<TRIPOS>SUBSTRUCTURE
1	UNK0	1	GROUP	1 ****	UNK
