# created with PyMOL 2.3.2
@<TRIPOS>MOLECULE
1870
46 49 1                 
SMALL
USER_CHARGES
@<TRIPOS>ATOM
1	  Cl	1.472	2.329	-1.689	Cl	1	UNK0	0.000	
2	   C	0.644	3.310	-0.467	C.2	1	UNK0	0.000	
3	   C	1.074	3.298	0.843	C.2	1	UNK0	0.000	
4	   C	0.411	4.075	1.766	C.2	1	UNK0	0.000	
5	   C	-0.670	4.858	1.401	C.2	1	UNK0	0.000	
6	   C	-1.084	4.856	0.089	C.2	1	UNK0	0.000	
7	   C	-0.427	4.078	-0.864	C.2	1	UNK0	0.000	
8	   C	2.206	2.460	1.166	C.2	1	UNK0	0.000	
9	   O	3.289	2.574	0.535	O.2	1	UNK0	0.000	
10	   C	2.151	1.425	2.250	C.3	1	UNK0	0.000	
11	   N	1.544	0.230	1.681	N.pl3	1	UNK0	0.000	
12	   C	2.202	-0.780	1.056	C.2	1	UNK0	0.000	
13	   N	1.316	-1.710	0.660	N.pl3	1	UNK0	0.000	
14	   C	0.077	-1.327	1.016	C.2	1	UNK0	0.000	
15	   C	0.245	-0.109	1.655	C.2	1	UNK0	0.000	
16	   C	-1.212	-1.985	0.817	C.2	1	UNK0	0.000	
17	   C	-2.387	-1.425	1.300	C.2	1	UNK0	0.000	
18	   C	-3.609	-2.034	1.115	C.2	1	UNK0	0.000	
19	   C	-3.744	-3.229	0.446	C.2	1	UNK0	0.000	
20	   C	-2.562	-3.788	-0.037	C.2	1	UNK0	0.000	
21	   C	-1.339	-3.179	0.147	C.2	1	UNK0	0.000	
22	   O	-4.964	-3.859	0.248	O.3	1	UNK0	0.000	
23	   C	-6.155	-3.283	0.744	C.3	1	UNK0	0.000	
24	   C	2.002	-2.793	-0.004	C.3	1	UNK0	0.000	
25	   C	3.457	-2.513	0.098	C.3	1	UNK0	0.000	
26	   C	3.583	-1.158	0.682	C.3	1	UNK0	0.000	
27	   H	0.733	4.083	2.811	 H	1	UNK0	0.000	
28	   H	-1.199	5.479	2.138	 H	1	UNK0	0.000	
29	   H	-1.924	5.454	-0.221	 H	1	UNK0	0.000	
30	   H	-0.801	4.125	-1.869	 H	1	UNK0	0.000	
31	   H	1.538	1.747	3.104	 H	1	UNK0	0.000	
32	   H	3.191	1.188	2.592	 H	1	UNK0	0.000	
33	   H	-0.544	0.495	2.080	 H	1	UNK0	0.000	
34	   H	-2.302	-0.491	1.828	 H	1	UNK0	0.000	
35	   H	-4.524	-1.582	1.501	 H	1	UNK0	0.000	
36	   H	-2.662	-4.734	-0.568	 H	1	UNK0	0.000	
37	   H	-0.432	-3.632	-0.240	 H	1	UNK0	0.000	
38	   H	-7.059	-3.738	0.252	 H	1	UNK0	0.000	
39	   H	-6.196	-2.197	0.524	 H	1	UNK0	0.000	
40	   H	-6.239	-3.369	1.849	 H	1	UNK0	0.000	
41	   H	1.818	-3.773	0.489	 H	1	UNK0	0.000	
42	   H	1.680	-2.822	-1.079	 H	1	UNK0	0.000	
43	   H	3.957	-2.525	-0.900	 H	1	UNK0	0.000	
44	   H	3.964	-3.261	0.777	 H	1	UNK0	0.000	
45	   H	3.994	-0.450	-0.081	 H	1	UNK0	0.000	
46	   H	4.210	-1.142	1.609	 H	1	UNK0	0.000	
@<TRIPOS>BOND
1 1 2 1
2 2 3 2
3 2 7 1
4 3 4 1
5 3 8 1
6 4 5 2
7 5 6 1
8 6 7 2
9 8 9 2
10 8 10 1
11 10 11 1
12 11 12 2
13 11 15 1
14 12 13 1
15 12 26 1
16 13 14 1
17 13 24 1
18 14 15 2
19 14 16 1
20 16 17 2
21 16 21 1
22 17 18 1
23 18 19 2
24 19 20 1
25 19 22 1
26 20 21 2
27 22 23 1
28 24 25 1
29 25 26 1
30 4 27 1
31 5 28 1
32 6 29 1
33 7 30 1
34 10 31 1
35 10 32 1
36 15 33 1
37 17 34 1
38 18 35 1
39 20 36 1
40 21 37 1
41 23 38 1
42 23 39 1
43 23 40 1
44 24 41 1
45 24 42 1
46 25 43 1
47 25 44 1
48 26 45 1
49 26 46 1
@<TRIPOS>SUBSTRUCTURE
1	UNK0	1	GROUP	1 ****	UNK
