# created with PyMOL 2.3.2
@<TRIPOS>MOLECULE
1871
50 53 1                 
SMALL
USER_CHARGES
@<TRIPOS>ATOM
1	  Cl	3.308	4.412	0.273	Cl	1	UNK0	0.000	
2	   C	2.557	2.955	-0.350	C.2	1	UNK0	0.000	
3	   C	2.959	2.379	-1.547	C.2	1	UNK0	0.000	
4	   C	2.313	1.220	-1.973	C.2	1	UNK0	0.000	
5	   C	1.303	0.643	-1.249	C.2	1	UNK0	0.000	
6	   C	0.898	1.214	-0.055	C.2	1	UNK0	0.000	
7	   C	1.537	2.362	0.368	C.2	1	UNK0	0.000	
8	   C	0.673	-0.584	-1.731	C.3	1	UNK0	0.000	
9	   N	-0.529	-1.013	-1.130	N.4	1	UNK0	0.000	
10	   C	-0.264	-1.865	-0.049	C.2	1	UNK0	0.000	
11	   C	-0.869	-2.637	0.820	C.2	1	UNK0	0.000	
12	   C	-0.122	-3.383	1.839	C.3	1	UNK0	0.000	
13	   C	1.258	-3.029	2.147	C.3	1	UNK0	0.000	
14	   C	1.866	-1.967	1.265	C.3	1	UNK0	0.000	
15	   N	1.190	-1.880	0.020	N.pl3	1	UNK0	0.000	
16	   C	1.566	-1.788	-1.385	C.3	1	UNK0	0.000	
17	   C	3.014	-1.574	-1.532	C.3	1	UNK0	0.000	
18	   C	-1.612	-0.140	-1.139	C.2	1	UNK0	0.000	
19	   C	-1.480	1.023	-1.880	C.2	1	UNK0	0.000	
20	   C	-2.470	1.972	-1.962	C.2	1	UNK0	0.000	
21	   C	-3.691	1.824	-1.296	C.2	1	UNK0	0.000	
22	   C	-3.794	0.664	-0.569	C.2	1	UNK0	0.000	
23	   C	-2.800	-0.280	-0.492	C.2	1	UNK0	0.000	
24	   O	-4.681	2.783	-1.389	O.3	1	UNK0	0.000	
25	   C	-5.893	2.598	-0.702	C.3	1	UNK0	0.000	
26	   O	0.547	-0.605	-3.101	O.3	1	UNK0	0.000	
27	   H	3.752	2.827	-2.118	 H	1	UNK0	0.000	
28	   H	2.704	0.846	-2.916	 H	1	UNK0	0.000	
29	   H	0.109	0.731	0.496	 H	1	UNK0	0.000	
30	   H	1.180	2.767	1.305	 H	1	UNK0	0.000	
31	   H	-0.888	-1.766	-1.875	 H	1	UNK0	0.000	
32	   H	-1.972	-2.766	0.785	 H	1	UNK0	0.000	
33	   H	-0.205	-4.475	1.576	 H	1	UNK0	0.000	
34	   H	-0.751	-3.293	2.784	 H	1	UNK0	0.000	
35	   H	1.902	-3.968	2.135	 H	1	UNK0	0.000	
36	   H	1.342	-2.663	3.200	 H	1	UNK0	0.000	
37	   H	2.919	-2.252	1.086	 H	1	UNK0	0.000	
38	   H	1.920	-0.993	1.792	 H	1	UNK0	0.000	
39	   H	1.244	-2.676	-1.913	 H	1	UNK0	0.000	
40	   H	3.284	-1.408	-2.589	 H	1	UNK0	0.000	
41	   H	3.508	-0.926	-0.802	 H	1	UNK0	0.000	
42	   H	3.463	-2.599	-1.334	 H	1	UNK0	0.000	
43	   H	-0.573	1.253	-2.468	 H	1	UNK0	0.000	
44	   H	-2.364	2.890	-2.544	 H	1	UNK0	0.000	
45	   H	-4.742	0.513	-0.028	 H	1	UNK0	0.000	
46	   H	-3.016	-1.124	0.109	 H	1	UNK0	0.000	
47	   H	-5.816	2.912	0.375	 H	1	UNK0	0.000	
48	   H	-6.276	1.571	-0.699	 H	1	UNK0	0.000	
49	   H	-6.708	3.254	-1.121	 H	1	UNK0	0.000	
50	   H	1.087	0.031	-3.605	 H	1	UNK0	0.000	
@<TRIPOS>BOND
1 1 2 1
2 2 3 2
3 2 7 1
4 3 4 1
5 4 5 2
6 5 6 1
7 5 8 1
8 6 7 2
9 8 9 1
10 8 16 1
11 8 26 1
12 9 10 1
13 9 18 1
14 10 11 2
15 10 15 1
16 11 12 1
17 12 13 1
18 13 14 1
19 14 15 1
20 15 16 1
21 16 17 1
22 18 19 2
23 18 23 1
24 19 20 1
25 20 21 2
26 21 22 1
27 21 24 1
28 22 23 2
29 24 25 1
30 3 27 1
31 4 28 1
32 6 29 1
33 7 30 1
34 9 31 1
35 11 32 1
36 12 33 1
37 12 34 1
38 13 35 1
39 13 36 1
40 14 37 1
41 14 38 1
42 16 39 1
43 17 40 1
44 17 41 1
45 17 42 1
46 19 43 1
47 20 44 1
48 22 45 1
49 23 46 1
50 25 47 1
51 25 48 1
52 25 49 1
53 26 50 1
@<TRIPOS>SUBSTRUCTURE
1	UNK0	1	GROUP	1 ****	UNK
