# created with PyMOL 2.3.2
@<TRIPOS>MOLECULE
1876
44 47 1                 
SMALL
USER_CHARGES
@<TRIPOS>ATOM
1	  Cl	-5.002	-4.549	-0.648	Cl	1	UNK0	0.000	
2	   C	-3.740	-3.307	-0.621	C.2	1	UNK0	0.000	
3	   C	-2.429	-3.718	-0.768	C.2	1	UNK0	0.000	
4	   C	-1.482	-2.718	-0.741	C.2	1	UNK0	0.000	
5	   C	-1.801	-1.372	-0.577	C.2	1	UNK0	0.000	
6	   C	-3.128	-1.033	-0.436	C.2	1	UNK0	0.000	
7	   C	-4.114	-1.995	-0.456	C.2	1	UNK0	0.000	
8	   N	-0.757	-0.384	-0.554	N.pl3	1	UNK0	0.000	
9	   C	0.275	-0.242	0.449	C.2	1	UNK0	0.000	
10	   O	0.704	-1.182	1.134	O.2	1	UNK0	0.000	
11	   C	0.607	1.202	0.396	C.3	1	UNK0	0.000	
12	   N	1.932	1.550	0.762	N.pl3	1	UNK0	0.000	
13	   N	2.341	2.435	-0.275	N.pl3	1	UNK0	0.000	
14	   C	1.645	2.105	-1.446	C.2	1	UNK0	0.000	
15	   C	0.619	1.380	-1.103	C.2	1	UNK0	0.000	
16	   C	-0.562	0.627	-1.543	C.2	1	UNK0	0.000	
17	   O	-1.220	0.878	-2.589	O.2	1	UNK0	0.000	
18	   C	1.977	2.487	-2.834	C.2	1	UNK0	0.000	
19	   O	1.263	2.121	-3.786	O.co2	1	UNK0	0.000	
20	   O	3.094	3.261	-3.114	O.3	1	UNK0	0.000	
21	   C	3.430	3.634	-4.445	C.3	1	UNK0	0.000	
22	   C	-0.457	2.053	0.975	C.2	1	UNK0	0.000	
23	   C	-0.897	3.221	0.389	C.2	1	UNK0	0.000	
24	   C	-1.902	3.993	0.956	C.2	1	UNK0	0.000	
25	   C	-2.507	3.620	2.139	C.2	1	UNK0	0.000	
26	   C	-2.063	2.441	2.731	C.2	1	UNK0	0.000	
27	   C	-1.058	1.674	2.160	C.2	1	UNK0	0.000	
28	   C	-3.585	4.415	2.779	C.3	1	UNK0	0.000	
29	   H	-2.151	-4.770	-0.899	 H	1	UNK0	0.000	
30	   H	-0.412	-2.956	-0.851	 H	1	UNK0	0.000	
31	   H	-3.367	0.017	-0.307	 H	1	UNK0	0.000	
32	   H	-5.167	-1.702	-0.341	 H	1	UNK0	0.000	
33	   H	2.544	0.692	0.695	 H	1	UNK0	0.000	
34	   H	3.043	3.178	-0.125	 H	1	UNK0	0.000	
35	   H	3.234	4.714	-4.540	 H	1	UNK0	0.000	
36	   H	4.528	3.511	-4.583	 H	1	UNK0	0.000	
37	   H	2.851	3.032	-5.188	 H	1	UNK0	0.000	
38	   H	-0.408	3.511	-0.553	 H	1	UNK0	0.000	
39	   H	-2.225	4.906	0.471	 H	1	UNK0	0.000	
40	   H	-2.549	2.155	3.667	 H	1	UNK0	0.000	
41	   H	-0.741	0.759	2.655	 H	1	UNK0	0.000	
42	   H	-4.010	3.826	3.606	 H	1	UNK0	0.000	
43	   H	-4.417	4.601	2.069	 H	1	UNK0	0.000	
44	   H	-3.210	5.411	3.124	 H	1	UNK0	0.000	
@<TRIPOS>BOND
1 1 2 1
2 2 3 2
3 2 7 1
4 3 4 1
5 4 5 2
6 5 6 1
7 5 8 1
8 6 7 2
9 8 9 1
10 8 16 1
11 9 10 2
12 9 11 1
13 11 12 1
14 11 15 1
15 11 22 1
16 12 13 1
17 13 14 1
18 14 15 2
19 14 18 1
20 15 16 1
21 16 17 2
22 18 19 2
23 18 20 1
24 20 21 1
25 22 23 2
26 22 27 1
27 23 24 1
28 24 25 2
29 25 26 1
30 25 28 1
31 26 27 2
32 3 29 1
33 4 30 1
34 6 31 1
35 7 32 1
36 12 33 1
37 13 34 1
38 21 35 1
39 21 36 1
40 21 37 1
41 23 38 1
42 24 39 1
43 26 40 1
44 27 41 1
45 28 42 1
46 28 43 1
47 28 44 1
@<TRIPOS>SUBSTRUCTURE
1	UNK0	1	GROUP	1 ****	UNK
