# created with PyMOL 2.3.2
@<TRIPOS>MOLECULE
1877
44 47 1                 
SMALL
USER_CHARGES
@<TRIPOS>ATOM
1	  Cl	-6.041	3.513	-2.138	Cl	1	UNK0	0.000	
2	   C	-4.813	2.271	-2.015	C.2	1	UNK0	0.000	
3	   C	-4.966	1.169	-1.186	C.2	1	UNK0	0.000	
4	   C	-3.975	0.212	-1.112	C.2	1	UNK0	0.000	
5	   C	-2.797	0.291	-1.844	C.2	1	UNK0	0.000	
6	   C	-2.665	1.391	-2.659	C.2	1	UNK0	0.000	
7	   C	-3.648	2.366	-2.749	C.2	1	UNK0	0.000	
8	   N	-1.806	-0.732	-1.719	N.pl3	1	UNK0	0.000	
9	   C	-0.476	-0.547	-1.585	C.2	1	UNK0	0.000	
10	   O	0.109	0.553	-1.559	O.2	1	UNK0	0.000	
11	   C	0.193	-1.762	-1.474	C.2	1	UNK0	0.000	
12	   C	-0.768	-2.691	-1.546	C.2	1	UNK0	0.000	
13	   N	-0.141	-3.882	-1.436	N.pl3	1	UNK0	0.000	
14	   N	1.155	-3.674	-1.301	N.pl3	1	UNK0	0.000	
15	   N	1.382	-2.370	-1.323	N.pl3	1	UNK0	0.000	
16	   C	2.665	-1.710	-1.210	C.3	1	UNK0	0.000	
17	   C	2.941	-1.387	0.230	C.2	1	UNK0	0.000	
18	   O	3.068	-2.362	0.975	O.2	1	UNK0	0.000	
19	   N	3.045	-0.066	0.665	N.pl3	1	UNK0	0.000	
20	   C	3.297	0.343	1.973	C.2	1	UNK0	0.000	
21	   C	3.420	1.722	2.214	C.2	1	UNK0	0.000	
22	   C	3.666	2.201	3.476	C.2	1	UNK0	0.000	
23	   C	3.805	1.359	4.566	C.2	1	UNK0	0.000	
24	   C	3.682	0.007	4.312	C.2	1	UNK0	0.000	
25	   C	3.431	-0.495	3.032	C.2	1	UNK0	0.000	
26	   C	3.278	2.645	1.084	C.3	1	UNK0	0.000	
27	   C	-1.984	-2.060	-1.695	C.2	1	UNK0	0.000	
28	   O	-3.084	-2.671	-1.793	O.2	1	UNK0	0.000	
29	   H	-5.870	1.091	-0.611	 H	1	UNK0	0.000	
30	   H	-4.080	-0.661	-0.465	 H	1	UNK0	0.000	
31	   H	-1.757	1.474	-3.238	 H	1	UNK0	0.000	
32	   H	-3.512	3.236	-3.411	 H	1	UNK0	0.000	
33	   H	-0.594	-4.837	-1.451	 H	1	UNK0	0.000	
34	   H	1.906	-4.411	-1.191	 H	1	UNK0	0.000	
35	   H	3.501	-2.326	-1.610	 H	1	UNK0	0.000	
36	   H	2.657	-0.748	-1.793	 H	1	UNK0	0.000	
37	   H	2.918	0.685	-0.098	 H	1	UNK0	0.000	
38	   H	3.762	3.286	3.654	 H	1	UNK0	0.000	
39	   H	3.999	1.746	5.556	 H	1	UNK0	0.000	
40	   H	3.788	-0.676	5.154	 H	1	UNK0	0.000	
41	   H	3.345	-1.578	2.931	 H	1	UNK0	0.000	
42	   H	3.390	3.687	1.462	 H	1	UNK0	0.000	
43	   H	2.263	2.573	0.594	 H	1	UNK0	0.000	
44	   H	4.010	2.442	0.268	 H	1	UNK0	0.000	
@<TRIPOS>BOND
1 1 2 1
2 2 3 2
3 2 7 1
4 3 4 1
5 4 5 2
6 5 6 1
7 5 8 1
8 6 7 2
9 8 9 1
10 8 27 1
11 9 10 2
12 9 11 1
13 11 12 2
14 11 15 1
15 12 13 1
16 12 27 1
17 13 14 1
18 14 15 1
19 15 16 1
20 16 17 1
21 17 18 2
22 17 19 1
23 19 20 1
24 20 21 2
25 20 25 1
26 21 22 1
27 21 26 1
28 22 23 2
29 23 24 1
30 24 25 2
31 27 28 2
32 3 29 1
33 4 30 1
34 6 31 1
35 7 32 1
36 13 33 1
37 14 34 1
38 16 35 1
39 16 36 1
40 19 37 1
41 22 38 1
42 23 39 1
43 24 40 1
44 25 41 1
45 26 42 1
46 26 43 1
47 26 44 1
@<TRIPOS>SUBSTRUCTURE
1	UNK0	1	GROUP	1 ****	UNK
