# created with PyMOL 2.3.2
@<TRIPOS>MOLECULE
1878
52 55 1                 
SMALL
USER_CHARGES
@<TRIPOS>ATOM
1	  Cl	-1.575	4.053	6.281	Cl	1	UNK0	0.000	
2	   C	-0.660	2.561	6.282	C.2	1	UNK0	0.000	
3	   C	-0.650	1.802	5.137	C.2	1	UNK0	0.000	
4	   C	0.062	0.623	5.112	C.2	1	UNK0	0.000	
5	   C	0.774	0.189	6.236	C.2	1	UNK0	0.000	
6	   C	0.765	0.957	7.396	C.2	1	UNK0	0.000	
7	   C	0.044	2.153	7.423	C.2	1	UNK0	0.000	
8	   O	0.005	2.942	8.542	O.2	1	UNK0	0.000	
9	   O	1.456	-0.933	6.224	O.3	1	UNK0	0.000	
10	   C	1.515	-1.713	5.171	C.2	1	UNK0	0.000	
11	   O	2.176	-2.792	5.172	O.co2	1	UNK0	0.000	
12	   C	0.842	-1.368	4.009	C.2	1	UNK0	0.000	
13	   C	0.120	-0.195	4.000	C.2	1	UNK0	0.000	
14	   C	-0.615	0.242	2.825	C.3	1	UNK0	0.000	
15	   N	-0.589	-0.566	1.662	N.4	1	UNK0	0.000	
16	   C	0.535	-0.440	0.794	C.3	1	UNK0	0.000	
17	   C	0.689	0.907	0.165	C.3	1	UNK0	0.000	
18	   N	-0.577	1.599	0.091	N.3	1	UNK0	0.000	
19	   C	-1.552	0.584	-0.291	C.3	1	UNK0	0.000	
20	   C	-1.796	-0.389	0.835	C.3	1	UNK0	0.000	
21	   C	-0.491	2.589	-0.956	C.3	1	UNK0	0.000	
22	   C	-0.401	1.954	-2.325	C.2	1	UNK0	0.000	
23	   C	0.632	2.170	-3.099	C.2	1	UNK0	0.000	
24	   C	0.744	1.571	-4.419	C.2	1	UNK0	0.000	
25	   C	-0.193	0.740	-4.971	C.2	1	UNK0	0.000	
26	   C	-0.010	0.207	-6.255	C.2	1	UNK0	0.000	
27	   C	1.101	0.487	-7.014	C.2	1	UNK0	0.000	
28	   C	2.044	1.321	-6.462	C.2	1	UNK0	0.000	
29	   C	1.876	1.852	-5.202	C.2	1	UNK0	0.000	
30	   H	-1.198	2.142	4.282	 H	1	UNK0	0.000	
31	   H	1.291	0.677	8.287	 H	1	UNK0	0.000	
32	   H	0.916	-2.037	3.161	 H	1	UNK0	0.000	
33	   H	-0.259	1.259	2.476	 H	1	UNK0	0.000	
34	   H	-1.674	0.459	3.163	 H	1	UNK0	0.000	
35	   H	-0.639	-1.567	1.960	 H	1	UNK0	0.000	
36	   H	0.362	-1.162	-0.044	 H	1	UNK0	0.000	
37	   H	1.499	-0.740	1.231	 H	1	UNK0	0.000	
38	   H	1.062	0.776	-0.868	 H	1	UNK0	0.000	
39	   H	1.420	1.559	0.678	 H	1	UNK0	0.000	
40	   H	-2.486	0.996	-0.680	 H	1	UNK0	0.000	
41	   H	-1.078	-0.007	-1.108	 H	1	UNK0	0.000	
42	   H	-2.538	0.086	1.516	 H	1	UNK0	0.000	
43	   H	-2.214	-1.332	0.490	 H	1	UNK0	0.000	
44	   H	0.398	3.237	-0.854	 H	1	UNK0	0.000	
45	   H	-1.399	3.237	-0.976	 H	1	UNK0	0.000	
46	   H	-1.216	1.316	-2.645	 H	1	UNK0	0.000	
47	   H	1.409	2.824	-2.702	 H	1	UNK0	0.000	
48	   H	-1.088	0.486	-4.417	 H	1	UNK0	0.000	
49	   H	-0.750	-0.436	-6.665	 H	1	UNK0	0.000	
50	   H	1.218	0.062	-8.000	 H	1	UNK0	0.000	
51	   H	2.923	1.551	-7.047	 H	1	UNK0	0.000	
52	   H	2.614	2.503	-4.773	 H	1	UNK0	0.000	
@<TRIPOS>BOND
1 1 2 1
2 2 3 2
3 2 7 1
4 3 4 1
5 4 5 2
6 4 13 1
7 5 6 1
8 5 9 1
9 6 7 2
10 7 8 1
11 9 10 1
12 10 11 2
13 10 12 1
14 12 13 2
15 13 14 1
16 14 15 1
17 15 16 1
18 15 20 1
19 16 17 1
20 17 18 1
21 18 19 1
22 18 21 1
23 19 20 1
24 21 22 1
25 22 23 2
26 23 24 1
27 24 25 2
28 24 29 1
29 25 26 1
30 26 27 2
31 27 28 1
32 28 29 2
33 3 30 1
34 6 31 1
35 12 32 1
36 14 33 1
37 14 34 1
38 15 35 1
39 16 36 1
40 16 37 1
41 17 38 1
42 17 39 1
43 19 40 1
44 19 41 1
45 20 42 1
46 20 43 1
47 21 44 1
48 21 45 1
49 22 46 1
50 23 47 1
51 25 48 1
52 26 49 1
53 27 50 1
54 28 51 1
55 29 52 1
@<TRIPOS>SUBSTRUCTURE
1	UNK0	1	GROUP	1 ****	UNK
