# created with PyMOL 2.3.2
@<TRIPOS>MOLECULE
1879
44 47 1                 
SMALL
USER_CHARGES
@<TRIPOS>ATOM
1	  Cl	-1.708	-2.441	-7.488	Cl	1	UNK0	0.000	
2	   C	-1.319	-1.641	-5.987	C.2	1	UNK0	0.000	
3	   C	-0.705	-2.312	-4.927	C.2	1	UNK0	0.000	
4	   C	-0.419	-1.645	-3.770	C.2	1	UNK0	0.000	
5	   C	-0.742	-0.311	-3.665	C.2	1	UNK0	0.000	
6	   N	-0.365	0.116	-2.447	N.pl3	1	UNK0	0.000	
7	   C	0.202	-0.896	-1.734	C.2	1	UNK0	0.000	
8	   C	0.160	-1.995	-2.579	C.2	1	UNK0	0.000	
9	   C	0.724	-0.799	-0.383	C.2	1	UNK0	0.000	
10	   O	1.217	-1.819	0.145	O.2	1	UNK0	0.000	
11	   N	0.669	0.430	0.309	N.pl3	1	UNK0	0.000	
12	   C	1.161	0.622	1.650	C.3	1	UNK0	0.000	
13	   C	0.303	1.416	2.556	C.3	1	UNK0	0.000	
14	   C	1.304	1.983	3.521	C.3	1	UNK0	0.000	
15	   O	2.539	1.946	2.939	O.3	1	UNK0	0.000	
16	   C	2.403	1.541	1.630	C.3	1	UNK0	0.000	
17	   N	-0.685	0.677	3.280	N.3	1	UNK0	0.000	
18	   C	-1.663	0.023	2.455	C.3	1	UNK0	0.000	
19	   C	-2.638	1.035	1.941	C.3	1	UNK0	0.000	
20	   O	-3.283	1.611	3.005	O.3	1	UNK0	0.000	
21	   C	-2.456	2.276	3.902	C.3	1	UNK0	0.000	
22	   C	-1.255	1.492	4.301	C.3	1	UNK0	0.000	
23	   C	-1.356	0.361	-4.726	C.2	1	UNK0	0.000	
24	   C	-1.642	-0.298	-5.877	C.2	1	UNK0	0.000	
25	   H	-0.483	-3.358	-5.085	 H	1	UNK0	0.000	
26	   H	-0.489	1.095	-2.093	 H	1	UNK0	0.000	
27	   H	0.533	-2.970	-2.319	 H	1	UNK0	0.000	
28	   H	0.249	1.248	-0.177	 H	1	UNK0	0.000	
29	   H	1.531	-0.311	2.100	 H	1	UNK0	0.000	
30	   H	-0.175	2.249	1.966	 H	1	UNK0	0.000	
31	   H	1.023	3.008	3.867	 H	1	UNK0	0.000	
32	   H	1.315	1.292	4.415	 H	1	UNK0	0.000	
33	   H	2.153	2.440	1.028	 H	1	UNK0	0.000	
34	   H	3.288	1.010	1.286	 H	1	UNK0	0.000	
35	   H	-2.248	-0.651	3.151	 H	1	UNK0	0.000	
36	   H	-1.243	-0.623	1.698	 H	1	UNK0	0.000	
37	   H	-3.419	0.582	1.291	 H	1	UNK0	0.000	
38	   H	-2.075	1.811	1.396	 H	1	UNK0	0.000	
39	   H	-2.177	3.239	3.427	 H	1	UNK0	0.000	
40	   H	-3.080	2.535	4.783	 H	1	UNK0	0.000	
41	   H	-0.503	2.139	4.758	 H	1	UNK0	0.000	
42	   H	-1.586	0.793	5.126	 H	1	UNK0	0.000	
43	   H	-1.602	1.405	-4.628	 H	1	UNK0	0.000	
44	   H	-2.125	0.248	-6.698	 H	1	UNK0	0.000	
@<TRIPOS>BOND
1 1 2 1
2 2 3 2
3 2 24 1
4 3 4 1
5 4 5 2
6 4 8 1
7 5 6 1
8 5 23 1
9 6 7 1
10 7 8 2
11 7 9 1
12 9 10 2
13 9 11 1
14 11 12 1
15 12 13 1
16 12 16 1
17 13 14 1
18 13 17 1
19 14 15 1
20 15 16 1
21 17 18 1
22 17 22 1
23 18 19 1
24 19 20 1
25 20 21 1
26 21 22 1
27 23 24 2
28 3 25 1
29 6 26 1
30 8 27 1
31 11 28 1
32 12 29 1
33 13 30 1
34 14 31 1
35 14 32 1
36 16 33 1
37 16 34 1
38 18 35 1
39 18 36 1
40 19 37 1
41 19 38 1
42 21 39 1
43 21 40 1
44 22 41 1
45 22 42 1
46 23 43 1
47 24 44 1
@<TRIPOS>SUBSTRUCTURE
1	UNK0	1	GROUP	1 ****	UNK
