# created with PyMOL 2.3.2
@<TRIPOS>MOLECULE
1880
52 55 1                 
SMALL
USER_CHARGES
@<TRIPOS>ATOM
1	  Cl	2.832	-4.406	-1.662	Cl	1	UNK0	0.000	
2	   C	2.870	-2.655	-1.521	C.2	1	UNK0	0.000	
3	   C	1.649	-2.028	-1.243	C.2	1	UNK0	0.000	
4	   C	1.666	-0.665	-1.132	C.2	1	UNK0	0.000	
5	   C	2.874	0.042	-1.295	C.2	1	UNK0	0.000	
6	   C	4.059	-0.599	-1.568	C.2	1	UNK0	0.000	
7	   C	4.052	-1.972	-1.682	C.2	1	UNK0	0.000	
8	   C	0.299	-0.212	-0.841	C.3	1	UNK0	0.000	
9	   N	-0.184	0.759	-1.796	N.3	1	UNK0	0.000	
10	   C	-1.154	1.575	-1.100	C.3	1	UNK0	0.000	
11	   C	-0.754	1.600	0.341	C.3	1	UNK0	0.000	
12	   C	0.189	0.442	0.522	C.3	1	UNK0	0.000	
13	   C	-0.496	-0.442	1.505	C.2	1	UNK0	0.000	
14	   O	-0.146	-1.626	1.829	O.2	1	UNK0	0.000	
15	   N	-1.620	0.234	2.043	N.pl3	1	UNK0	0.000	
16	   C	-1.947	1.305	1.166	C.2	1	UNK0	0.000	
17	   O	-3.033	1.917	1.076	O.2	1	UNK0	0.000	
18	   C	-2.282	-0.147	3.278	C.3	1	UNK0	0.000	
19	   C	-1.716	0.532	4.479	C.3	1	UNK0	0.000	
20	   C	-0.255	0.240	4.706	C.3	1	UNK0	0.000	
21	   O	-0.085	-1.124	4.882	O.3	1	UNK0	0.000	
22	   C	1.287	-1.359	5.091	C.3	1	UNK0	0.000	
23	   C	-1.199	2.988	-1.623	C.3	1	UNK0	0.000	
24	   C	-1.560	3.062	-3.073	C.3	1	UNK0	0.000	
25	   C	0.055	3.752	-1.372	C.3	1	UNK0	0.000	
26	   C	-0.517	-1.428	-0.793	C.2	1	UNK0	0.000	
27	   O	-1.778	-1.514	-0.567	O.2	1	UNK0	0.000	
28	   N	0.335	-2.527	-1.043	N.pl3	1	UNK0	0.000	
29	   H	2.881	1.128	-1.205	 H	1	UNK0	0.000	
30	   H	4.958	0.007	-1.683	 H	1	UNK0	0.000	
31	   H	4.988	-2.471	-1.897	 H	1	UNK0	0.000	
32	   H	0.594	1.334	-2.196	 H	1	UNK0	0.000	
33	   H	-2.152	1.125	-1.280	 H	1	UNK0	0.000	
34	   H	-0.324	2.562	0.675	 H	1	UNK0	0.000	
35	   H	1.152	0.720	0.952	 H	1	UNK0	0.000	
36	   H	-2.174	-1.258	3.401	 H	1	UNK0	0.000	
37	   H	-3.368	0.042	3.254	 H	1	UNK0	0.000	
38	   H	-1.939	1.615	4.475	 H	1	UNK0	0.000	
39	   H	-2.258	0.119	5.369	 H	1	UNK0	0.000	
40	   H	0.099	0.801	5.595	 H	1	UNK0	0.000	
41	   H	0.379	0.586	3.858	 H	1	UNK0	0.000	
42	   H	1.551	-0.775	6.012	 H	1	UNK0	0.000	
43	   H	1.846	-0.840	4.260	 H	1	UNK0	0.000	
44	   H	1.524	-2.420	5.167	 H	1	UNK0	0.000	
45	   H	-2.030	3.496	-1.053	 H	1	UNK0	0.000	
46	   H	-2.636	3.103	-3.265	 H	1	UNK0	0.000	
47	   H	-1.066	2.259	-3.669	 H	1	UNK0	0.000	
48	   H	-1.134	4.021	-3.468	 H	1	UNK0	0.000	
49	   H	-0.112	4.612	-0.660	 H	1	UNK0	0.000	
50	   H	0.416	4.222	-2.306	 H	1	UNK0	0.000	
51	   H	0.850	3.144	-0.893	 H	1	UNK0	0.000	
52	   H	0.062	-3.549	-1.078	 H	1	UNK0	0.000	
@<TRIPOS>BOND
1 1 2 1
2 2 3 2
3 2 7 1
4 3 4 1
5 3 28 1
6 4 5 2
7 4 8 1
8 5 6 1
9 6 7 2
10 8 9 1
11 8 12 1
12 8 26 1
13 9 10 1
14 10 11 1
15 10 23 1
16 11 12 1
17 11 16 1
18 12 13 1
19 13 14 2
20 13 15 1
21 15 16 1
22 15 18 1
23 16 17 2
24 18 19 1
25 19 20 1
26 20 21 1
27 21 22 1
28 23 24 1
29 23 25 1
30 26 27 2
31 26 28 1
32 5 29 1
33 6 30 1
34 7 31 1
35 9 32 1
36 10 33 1
37 11 34 1
38 12 35 1
39 18 36 1
40 18 37 1
41 19 38 1
42 19 39 1
43 20 40 1
44 20 41 1
45 22 42 1
46 22 43 1
47 22 44 1
48 23 45 1
49 24 46 1
50 24 47 1
51 24 48 1
52 25 49 1
53 25 50 1
54 25 51 1
55 28 52 1
@<TRIPOS>SUBSTRUCTURE
1	UNK0	1	GROUP	1 ****	UNK
