# created with PyMOL 2.3.2
@<TRIPOS>MOLECULE
1881
53 56 1                 
SMALL
USER_CHARGES
@<TRIPOS>ATOM
1	   S	-2.288	-0.943	2.130	S.O2	1	UNK0	0.000	
2	   O	-3.610	-0.213	1.957	O.2	1	UNK0	0.000	
3	   O	-2.348	-1.719	3.394	O.2	1	UNK0	0.000	
4	   N	-1.969	-1.845	0.779	N.3	1	UNK0	0.000	
5	   C	-1.911	-1.250	-0.492	C.3	1	UNK0	0.000	
6	   C	-0.763	-1.972	-1.231	C.3	1	UNK0	0.000	
7	   N	0.269	-2.343	-0.288	N.pl3	1	UNK0	0.000	
8	   C	-0.174	-3.384	0.699	C.3	1	UNK0	0.000	
9	   C	-1.670	-3.221	0.887	C.3	1	UNK0	0.000	
10	   C	1.575	-1.847	-0.203	C.2	1	UNK0	0.000	
11	   O	2.266	-2.386	0.768	O.2	1	UNK0	0.000	
12	   C	2.310	-0.867	-0.962	C.3	1	UNK0	0.000	
13	   N	1.714	-0.239	-2.091	N.pl3	1	UNK0	0.000	
14	   N	1.771	-0.636	-3.350	N.2	1	UNK0	0.000	
15	   N	1.108	0.219	-4.107	N.2	1	UNK0	0.000	
16	   C	0.609	1.191	-3.329	C.2	1	UNK0	0.000	
17	   N	1.004	0.875	-2.088	N.2	1	UNK0	0.000	
18	   C	-0.184	2.319	-3.790	C.2	1	UNK0	0.000	
19	   C	-0.511	2.504	-5.114	C.2	1	UNK0	0.000	
20	   C	-1.271	3.588	-5.548	C.2	1	UNK0	0.000	
21	   C	-1.703	4.496	-4.609	C.2	1	UNK0	0.000	
22	   C	-1.387	4.326	-3.291	C.2	1	UNK0	0.000	
23	   C	-0.629	3.243	-2.866	C.2	1	UNK0	0.000	
24	  Cl	-2.662	5.855	-5.191	Cl	1	UNK0	0.000	
25	   C	-1.020	0.272	2.341	C.2	1	UNK0	0.000	
26	   C	0.100	-0.050	3.094	C.2	1	UNK0	0.000	
27	   C	1.116	0.869	3.285	C.2	1	UNK0	0.000	
28	   C	1.050	2.134	2.736	C.2	1	UNK0	0.000	
29	   C	-0.066	2.443	1.990	C.2	1	UNK0	0.000	
30	   C	-1.088	1.519	1.797	C.2	1	UNK0	0.000	
31	   O	2.052	3.084	2.907	O.3	1	UNK0	0.000	
32	   C	3.191	2.738	3.680	C.3	1	UNK0	0.000	
33	   H	-1.713	-0.181	-0.403	 H	1	UNK0	0.000	
34	   H	-2.823	-1.374	-1.101	 H	1	UNK0	0.000	
35	   H	-0.452	-1.446	-2.107	 H	1	UNK0	0.000	
36	   H	-1.216	-2.950	-1.566	 H	1	UNK0	0.000	
37	   H	0.284	-3.112	1.687	 H	1	UNK0	0.000	
38	   H	0.119	-4.376	0.357	 H	1	UNK0	0.000	
39	   H	-2.009	-3.636	1.856	 H	1	UNK0	0.000	
40	   H	-2.144	-3.797	0.036	 H	1	UNK0	0.000	
41	   H	3.247	-1.382	-1.347	 H	1	UNK0	0.000	
42	   H	2.766	-0.069	-0.283	 H	1	UNK0	0.000	
43	   H	-0.143	1.756	-5.816	 H	1	UNK0	0.000	
44	   H	-1.508	3.698	-6.610	 H	1	UNK0	0.000	
45	   H	-1.727	5.039	-2.556	 H	1	UNK0	0.000	
46	   H	-0.374	3.102	-1.820	 H	1	UNK0	0.000	
47	   H	0.143	-1.050	3.523	 H	1	UNK0	0.000	
48	   H	1.977	0.586	3.879	 H	1	UNK0	0.000	
49	   H	-0.138	3.444	1.543	 H	1	UNK0	0.000	
50	   H	-1.969	1.791	1.197	 H	1	UNK0	0.000	
51	   H	3.789	1.940	3.196	 H	1	UNK0	0.000	
52	   H	3.851	3.641	3.779	 H	1	UNK0	0.000	
53	   H	2.911	2.454	4.712	 H	1	UNK0	0.000	
@<TRIPOS>BOND
1 1 2 2
2 1 3 2
3 1 4 1
4 1 25 1
5 4 5 1
6 4 9 1
7 5 6 1
8 6 7 1
9 7 8 1
10 7 10 1
11 8 9 1
12 10 11 2
13 10 12 1
14 12 13 1
15 13 14 1
16 13 17 1
17 14 15 2
18 15 16 1
19 16 17 2
20 16 18 1
21 18 19 2
22 18 23 1
23 19 20 1
24 20 21 2
25 21 22 1
26 21 24 1
27 22 23 2
28 25 26 2
29 25 30 1
30 26 27 1
31 27 28 2
32 28 29 1
33 28 31 1
34 29 30 2
35 31 32 1
36 5 33 1
37 5 34 1
38 6 35 1
39 6 36 1
40 8 37 1
41 8 38 1
42 9 39 1
43 9 40 1
44 12 41 1
45 12 42 1
46 19 43 1
47 20 44 1
48 22 45 1
49 23 46 1
50 26 47 1
51 27 48 1
52 29 49 1
53 30 50 1
54 32 51 1
55 32 52 1
56 32 53 1
@<TRIPOS>SUBSTRUCTURE
1	UNK0	1	GROUP	1 ****	UNK
