# created with PyMOL 2.3.2
@<TRIPOS>MOLECULE
1882
49 52 1                 
SMALL
USER_CHARGES
@<TRIPOS>ATOM
1	  Cl	2.848	6.169	-2.218	Cl	1	UNK0	0.000	
2	   C	2.258	5.506	-0.721	C.2	1	UNK0	0.000	
3	   C	2.769	5.997	0.468	C.2	1	UNK0	0.000	
4	   C	2.302	5.471	1.649	C.2	1	UNK0	0.000	
5	   C	1.338	4.463	1.686	C.2	1	UNK0	0.000	
6	   C	0.829	3.971	0.528	C.2	1	UNK0	0.000	
7	   C	1.310	4.515	-0.664	C.2	1	UNK0	0.000	
8	   C	-0.165	2.878	0.466	C.2	1	UNK0	0.000	
9	   N	-0.668	2.132	1.457	N.pl3	1	UNK0	0.000	
10	   C	-1.532	1.223	0.933	C.2	1	UNK0	0.000	
11	   N	-1.605	1.357	-0.389	N.pl3	1	UNK0	0.000	
12	   C	-0.750	2.395	-0.679	C.2	1	UNK0	0.000	
13	   C	-2.301	0.589	-1.422	C.3	1	UNK0	0.000	
14	   C	-1.484	-0.273	-2.257	C.2	1	UNK0	0.000	
15	   O	-1.711	-0.100	-3.547	O.2	1	UNK0	0.000	
16	   C	-0.496	-1.253	-1.952	C.2	1	UNK0	0.000	
17	   C	-0.242	-1.681	-0.677	C.2	1	UNK0	0.000	
18	   C	0.781	-2.595	-0.464	C.2	1	UNK0	0.000	
19	   C	1.574	-3.115	-1.454	C.2	1	UNK0	0.000	
20	   C	1.305	-2.672	-2.756	C.2	1	UNK0	0.000	
21	   C	0.306	-1.773	-2.994	C.2	1	UNK0	0.000	
22	   O	2.593	-4.021	-1.272	O.3	1	UNK0	0.000	
23	   C	2.928	-4.531	-0.018	C.3	1	UNK0	0.000	
24	   C	1.765	-5.294	0.583	C.3	1	UNK0	0.000	
25	   C	-2.155	0.422	2.019	C.3	1	UNK0	0.000	
26	   C	-1.240	0.664	3.168	C.3	1	UNK0	0.000	
27	   C	-0.560	1.994	2.892	C.3	1	UNK0	0.000	
28	  Cl	3.996	7.267	0.427	Cl	1	UNK0	0.000	
29	   H	2.678	5.831	2.597	 H	1	UNK0	0.000	
30	   H	0.991	4.077	2.635	 H	1	UNK0	0.000	
31	   H	0.914	4.133	-1.594	 H	1	UNK0	0.000	
32	   H	-0.585	2.759	-1.684	 H	1	UNK0	0.000	
33	   H	-2.874	1.352	-2.000	 H	1	UNK0	0.000	
34	   H	-3.082	-0.001	-0.851	 H	1	UNK0	0.000	
35	   H	-0.828	-1.342	0.179	 H	1	UNK0	0.000	
36	   H	0.957	-2.910	0.571	 H	1	UNK0	0.000	
37	   H	1.934	-3.079	-3.550	 H	1	UNK0	0.000	
38	   H	0.118	-1.437	-4.028	 H	1	UNK0	0.000	
39	   H	3.844	-5.162	-0.056	 H	1	UNK0	0.000	
40	   H	3.122	-3.637	0.639	 H	1	UNK0	0.000	
41	   H	0.837	-5.210	-0.018	 H	1	UNK0	0.000	
42	   H	1.523	-4.977	1.619	 H	1	UNK0	0.000	
43	   H	2.045	-6.386	0.632	 H	1	UNK0	0.000	
44	   H	-3.189	0.786	2.241	 H	1	UNK0	0.000	
45	   H	-2.253	-0.645	1.811	 H	1	UNK0	0.000	
46	   H	-0.484	-0.149	3.282	 H	1	UNK0	0.000	
47	   H	-1.814	0.744	4.124	 H	1	UNK0	0.000	
48	   H	0.477	1.884	3.260	 H	1	UNK0	0.000	
49	   H	-1.049	2.800	3.446	 H	1	UNK0	0.000	
@<TRIPOS>BOND
1 1 2 1
2 2 3 2
3 2 7 1
4 3 4 1
5 3 28 1
6 4 5 2
7 5 6 1
8 6 7 2
9 6 8 1
10 8 9 1
11 8 12 2
12 9 10 1
13 9 27 1
14 10 11 2
15 10 25 1
16 11 12 1
17 11 13 1
18 13 14 1
19 14 15 2
20 14 16 1
21 16 17 2
22 16 21 1
23 17 18 1
24 18 19 2
25 19 20 1
26 19 22 1
27 20 21 2
28 22 23 1
29 23 24 1
30 25 26 1
31 26 27 1
32 4 29 1
33 5 30 1
34 7 31 1
35 12 32 1
36 13 33 1
37 13 34 1
38 17 35 1
39 18 36 1
40 20 37 1
41 21 38 1
42 23 39 1
43 23 40 1
44 24 41 1
45 24 42 1
46 24 43 1
47 25 44 1
48 25 45 1
49 26 46 1
50 26 47 1
51 27 48 1
52 27 49 1
@<TRIPOS>SUBSTRUCTURE
1	UNK0	1	GROUP	1 ****	UNK
