# created with PyMOL 2.3.2
@<TRIPOS>MOLECULE
1883
50 53 1                 
SMALL
USER_CHARGES
@<TRIPOS>ATOM
1	  Br	2.944	-2.097	4.893	Br	1	UNK0	0.000	
2	   C	2.948	-0.798	3.496	C.2	1	UNK0	0.000	
3	   C	4.102	-0.163	3.092	C.2	1	UNK0	0.000	
4	   C	4.098	0.769	2.088	C.2	1	UNK0	0.000	
5	   C	2.929	1.139	1.406	C.2	1	UNK0	0.000	
6	   C	1.797	0.491	1.827	C.2	1	UNK0	0.000	
7	   C	1.792	-0.464	2.855	C.2	1	UNK0	0.000	
8	   C	2.987	2.108	0.364	C.2	1	UNK0	0.000	
9	   N	2.011	2.536	-0.268	N.2	1	UNK0	0.000	
10	   N	0.673	2.242	-0.175	N.pl3	1	UNK0	0.000	
11	   C	0.014	1.428	-1.136	C.2	1	UNK0	0.000	
12	   N	-1.289	1.123	-1.146	N.pl3	1	UNK0	0.000	
13	   C	-1.435	0.341	-2.249	C.2	1	UNK0	0.000	
14	   N	-2.491	-0.287	-2.826	N.2	1	UNK0	0.000	
15	   C	-2.408	-1.022	-3.943	C.2	1	UNK0	0.000	
16	   N	-1.203	-1.162	-4.554	N.2	1	UNK0	0.000	
17	   C	-0.124	-0.572	-4.040	C.2	1	UNK0	0.000	
18	   C	-0.239	0.191	-2.871	C.2	1	UNK0	0.000	
19	   N	0.664	0.866	-2.182	N.2	1	UNK0	0.000	
20	   O	1.103	-0.717	-4.666	O.3	1	UNK0	0.000	
21	   N	-3.526	-1.674	-4.535	N.pl3	1	UNK0	0.000	
22	   C	-2.375	1.469	-0.292	C.3	1	UNK0	0.000	
23	   O	-3.522	0.814	-0.734	O.3	1	UNK0	0.000	
24	   C	-3.929	-0.103	0.191	C.3	1	UNK0	0.000	
25	   C	-3.619	0.553	1.507	C.3	1	UNK0	0.000	
26	   C	-2.252	1.175	1.151	C.3	1	UNK0	0.000	
27	   O	-2.217	2.391	1.860	O.3	1	UNK0	0.000	
28	   O	-4.512	1.542	1.854	O.3	1	UNK0	0.000	
29	   C	-3.219	-1.438	0.134	C.3	1	UNK0	0.000	
30	   O	-3.772	-2.235	1.155	O.3	1	UNK0	0.000	
31	   N	5.307	-0.520	3.769	N.pl3	1	UNK0	0.000	
32	   O	6.408	-0.434	3.225	O.2	1	UNK0	0.000	
33	   O	5.227	-0.969	5.055	O.2	1	UNK0	0.000	
34	   H	5.029	1.243	1.803	 H	1	UNK0	0.000	
35	   H	0.839	0.658	1.405	 H	1	UNK0	0.000	
36	   H	0.872	-0.929	3.131	 H	1	UNK0	0.000	
37	   H	3.999	2.497	0.111	 H	1	UNK0	0.000	
38	   H	0.132	2.653	0.609	 H	1	UNK0	0.000	
39	   H	1.259	-1.296	-5.462	 H	1	UNK0	0.000	
40	   H	-4.322	-1.967	-3.907	 H	1	UNK0	0.000	
41	   H	-3.558	-1.856	-5.546	 H	1	UNK0	0.000	
42	   H	-2.604	2.574	-0.479	 H	1	UNK0	0.000	
43	   H	-5.032	-0.223	0.132	 H	1	UNK0	0.000	
44	   H	-3.514	-0.195	2.315	 H	1	UNK0	0.000	
45	   H	-1.523	0.445	1.471	 H	1	UNK0	0.000	
46	   H	-1.502	2.381	2.545	 H	1	UNK0	0.000	
47	   H	-5.326	1.123	2.190	 H	1	UNK0	0.000	
48	   H	-2.151	-1.298	0.290	 H	1	UNK0	0.000	
49	   H	-3.420	-1.986	-0.807	 H	1	UNK0	0.000	
50	   H	-3.074	-2.891	1.475	 H	1	UNK0	0.000	
@<TRIPOS>BOND
1 1 2 1
2 2 3 2
3 2 7 1
4 3 4 1
5 3 31 1
6 4 5 2
7 5 6 1
8 5 8 1
9 6 7 2
10 8 9 2
11 9 10 1
12 10 11 1
13 11 12 1
14 11 19 2
15 12 13 1
16 12 22 1
17 13 14 2
18 13 18 1
19 14 15 1
20 15 16 2
21 15 21 1
22 16 17 1
23 17 18 2
24 17 20 1
25 18 19 1
26 22 23 1
27 22 26 1
28 23 24 1
29 24 25 1
30 24 29 1
31 25 26 1
32 25 28 1
33 26 27 1
34 29 30 1
35 31 32 2
36 31 33 1
37 4 34 1
38 6 35 1
39 7 36 1
40 8 37 1
41 10 38 1
42 20 39 1
43 21 40 1
44 21 41 1
45 22 42 1
46 24 43 1
47 25 44 1
48 26 45 1
49 27 46 1
50 28 47 1
51 29 48 1
52 29 49 1
53 30 50 1
@<TRIPOS>SUBSTRUCTURE
1	UNK0	1	GROUP	1 ****	UNK
