# created with PyMOL 2.3.2
@<TRIPOS>MOLECULE
1884
52 54 1                 
SMALL
USER_CHARGES
@<TRIPOS>ATOM
1	  Cl	-3.547	1.148	0.606	Cl	1	UNK0	0.000	
2	   O	-4.948	1.334	-0.329	 O	1	UNK0	0.000	
3	   O	-3.392	2.489	1.624	 O	1	UNK0	0.000	
4	   O	-3.596	-0.271	1.540	 O	1	UNK0	0.000	
5	   O	-2.229	1.012	-0.475	 O	1	UNK0	0.000	
6	  Cl	-5.347	6.390	-0.477	Cl	1	UNK0	0.000	
7	   C	-3.951	5.328	-0.668	C.2	1	UNK0	0.000	
8	   C	-3.690	4.304	0.254	C.2	1	UNK0	0.000	
9	   C	-2.598	3.496	0.091	C.2	1	UNK0	0.000	
10	   C	-1.691	3.648	-0.985	C.2	1	UNK0	0.000	
11	   C	-1.930	4.626	-1.877	C.2	1	UNK0	0.000	
12	   C	-3.064	5.462	-1.713	C.2	1	UNK0	0.000	
13	   C	-0.638	2.638	-0.970	C.2	1	UNK0	0.000	
14	   C	-0.981	1.352	-1.429	C.2	1	UNK0	0.000	
15	   O	-0.169	0.353	-1.335	O.3	1	UNK0	0.000	
16	   C	1.023	0.483	-0.807	C.2	1	UNK0	0.000	
17	   C	1.451	1.698	-0.343	C.2	1	UNK0	0.000	
18	   C	2.703	1.801	0.218	C.2	1	UNK0	0.000	
19	   C	3.501	0.704	0.301	C.2	1	UNK0	0.000	
20	   C	3.074	-0.567	-0.179	C.2	1	UNK0	0.000	
21	   C	1.852	-0.668	-0.716	C.2	1	UNK0	0.000	
22	   C	1.233	-1.880	-1.269	C.3	1	UNK0	0.000	
23	   N	0.853	-2.936	-0.366	N.4	1	UNK0	0.000	
24	   C	-0.582	-2.715	-0.025	C.3	1	UNK0	0.000	
25	   C	-0.785	-1.940	1.211	C.3	1	UNK0	0.000	
26	   C	-0.011	-2.382	2.399	C.3	1	UNK0	0.000	
27	   C	0.701	-3.672	1.928	C.3	1	UNK0	0.000	
28	   C	1.612	-3.101	0.794	C.3	1	UNK0	0.000	
29	   O	4.001	-1.616	-0.059	O.3	1	UNK0	0.000	
30	   C	0.602	2.819	-0.421	C.2	1	UNK0	0.000	
31	   O	0.975	3.939	-0.002	O.2	1	UNK0	0.000	
32	   H	-4.392	4.216	1.061	 H	1	UNK0	0.000	
33	   H	-2.404	2.714	0.819	 H	1	UNK0	0.000	
34	   H	-1.246	4.745	-2.696	 H	1	UNK0	0.000	
35	   H	-3.231	6.239	-2.430	 H	1	UNK0	0.000	
36	   H	-1.987	1.246	-1.876	 H	1	UNK0	0.000	
37	   H	3.024	2.788	0.590	 H	1	UNK0	0.000	
38	   H	4.476	0.743	0.742	 H	1	UNK0	0.000	
39	   H	1.973	-2.351	-1.997	 H	1	UNK0	0.000	
40	   H	0.364	-1.665	-1.897	 H	1	UNK0	0.000	
41	   H	0.836	-3.827	-0.905	 H	1	UNK0	0.000	
42	   H	-1.111	-3.668	-0.012	 H	1	UNK0	0.000	
43	   H	-0.995	-2.164	-0.887	 H	1	UNK0	0.000	
44	   H	-1.866	-1.923	1.490	 H	1	UNK0	0.000	
45	   H	-0.563	-0.840	1.079	 H	1	UNK0	0.000	
46	   H	-0.693	-2.574	3.248	 H	1	UNK0	0.000	
47	   H	0.757	-1.616	2.640	 H	1	UNK0	0.000	
48	   H	1.299	-4.123	2.717	 H	1	UNK0	0.000	
49	   H	-0.083	-4.316	1.497	 H	1	UNK0	0.000	
50	   H	2.396	-3.873	0.711	 H	1	UNK0	0.000	
51	   H	1.944	-2.153	1.272	 H	1	UNK0	0.000	
52	   H	3.966	-2.533	-0.355	 H	1	UNK0	0.000	
@<TRIPOS>BOND
1 1 2 1
2 1 3 1
3 1 4 1
4 1 5 1
5 6 7 1
6 7 8 2
7 7 12 1
8 8 9 1
9 9 10 2
10 10 11 1
11 10 13 1
12 11 12 2
13 13 14 2
14 13 30 1
15 14 15 1
16 15 16 1
17 16 17 2
18 16 21 1
19 17 18 1
20 17 30 1
21 18 19 2
22 19 20 1
23 20 21 2
24 20 29 1
25 21 22 1
26 22 23 1
27 23 24 1
28 23 28 1
29 24 25 1
30 25 26 1
31 26 27 1
32 27 28 1
33 30 31 2
34 8 32 1
35 9 33 1
36 11 34 1
37 12 35 1
38 14 36 1
39 18 37 1
40 19 38 1
41 22 39 1
42 22 40 1
43 23 41 1
44 24 42 1
45 24 43 1
46 25 44 1
47 25 45 1
48 26 46 1
49 26 47 1
50 27 48 1
51 27 49 1
52 28 50 1
53 28 51 1
54 29 52 1
@<TRIPOS>SUBSTRUCTURE
1	UNK0	1	GROUP	1 ****	UNK
