# created with PyMOL 2.3.2
@<TRIPOS>MOLECULE
1885
56 60 1                 
SMALL
USER_CHARGES
@<TRIPOS>ATOM
1	  Cl	4.709	4.750	-4.082	Cl	1	UNK0	0.000	
2	   C	3.618	3.512	-3.485	C.2	1	UNK0	0.000	
3	   C	2.424	3.875	-2.932	C.2	1	UNK0	0.000	
4	   C	1.554	2.871	-2.455	C.2	1	UNK0	0.000	
5	   C	1.846	1.542	-2.520	C.2	1	UNK0	0.000	
6	   C	3.071	1.214	-3.090	C.2	1	UNK0	0.000	
7	   C	3.936	2.181	-3.562	C.2	1	UNK0	0.000	
8	   C	0.981	0.510	-2.046	C.2	1	UNK0	0.000	
9	   O	1.476	-0.700	-2.207	O.2	1	UNK0	0.000	
10	   N	-0.281	0.567	-1.449	N.pl3	1	UNK0	0.000	
11	   C	-1.079	1.691	-1.141	C.3	1	UNK0	0.000	
12	   C	-2.428	1.277	-0.536	C.3	1	UNK0	0.000	
13	   N	-2.251	0.386	0.562	N.3	1	UNK0	0.000	
14	   C	-1.223	-0.584	0.400	C.3	1	UNK0	0.000	
15	   C	-1.332	-1.830	1.196	C.3	1	UNK0	0.000	
16	   N	-0.186	-1.497	2.019	N.3	1	UNK0	0.000	
17	   C	-0.037	-0.241	1.277	C.3	1	UNK0	0.000	
18	   C	0.981	-2.305	1.813	C.3	1	UNK0	0.000	
19	   C	2.054	-1.791	2.769	C.3	1	UNK0	0.000	
20	   C	3.293	-2.621	2.497	C.3	1	UNK0	0.000	
21	   O	3.030	-3.943	2.821	O.3	1	UNK0	0.000	
22	   C	2.106	-4.457	1.911	C.3	1	UNK0	0.000	
23	   C	0.771	-3.761	2.146	C.3	1	UNK0	0.000	
24	   C	-0.900	-0.736	-1.072	C.3	1	UNK0	0.000	
25	   C	-3.433	-0.028	1.196	C.3	1	UNK0	0.000	
26	   C	-4.509	1.009	0.944	C.3	1	UNK0	0.000	
27	   O	-4.010	2.298	0.971	O.3	1	UNK0	0.000	
28	   C	-3.054	2.542	0.014	C.3	1	UNK0	0.000	
29	   H	2.169	4.924	-2.870	 H	1	UNK0	0.000	
30	   H	0.656	3.261	-2.045	 H	1	UNK0	0.000	
31	   H	3.394	0.162	-3.185	 H	1	UNK0	0.000	
32	   H	4.868	1.890	-3.993	 H	1	UNK0	0.000	
33	   H	-0.679	2.414	-0.423	 H	1	UNK0	0.000	
34	   H	-1.364	2.225	-2.070	 H	1	UNK0	0.000	
35	   H	-3.068	0.909	-1.354	 H	1	UNK0	0.000	
36	   H	-1.066	-2.721	0.559	 H	1	UNK0	0.000	
37	   H	-2.255	-2.045	1.729	 H	1	UNK0	0.000	
38	   H	0.904	-0.126	0.739	 H	1	UNK0	0.000	
39	   H	-0.213	0.600	1.986	 H	1	UNK0	0.000	
40	   H	1.388	-2.214	0.795	 H	1	UNK0	0.000	
41	   H	2.255	-0.715	2.597	 H	1	UNK0	0.000	
42	   H	1.674	-1.962	3.805	 H	1	UNK0	0.000	
43	   H	3.466	-2.561	1.390	 H	1	UNK0	0.000	
44	   H	4.181	-2.228	3.011	 H	1	UNK0	0.000	
45	   H	2.010	-5.555	1.974	 H	1	UNK0	0.000	
46	   H	2.453	-4.138	0.899	 H	1	UNK0	0.000	
47	   H	-0.050	-4.231	1.599	 H	1	UNK0	0.000	
48	   H	0.605	-3.821	3.260	 H	1	UNK0	0.000	
49	   H	-1.836	-0.791	-1.625	 H	1	UNK0	0.000	
50	   H	-0.209	-1.573	-1.255	 H	1	UNK0	0.000	
51	   H	-3.813	-1.026	0.900	 H	1	UNK0	0.000	
52	   H	-3.273	-0.062	2.308	 H	1	UNK0	0.000	
53	   H	-4.993	0.863	-0.047	 H	1	UNK0	0.000	
54	   H	-5.268	0.940	1.759	 H	1	UNK0	0.000	
55	   H	-2.215	3.097	0.522	 H	1	UNK0	0.000	
56	   H	-3.399	3.220	-0.792	 H	1	UNK0	0.000	
@<TRIPOS>BOND
1 1 2 1
2 2 3 2
3 2 7 1
4 3 4 1
5 4 5 2
6 5 6 1
7 5 8 1
8 6 7 2
9 8 9 2
10 8 10 1
11 10 11 1
12 10 24 1
13 11 12 1
14 12 13 1
15 12 28 1
16 13 14 1
17 13 25 1
18 14 15 1
19 14 17 1
20 14 24 1
21 15 16 1
22 16 17 1
23 16 18 1
24 18 19 1
25 18 23 1
26 19 20 1
27 20 21 1
28 21 22 1
29 22 23 1
30 25 26 1
31 26 27 1
32 27 28 1
33 3 29 1
34 4 30 1
35 6 31 1
36 7 32 1
37 11 33 1
38 11 34 1
39 12 35 1
40 15 36 1
41 15 37 1
42 17 38 1
43 17 39 1
44 18 40 1
45 19 41 1
46 19 42 1
47 20 43 1
48 20 44 1
49 22 45 1
50 22 46 1
51 23 47 1
52 23 48 1
53 24 49 1
54 24 50 1
55 25 51 1
56 25 52 1
57 26 53 1
58 26 54 1
59 28 55 1
60 28 56 1
@<TRIPOS>SUBSTRUCTURE
1	UNK0	1	GROUP	1 ****	UNK
