# created with PyMOL 2.3.2
@<TRIPOS>MOLECULE
1886
50 54 1                 
SMALL
USER_CHARGES
@<TRIPOS>ATOM
1	  Cl	-2.467	-0.315	7.401	Cl	1	UNK0	0.000	
2	   C	-1.677	-0.445	5.859	C.2	1	UNK0	0.000	
3	   C	-1.098	0.677	5.319	C.2	1	UNK0	0.000	
4	   C	-0.445	0.627	4.073	C.2	1	UNK0	0.000	
5	   C	-0.367	-0.540	3.362	C.2	1	UNK0	0.000	
6	   C	-0.977	-1.662	3.960	C.2	1	UNK0	0.000	
7	   C	-1.616	-1.628	5.171	C.2	1	UNK0	0.000	
8	   C	0.278	-0.672	2.091	C.2	1	UNK0	0.000	
9	   O	0.225	-1.903	1.599	O.2	1	UNK0	0.000	
10	   N	0.948	0.244	1.278	N.pl3	1	UNK0	0.000	
11	   C	1.166	1.626	1.531	C.3	1	UNK0	0.000	
12	   C	2.021	2.184	0.376	C.3	1	UNK0	0.000	
13	   N	1.418	1.978	-0.898	N.3	1	UNK0	0.000	
14	   C	0.933	0.627	-1.085	C.3	1	UNK0	0.000	
15	   C	0.972	0.103	-2.496	C.3	1	UNK0	0.000	
16	   N	-0.437	0.364	-2.635	N.3	1	UNK0	0.000	
17	   C	-0.579	0.498	-1.208	C.3	1	UNK0	0.000	
18	   C	-1.234	-0.577	-3.310	C.3	1	UNK0	0.000	
19	   C	-1.374	-1.951	-2.772	C.3	1	UNK0	0.000	
20	   O	-0.342	-2.461	-3.552	O.3	1	UNK0	0.000	
21	   C	-0.487	-1.351	-4.386	C.3	1	UNK0	0.000	
22	   C	1.522	-0.223	-0.018	C.3	1	UNK0	0.000	
23	   C	2.332	2.416	-1.910	C.3	1	UNK0	0.000	
24	   C	3.192	3.569	-1.372	C.3	1	UNK0	0.000	
25	   O	2.447	4.378	-0.524	O.3	1	UNK0	0.000	
26	   C	2.063	3.695	0.614	C.3	1	UNK0	0.000	
27	   H	-1.128	1.625	5.835	 H	1	UNK0	0.000	
28	   H	-0.006	1.530	3.691	 H	1	UNK0	0.000	
29	   H	-0.926	-2.590	3.415	 H	1	UNK0	0.000	
30	   H	-2.078	-2.486	5.621	 H	1	UNK0	0.000	
31	   H	0.241	2.249	1.605	 H	1	UNK0	0.000	
32	   H	1.802	1.783	2.418	 H	1	UNK0	0.000	
33	   H	3.035	1.826	0.514	 H	1	UNK0	0.000	
34	   H	1.275	-0.956	-2.498	 H	1	UNK0	0.000	
35	   H	1.537	0.708	-3.233	 H	1	UNK0	0.000	
36	   H	-1.059	1.460	-0.930	 H	1	UNK0	0.000	
37	   H	-1.019	-0.345	-0.678	 H	1	UNK0	0.000	
38	   H	-2.169	-0.158	-3.729	 H	1	UNK0	0.000	
39	   H	-1.286	-2.095	-1.687	 H	1	UNK0	0.000	
40	   H	-2.340	-2.423	-3.118	 H	1	UNK0	0.000	
41	   H	-1.097	-1.528	-5.302	 H	1	UNK0	0.000	
42	   H	0.471	-0.874	-4.689	 H	1	UNK0	0.000	
43	   H	2.607	-0.083	0.042	 H	1	UNK0	0.000	
44	   H	1.336	-1.307	-0.129	 H	1	UNK0	0.000	
45	   H	1.737	2.840	-2.745	 H	1	UNK0	0.000	
46	   H	3.049	1.640	-2.230	 H	1	UNK0	0.000	
47	   H	4.085	3.138	-0.904	 H	1	UNK0	0.000	
48	   H	3.500	4.165	-2.256	 H	1	UNK0	0.000	
49	   H	2.788	3.952	1.413	 H	1	UNK0	0.000	
50	   H	1.032	3.989	0.896	 H	1	UNK0	0.000	
@<TRIPOS>BOND
1 1 2 1
2 2 3 2
3 2 7 1
4 3 4 1
5 4 5 2
6 5 6 1
7 5 8 1
8 6 7 2
9 8 9 2
10 8 10 1
11 10 11 1
12 10 22 1
13 11 12 1
14 12 13 1
15 12 26 1
16 13 14 1
17 13 23 1
18 14 15 1
19 14 17 1
20 14 22 1
21 15 16 1
22 16 17 1
23 16 18 1
24 18 19 1
25 18 21 1
26 19 20 1
27 20 21 1
28 23 24 1
29 24 25 1
30 25 26 1
31 3 27 1
32 4 28 1
33 6 29 1
34 7 30 1
35 11 31 1
36 11 32 1
37 12 33 1
38 15 34 1
39 15 35 1
40 17 36 1
41 17 37 1
42 18 38 1
43 19 39 1
44 19 40 1
45 21 41 1
46 21 42 1
47 22 43 1
48 22 44 1
49 23 45 1
50 23 46 1
51 24 47 1
52 24 48 1
53 26 49 1
54 26 50 1
@<TRIPOS>SUBSTRUCTURE
1	UNK0	1	GROUP	1 ****	UNK
