# created with PyMOL 2.3.2
@<TRIPOS>MOLECULE
1891
55 58 1                 
SMALL
USER_CHARGES
@<TRIPOS>ATOM
1	  Cl	1.389	7.305	-1.876	Cl	1	UNK0	0.000	
2	   C	0.697	5.774	-2.371	C.2	1	UNK0	0.000	
3	   C	1.289	5.081	-3.401	C.2	1	UNK0	0.000	
4	   C	0.734	3.895	-3.768	C.2	1	UNK0	0.000	
5	   C	-0.404	3.323	-3.172	C.2	1	UNK0	0.000	
6	   C	-0.969	4.039	-2.148	C.2	1	UNK0	0.000	
7	   C	-0.415	5.255	-1.759	C.2	1	UNK0	0.000	
8	   C	-0.845	2.020	-3.637	C.2	1	UNK0	0.000	
9	   O	0.010	1.386	-4.396	O.2	1	UNK0	0.000	
10	   N	-2.034	1.336	-3.407	N.pl3	1	UNK0	0.000	
11	   C	-3.185	1.798	-2.684	C.3	1	UNK0	0.000	
12	   C	-3.157	1.113	-1.307	C.3	1	UNK0	0.000	
13	   N	-2.599	-0.223	-1.566	N.pl3	1	UNK0	0.000	
14	   C	-2.908	-0.822	-2.846	C.3	1	UNK0	0.000	
15	   C	-2.131	-0.068	-3.916	C.3	1	UNK0	0.000	
16	   C	-1.792	-0.903	-0.594	C.2	1	UNK0	0.000	
17	   N	-1.237	-2.096	-0.872	N.2	1	UNK0	0.000	
18	   N	-0.487	-2.776	-0.023	N.2	1	UNK0	0.000	
19	   C	-0.202	-2.322	1.234	C.2	1	UNK0	0.000	
20	   C	-0.757	-1.100	1.549	C.2	1	UNK0	0.000	
21	   C	-1.548	-0.383	0.656	C.2	1	UNK0	0.000	
22	   N	0.608	-3.073	2.122	N.pl3	1	UNK0	0.000	
23	   C	0.843	-2.596	3.445	C.3	1	UNK0	0.000	
24	   C	1.333	-3.573	4.439	C.3	1	UNK0	0.000	
25	   N	2.076	-4.683	3.954	N.3	1	UNK0	0.000	
26	   C	1.547	-5.274	2.753	C.3	1	UNK0	0.000	
27	   C	1.195	-4.310	1.690	C.3	1	UNK0	0.000	
28	   C	2.071	-5.712	4.979	C.3	1	UNK0	0.000	
29	   N	2.452	5.601	-4.056	N.pl3	1	UNK0	0.000	
30	   O	2.708	5.307	-5.249	O.2	1	UNK0	0.000	
31	   O	3.277	6.429	-3.347	O.2	1	UNK0	0.000	
32	   H	1.202	3.339	-4.593	 H	1	UNK0	0.000	
33	   H	-1.808	3.672	-1.616	 H	1	UNK0	0.000	
34	   H	-0.873	5.820	-0.941	 H	1	UNK0	0.000	
35	   H	-3.384	2.835	-2.705	 H	1	UNK0	0.000	
36	   H	-4.079	1.317	-3.259	 H	1	UNK0	0.000	
37	   H	-4.211	0.945	-1.003	 H	1	UNK0	0.000	
38	   H	-2.572	1.681	-0.592	 H	1	UNK0	0.000	
39	   H	-2.610	-1.894	-2.819	 H	1	UNK0	0.000	
40	   H	-4.006	-0.711	-3.005	 H	1	UNK0	0.000	
41	   H	-1.095	-0.455	-3.894	 H	1	UNK0	0.000	
42	   H	-2.629	-0.101	-4.888	 H	1	UNK0	0.000	
43	   H	-0.549	-0.705	2.550	 H	1	UNK0	0.000	
44	   H	-1.949	0.554	0.959	 H	1	UNK0	0.000	
45	   H	-0.161	-2.233	3.824	 H	1	UNK0	0.000	
46	   H	1.452	-1.649	3.417	 H	1	UNK0	0.000	
47	   H	2.004	-3.016	5.158	 H	1	UNK0	0.000	
48	   H	0.509	-3.960	5.108	 H	1	UNK0	0.000	
49	   H	2.359	-5.953	2.356	 H	1	UNK0	0.000	
50	   H	0.703	-5.960	2.989	 H	1	UNK0	0.000	
51	   H	0.426	-4.803	1.029	 H	1	UNK0	0.000	
52	   H	2.061	-4.127	0.988	 H	1	UNK0	0.000	
53	   H	3.063	-6.192	5.089	 H	1	UNK0	0.000	
54	   H	1.307	-6.477	4.727	 H	1	UNK0	0.000	
55	   H	1.748	-5.282	5.969	 H	1	UNK0	0.000	
@<TRIPOS>BOND
1 1 2 1
2 2 3 2
3 2 7 1
4 3 4 1
5 3 29 1
6 4 5 2
7 5 6 1
8 5 8 1
9 6 7 2
10 8 9 2
11 8 10 1
12 10 11 1
13 10 15 1
14 11 12 1
15 12 13 1
16 13 14 1
17 13 16 1
18 14 15 1
19 16 17 2
20 16 21 1
21 17 18 1
22 18 19 2
23 19 20 1
24 19 22 1
25 20 21 2
26 22 23 1
27 22 27 1
28 23 24 1
29 24 25 1
30 25 26 1
31 25 28 1
32 26 27 1
33 29 30 2
34 29 31 1
35 4 32 1
36 6 33 1
37 7 34 1
38 11 35 1
39 11 36 1
40 12 37 1
41 12 38 1
42 14 39 1
43 14 40 1
44 15 41 1
45 15 42 1
46 20 43 1
47 21 44 1
48 23 45 1
49 23 46 1
50 24 47 1
51 24 48 1
52 26 49 1
53 26 50 1
54 27 51 1
55 27 52 1
56 28 53 1
57 28 54 1
58 28 55 1
@<TRIPOS>SUBSTRUCTURE
1	UNK0	1	GROUP	1 ****	UNK
