# created with PyMOL 2.3.2
@<TRIPOS>MOLECULE
1892
55 58 1                 
SMALL
USER_CHARGES
@<TRIPOS>ATOM
1	  Cl	8.377	0.761	-2.197	Cl	1	UNK0	0.000	
2	   C	6.748	0.666	-1.536	C.2	1	UNK0	0.000	
3	   C	6.102	-0.528	-1.312	C.2	1	UNK0	0.000	
4	   C	4.827	-0.617	-0.796	C.2	1	UNK0	0.000	
5	   C	4.134	0.509	-0.479	C.2	1	UNK0	0.000	
6	   C	4.763	1.743	-0.695	C.2	1	UNK0	0.000	
7	   C	6.034	1.803	-1.210	C.2	1	UNK0	0.000	
8	   C	2.794	0.556	0.031	C.2	1	UNK0	0.000	
9	   C	1.780	-0.062	-0.521	C.2	1	UNK0	0.000	
10	   C	0.350	-0.081	-0.067	C.3	1	UNK0	0.000	
11	   N	-0.169	-1.297	-0.637	N.pl3	1	UNK0	0.000	
12	   C	0.587	-1.631	-1.817	C.2	1	UNK0	0.000	
13	   O	0.304	-2.420	-2.751	O.2	1	UNK0	0.000	
14	   C	1.838	-0.841	-1.750	C.2	1	UNK0	0.000	
15	   O	2.755	-0.846	-2.588	O.2	1	UNK0	0.000	
16	   C	-1.269	-2.085	-0.134	C.3	1	UNK0	0.000	
17	   C	-2.610	-1.694	-0.697	C.3	1	UNK0	0.000	
18	   N	-3.005	-0.347	-0.430	N.4	1	UNK0	0.000	
19	   C	-4.359	-0.274	0.126	C.3	1	UNK0	0.000	
20	   C	-5.424	-0.377	-0.927	C.3	1	UNK0	0.000	
21	   O	-4.909	-0.992	-2.070	O.3	1	UNK0	0.000	
22	   C	-3.973	-0.139	-2.677	C.3	1	UNK0	0.000	
23	   C	-3.033	0.461	-1.648	C.3	1	UNK0	0.000	
24	   C	0.243	-0.020	1.406	C.2	1	UNK0	0.000	
25	   C	0.579	-1.093	2.209	C.2	1	UNK0	0.000	
26	   C	0.465	-1.005	3.580	C.2	1	UNK0	0.000	
27	   C	0.011	0.159	4.209	C.2	1	UNK0	0.000	
28	   C	-0.317	1.211	3.403	C.2	1	UNK0	0.000	
29	   C	-0.208	1.137	2.029	C.2	1	UNK0	0.000	
30	   N	-0.088	0.194	5.626	N.pl3	1	UNK0	0.000	
31	   O	-0.486	1.211	6.212	O.2	1	UNK0	0.000	
32	   O	0.257	-0.900	6.369	O.2	1	UNK0	0.000	
33	   O	2.558	1.313	1.194	O.2	1	UNK0	0.000	
34	   H	6.637	-1.456	-1.558	 H	1	UNK0	0.000	
35	   H	4.356	-1.597	-0.613	 H	1	UNK0	0.000	
36	   H	4.249	2.687	-0.456	 H	1	UNK0	0.000	
37	   H	6.545	2.757	-1.387	 H	1	UNK0	0.000	
38	   H	-0.200	0.768	-0.517	 H	1	UNK0	0.000	
39	   H	-1.083	-3.185	-0.269	 H	1	UNK0	0.000	
40	   H	-1.367	-1.978	0.985	 H	1	UNK0	0.000	
41	   H	-3.345	-2.455	-0.327	 H	1	UNK0	0.000	
42	   H	-2.626	-1.826	-1.815	 H	1	UNK0	0.000	
43	   H	-2.381	0.127	0.240	 H	1	UNK0	0.000	
44	   H	-4.477	-0.994	0.954	 H	1	UNK0	0.000	
45	   H	-4.451	0.765	0.560	 H	1	UNK0	0.000	
46	   H	-5.878	0.626	-1.181	 H	1	UNK0	0.000	
47	   H	-6.269	-0.997	-0.565	 H	1	UNK0	0.000	
48	   H	-4.551	0.632	-3.215	 H	1	UNK0	0.000	
49	   H	-3.386	-0.696	-3.435	 H	1	UNK0	0.000	
50	   H	-1.990	0.444	-2.080	 H	1	UNK0	0.000	
51	   H	-3.300	1.496	-1.383	 H	1	UNK0	0.000	
52	   H	0.933	-2.008	1.737	 H	1	UNK0	0.000	
53	   H	0.738	-1.872	4.176	 H	1	UNK0	0.000	
54	   H	-0.678	2.144	3.851	 H	1	UNK0	0.000	
55	   H	-0.482	2.007	1.418	 H	1	UNK0	0.000	
@<TRIPOS>BOND
1 1 2 1
2 2 3 2
3 2 7 1
4 3 4 1
5 4 5 2
6 5 6 1
7 5 8 1
8 6 7 2
9 8 9 2
10 8 33 1
11 9 10 1
12 9 14 1
13 10 11 1
14 10 24 1
15 11 12 1
16 11 16 1
17 12 13 2
18 12 14 1
19 14 15 2
20 16 17 1
21 17 18 1
22 18 19 1
23 18 23 1
24 19 20 1
25 20 21 1
26 21 22 1
27 22 23 1
28 24 25 2
29 24 29 1
30 25 26 1
31 26 27 2
32 27 28 1
33 27 30 1
34 28 29 2
35 30 31 2
36 30 32 1
37 3 34 1
38 4 35 1
39 6 36 1
40 7 37 1
41 10 38 1
42 16 39 1
43 16 40 1
44 17 41 1
45 17 42 1
46 18 43 1
47 19 44 1
48 19 45 1
49 20 46 1
50 20 47 1
51 22 48 1
52 22 49 1
53 23 50 1
54 23 51 1
55 25 52 1
56 26 53 1
57 28 54 1
58 29 55 1
@<TRIPOS>SUBSTRUCTURE
1	UNK0	1	GROUP	1 ****	UNK
