# created with PyMOL 2.3.2
@<TRIPOS>MOLECULE
1893
41 44 1                 
SMALL
USER_CHARGES
@<TRIPOS>ATOM
1	  Cl	-2.592	-4.170	-7.363	Cl	1	UNK0	0.000	
2	   C	-2.432	-2.968	-6.077	C.2	1	UNK0	0.000	
3	   C	-3.296	-2.962	-5.002	C.2	1	UNK0	0.000	
4	   C	-3.121	-1.997	-4.027	C.2	1	UNK0	0.000	
5	   C	-2.123	-1.047	-4.087	C.2	1	UNK0	0.000	
6	   C	-1.278	-1.086	-5.178	C.2	1	UNK0	0.000	
7	   C	-1.417	-2.039	-6.183	C.2	1	UNK0	0.000	
8	   N	-1.965	-0.073	-3.078	N.pl3	1	UNK0	0.000	
9	   C	-1.900	-0.288	-1.743	C.2	1	UNK0	0.000	
10	   O	-1.975	-1.426	-1.210	O.2	1	UNK0	0.000	
11	   C	-1.742	0.904	-1.056	C.2	1	UNK0	0.000	
12	   C	-1.711	1.854	-1.977	C.2	1	UNK0	0.000	
13	   N	-1.557	3.014	-1.304	N.pl3	1	UNK0	0.000	
14	   N	-1.499	2.748	0.008	N.pl3	1	UNK0	0.000	
15	   N	-1.613	1.440	0.171	N.pl3	1	UNK0	0.000	
16	   C	-1.600	0.717	1.425	C.3	1	UNK0	0.000	
17	   C	-0.237	0.307	1.845	C.2	1	UNK0	0.000	
18	   C	0.345	-0.896	1.513	C.2	1	UNK0	0.000	
19	   C	1.614	-1.273	1.905	C.2	1	UNK0	0.000	
20	   C	2.353	-0.407	2.674	C.2	1	UNK0	0.000	
21	   C	1.811	0.806	3.029	C.2	1	UNK0	0.000	
22	   C	0.535	1.159	2.622	C.2	1	UNK0	0.000	
23	   O	2.111	-2.522	1.512	O.3	1	UNK0	0.000	
24	   C	3.403	-2.954	1.888	C.3	1	UNK0	0.000	
25	   C	-1.847	1.259	-3.214	C.2	1	UNK0	0.000	
26	   O	-1.855	1.895	-4.291	O.2	1	UNK0	0.000	
27	   H	-4.075	-3.706	-4.959	 H	1	UNK0	0.000	
28	   H	-3.786	-1.978	-3.181	 H	1	UNK0	0.000	
29	   H	-0.501	-0.331	-5.206	 H	1	UNK0	0.000	
30	   H	-0.722	-2.026	-7.026	 H	1	UNK0	0.000	
31	   H	-1.496	3.953	-1.739	 H	1	UNK0	0.000	
32	   H	-1.385	3.419	0.797	 H	1	UNK0	0.000	
33	   H	-2.057	1.331	2.225	 H	1	UNK0	0.000	
34	   H	-2.193	-0.230	1.260	 H	1	UNK0	0.000	
35	   H	-0.230	-1.608	0.897	 H	1	UNK0	0.000	
36	   H	3.366	-0.682	3.000	 H	1	UNK0	0.000	
37	   H	2.396	1.484	3.634	 H	1	UNK0	0.000	
38	   H	0.117	2.114	2.905	 H	1	UNK0	0.000	
39	   H	4.201	-2.441	1.303	 H	1	UNK0	0.000	
40	   H	3.504	-4.033	1.687	 H	1	UNK0	0.000	
41	   H	3.588	-2.709	2.963	 H	1	UNK0	0.000	
@<TRIPOS>BOND
1 1 2 1
2 2 3 2
3 2 7 1
4 3 4 1
5 4 5 2
6 5 6 1
7 5 8 1
8 6 7 2
9 8 9 1
10 8 25 1
11 9 10 2
12 9 11 1
13 11 12 2
14 11 15 1
15 12 13 1
16 12 25 1
17 13 14 1
18 14 15 1
19 15 16 1
20 16 17 1
21 17 18 2
22 17 22 1
23 18 19 1
24 19 20 2
25 19 23 1
26 20 21 1
27 21 22 2
28 23 24 1
29 25 26 2
30 3 27 1
31 4 28 1
32 6 29 1
33 7 30 1
34 13 31 1
35 14 32 1
36 16 33 1
37 16 34 1
38 18 35 1
39 20 36 1
40 21 37 1
41 22 38 1
42 24 39 1
43 24 40 1
44 24 41 1
@<TRIPOS>SUBSTRUCTURE
1	UNK0	1	GROUP	1 ****	UNK
