# created with PyMOL 2.3.2
@<TRIPOS>MOLECULE
1894
37 40 1                 
SMALL
USER_CHARGES
@<TRIPOS>ATOM
1	  Cl	-6.726	-0.836	1.911	Cl	1	UNK0	0.000	
2	   C	-5.247	-0.484	1.021	C.2	1	UNK0	0.000	
3	   C	-4.304	-1.463	0.790	C.2	1	UNK0	0.000	
4	   C	-3.143	-1.189	0.092	C.2	1	UNK0	0.000	
5	   C	-2.874	0.069	-0.404	C.2	1	UNK0	0.000	
6	   C	-3.826	1.044	-0.168	C.2	1	UNK0	0.000	
7	   C	-4.989	0.779	0.529	C.2	1	UNK0	0.000	
8	   N	-1.673	0.343	-1.123	N.pl3	1	UNK0	0.000	
9	   C	-0.452	-0.203	-0.925	C.2	1	UNK0	0.000	
10	   O	-0.201	-1.057	-0.049	O.2	1	UNK0	0.000	
11	   C	0.472	0.311	-1.819	C.2	1	UNK0	0.000	
12	   C	-0.202	1.188	-2.577	C.2	1	UNK0	0.000	
13	   N	0.703	1.679	-3.442	N.pl3	1	UNK0	0.000	
14	   N	1.879	1.122	-3.217	N.pl3	1	UNK0	0.000	
15	   N	1.754	0.275	-2.218	N.pl3	1	UNK0	0.000	
16	   C	2.790	-0.547	-1.638	C.3	1	UNK0	0.000	
17	   C	3.530	0.113	-0.541	C.2	1	UNK0	0.000	
18	   C	4.627	0.887	-0.830	C.2	1	UNK0	0.000	
19	   C	5.303	1.489	0.206	C.2	1	UNK0	0.000	
20	   C	4.901	1.330	1.520	C.2	1	UNK0	0.000	
21	   C	3.802	0.554	1.811	C.2	1	UNK0	0.000	
22	   C	3.141	-0.037	0.770	C.2	1	UNK0	0.000	
23	   C	-1.510	1.197	-2.141	C.2	1	UNK0	0.000	
24	   O	-2.425	1.912	-2.634	O.2	1	UNK0	0.000	
25	   H	-4.525	-2.447	1.184	 H	1	UNK0	0.000	
26	   H	-2.404	-1.964	-0.087	 H	1	UNK0	0.000	
27	   H	-3.637	2.031	-0.545	 H	1	UNK0	0.000	
28	   H	-5.742	1.556	0.714	 H	1	UNK0	0.000	
29	   H	0.538	2.388	-4.186	 H	1	UNK0	0.000	
30	   H	2.779	1.318	-3.747	 H	1	UNK0	0.000	
31	   H	2.322	-1.485	-1.228	 H	1	UNK0	0.000	
32	   H	3.504	-0.914	-2.425	 H	1	UNK0	0.000	
33	   H	4.974	1.035	-1.864	 H	1	UNK0	0.000	
34	   H	6.178	2.106	-0.034	 H	1	UNK0	0.000	
35	   H	5.432	1.805	2.353	 H	1	UNK0	0.000	
36	   H	3.466	0.412	2.824	 H	1	UNK0	0.000	
37	   H	2.270	-0.650	1.036	 H	1	UNK0	0.000	
@<TRIPOS>BOND
1 1 2 1
2 2 3 2
3 2 7 1
4 3 4 1
5 4 5 2
6 5 6 1
7 5 8 1
8 6 7 2
9 8 9 1
10 8 23 1
11 9 10 2
12 9 11 1
13 11 12 2
14 11 15 1
15 12 13 1
16 12 23 1
17 13 14 1
18 14 15 1
19 15 16 1
20 16 17 1
21 17 18 2
22 17 22 1
23 18 19 1
24 19 20 2
25 20 21 1
26 21 22 2
27 23 24 2
28 3 25 1
29 4 26 1
30 6 27 1
31 7 28 1
32 13 29 1
33 14 30 1
34 16 31 1
35 16 32 1
36 18 33 1
37 19 34 1
38 20 35 1
39 21 36 1
40 22 37 1
@<TRIPOS>SUBSTRUCTURE
1	UNK0	1	GROUP	1 ****	UNK
