# created with PyMOL 2.3.2
@<TRIPOS>MOLECULE
1896
66 69 1                 
SMALL
USER_CHARGES
@<TRIPOS>ATOM
1	  Cl	-6.623	5.253	-2.697	Cl	1	UNK0	0.000	
2	   C	-5.790	3.917	-1.927	C.2	1	UNK0	0.000	
3	   C	-4.841	3.172	-2.604	C.2	1	UNK0	0.000	
4	   C	-4.192	2.126	-1.993	C.2	1	UNK0	0.000	
5	   C	-4.496	1.834	-0.710	C.2	1	UNK0	0.000	
6	   C	-5.456	2.586	-0.023	C.2	1	UNK0	0.000	
7	   C	-6.112	3.631	-0.615	C.2	1	UNK0	0.000	
8	   C	-3.168	1.411	-2.832	C.3	1	UNK0	0.000	
9	   N	-2.195	2.351	-3.200	N.pl3	1	UNK0	0.000	
10	   C	-0.826	2.212	-2.903	C.2	1	UNK0	0.000	
11	   O	0.017	3.112	-3.223	O.2	1	UNK0	0.000	
12	   N	-0.425	1.036	-2.236	N.pl3	1	UNK0	0.000	
13	   C	-1.420	0.038	-1.883	C.2	1	UNK0	0.000	
14	   C	-2.688	0.190	-2.152	C.2	1	UNK0	0.000	
15	   C	-3.730	-0.813	-1.799	C.2	1	UNK0	0.000	
16	   O	-4.931	-0.530	-2.158	O.co2	1	UNK0	0.000	
17	   O	-3.593	-1.978	-1.153	O.3	1	UNK0	0.000	
18	   C	-4.628	-2.892	-0.845	C.3	1	UNK0	0.000	
19	   C	-0.907	-1.169	-1.232	C.3	1	UNK0	0.000	
20	   N	-0.288	-0.965	0.026	N.3	1	UNK0	0.000	
21	   C	-1.087	-0.562	1.110	C.3	1	UNK0	0.000	
22	   C	-0.190	0.183	2.096	C.3	1	UNK0	0.000	
23	   C	1.009	-0.640	2.491	C.3	1	UNK0	0.000	
24	   C	1.045	-1.977	1.786	C.3	1	UNK0	0.000	
25	   C	0.768	-1.876	0.318	C.3	1	UNK0	0.000	
26	   N	2.228	0.083	2.400	N.3	1	UNK0	0.000	
27	   C	3.398	-0.708	2.684	C.3	1	UNK0	0.000	
28	   C	4.504	0.247	3.081	C.3	1	UNK0	0.000	
29	   C	4.876	1.034	1.832	C.3	1	UNK0	0.000	
30	   C	3.851	0.904	0.756	C.3	1	UNK0	0.000	
31	   C	2.423	0.953	1.320	C.3	1	UNK0	0.000	
32	   C	0.822	-0.969	3.934	C.2	1	UNK0	0.000	
33	   O	1.630	-0.612	4.822	O.2	1	UNK0	0.000	
34	   N	-0.327	-1.718	4.275	N.pl3	1	UNK0	0.000	
35	   H	-4.620	3.434	-3.635	 H	1	UNK0	0.000	
36	   H	-3.983	1.025	-0.205	 H	1	UNK0	0.000	
37	   H	-5.672	2.314	1.016	 H	1	UNK0	0.000	
38	   H	-6.852	4.202	-0.068	 H	1	UNK0	0.000	
39	   H	-3.744	1.049	-3.740	 H	1	UNK0	0.000	
40	   H	-2.535	3.210	-3.735	 H	1	UNK0	0.000	
41	   H	0.581	0.912	-2.011	 H	1	UNK0	0.000	
42	   H	-4.636	-3.199	0.215	 H	1	UNK0	0.000	
43	   H	-5.616	-2.543	-1.215	 H	1	UNK0	0.000	
44	   H	-4.400	-3.828	-1.431	 H	1	UNK0	0.000	
45	   H	-0.005	-1.464	-1.904	 H	1	UNK0	0.000	
46	   H	-1.532	-2.041	-1.282	 H	1	UNK0	0.000	
47	   H	-1.459	-1.453	1.657	 H	1	UNK0	0.000	
48	   H	-1.862	0.129	0.788	 H	1	UNK0	0.000	
49	   H	-0.847	0.450	2.951	 H	1	UNK0	0.000	
50	   H	0.172	1.140	1.680	 H	1	UNK0	0.000	
51	   H	0.306	-2.678	2.224	 H	1	UNK0	0.000	
52	   H	2.042	-2.424	1.945	 H	1	UNK0	0.000	
53	   H	1.678	-1.548	-0.228	 H	1	UNK0	0.000	
54	   H	0.486	-2.874	-0.076	 H	1	UNK0	0.000	
55	   H	3.234	-1.518	3.404	 H	1	UNK0	0.000	
56	   H	3.734	-1.196	1.726	 H	1	UNK0	0.000	
57	   H	5.383	-0.279	3.504	 H	1	UNK0	0.000	
58	   H	4.069	0.973	3.796	 H	1	UNK0	0.000	
59	   H	5.003	2.109	2.073	 H	1	UNK0	0.000	
60	   H	5.844	0.629	1.419	 H	1	UNK0	0.000	
61	   H	3.958	1.792	0.073	 H	1	UNK0	0.000	
62	   H	4.000	0.017	0.110	 H	1	UNK0	0.000	
63	   H	1.771	0.873	0.455	 H	1	UNK0	0.000	
64	   H	2.317	2.014	1.692	 H	1	UNK0	0.000	
65	   H	-0.261	-2.716	4.526	 H	1	UNK0	0.000	
66	   H	-1.248	-1.252	4.270	 H	1	UNK0	0.000	
@<TRIPOS>BOND
1 1 2 1
2 2 3 2
3 2 7 1
4 3 4 1
5 4 5 2
6 4 8 1
7 5 6 1
8 6 7 2
9 8 9 1
10 8 14 1
11 9 10 1
12 10 11 2
13 10 12 1
14 12 13 1
15 13 14 2
16 13 19 1
17 14 15 1
18 15 16 2
19 15 17 1
20 17 18 1
21 19 20 1
22 20 21 1
23 20 25 1
24 21 22 1
25 22 23 1
26 23 24 1
27 23 26 1
28 23 32 1
29 24 25 1
30 26 27 1
31 26 31 1
32 27 28 1
33 28 29 1
34 29 30 1
35 30 31 1
36 32 33 2
37 32 34 1
38 3 35 1
39 5 36 1
40 6 37 1
41 7 38 1
42 8 39 1
43 9 40 1
44 12 41 1
45 18 42 1
46 18 43 1
47 18 44 1
48 19 45 1
49 19 46 1
50 21 47 1
51 21 48 1
52 22 49 1
53 22 50 1
54 24 51 1
55 24 52 1
56 25 53 1
57 25 54 1
58 27 55 1
59 27 56 1
60 28 57 1
61 28 58 1
62 29 59 1
63 29 60 1
64 30 61 1
65 30 62 1
66 31 63 1
67 31 64 1
68 34 65 1
69 34 66 1
@<TRIPOS>SUBSTRUCTURE
1	UNK0	1	GROUP	1 ****	UNK
