# created with PyMOL 2.3.2
@<TRIPOS>MOLECULE
1897
52 55 1                 
SMALL
USER_CHARGES
@<TRIPOS>ATOM
1	  Cl	2.341	-4.637	-2.433	Cl	1	UNK0	0.000	
2	   C	1.118	-4.581	-1.150	C.2	1	UNK0	0.000	
3	   C	0.928	-3.397	-0.451	C.2	1	UNK0	0.000	
4	   C	0.001	-3.273	0.557	C.2	1	UNK0	0.000	
5	   C	-0.738	-4.429	0.827	C.2	1	UNK0	0.000	
6	   C	-0.571	-5.608	0.154	C.2	1	UNK0	0.000	
7	   C	0.368	-5.683	-0.845	C.2	1	UNK0	0.000	
8	   O	-1.702	-4.400	1.832	O.3	1	UNK0	0.000	
9	   C	-2.485	-5.521	2.163	C.3	1	UNK0	0.000	
10	   N	-0.251	-2.119	1.306	N.pl3	1	UNK0	0.000	
11	   C	0.400	-0.881	1.162	C.2	1	UNK0	0.000	
12	   O	1.302	-0.618	0.345	O.2	1	UNK0	0.000	
13	   C	-0.023	0.238	2.072	C.3	1	UNK0	0.000	
14	   N	0.771	1.398	1.749	N.pl3	1	UNK0	0.000	
15	   N	0.372	2.262	0.846	N.2	1	UNK0	0.000	
16	   C	1.060	3.366	0.494	C.2	1	UNK0	0.000	
17	   N	2.237	3.545	1.149	N.pl3	1	UNK0	0.000	
18	   C	2.884	4.756	0.691	C.3	1	UNK0	0.000	
19	   C	1.987	5.275	-0.376	C.3	1	UNK0	0.000	
20	   N	0.825	4.398	-0.422	N.pl3	1	UNK0	0.000	
21	   C	-0.300	4.611	-1.263	C.2	1	UNK0	0.000	
22	   C	-0.356	5.703	-2.114	C.2	1	UNK0	0.000	
23	   C	-1.427	5.942	-2.943	C.2	1	UNK0	0.000	
24	   C	-2.507	5.090	-2.959	C.2	1	UNK0	0.000	
25	   C	-2.467	3.999	-2.118	C.2	1	UNK0	0.000	
26	   C	-1.388	3.766	-1.289	C.2	1	UNK0	0.000	
27	   O	-3.613	5.305	-3.790	O.3	1	UNK0	0.000	
28	   C	-3.715	6.387	-4.662	C.3	1	UNK0	0.000	
29	   C	2.681	2.677	2.084	C.2	1	UNK0	0.000	
30	   O	3.786	2.866	2.683	O.2	1	UNK0	0.000	
31	   C	1.943	1.576	2.401	C.2	1	UNK0	0.000	
32	   O	2.371	0.778	3.274	O.2	1	UNK0	0.000	
33	   H	1.543	-2.545	-0.723	 H	1	UNK0	0.000	
34	   H	-1.157	-6.486	0.385	 H	1	UNK0	0.000	
35	   H	0.548	-6.591	-1.416	 H	1	UNK0	0.000	
36	   H	-3.008	-5.278	3.131	 H	1	UNK0	0.000	
37	   H	-3.298	-5.617	1.403	 H	1	UNK0	0.000	
38	   H	-1.905	-6.449	2.282	 H	1	UNK0	0.000	
39	   H	-0.996	-2.176	2.048	 H	1	UNK0	0.000	
40	   H	0.178	-0.135	3.103	 H	1	UNK0	0.000	
41	   H	-1.110	0.423	2.018	 H	1	UNK0	0.000	
42	   H	3.891	4.518	0.329	 H	1	UNK0	0.000	
43	   H	2.897	5.482	1.546	 H	1	UNK0	0.000	
44	   H	2.487	5.169	-1.373	 H	1	UNK0	0.000	
45	   H	1.691	6.331	-0.207	 H	1	UNK0	0.000	
46	   H	0.511	6.383	-2.098	 H	1	UNK0	0.000	
47	   H	-1.451	6.797	-3.597	 H	1	UNK0	0.000	
48	   H	-3.313	3.318	-2.121	 H	1	UNK0	0.000	
49	   H	-1.366	2.902	-0.630	 H	1	UNK0	0.000	
50	   H	-3.718	7.372	-4.150	 H	1	UNK0	0.000	
51	   H	-2.927	6.424	-5.437	 H	1	UNK0	0.000	
52	   H	-4.693	6.310	-5.182	 H	1	UNK0	0.000	
@<TRIPOS>BOND
1 1 2 1
2 2 3 2
3 2 7 1
4 3 4 1
5 4 5 2
6 4 10 1
7 5 6 1
8 5 8 1
9 6 7 2
10 8 9 1
11 10 11 1
12 11 12 2
13 11 13 1
14 13 14 1
15 14 15 1
16 14 31 1
17 15 16 2
18 16 17 1
19 16 20 1
20 17 18 1
21 17 29 1
22 18 19 1
23 19 20 1
24 20 21 1
25 21 22 2
26 21 26 1
27 22 23 1
28 23 24 2
29 24 25 1
30 24 27 1
31 25 26 2
32 27 28 1
33 29 30 2
34 29 31 1
35 31 32 2
36 3 33 1
37 6 34 1
38 7 35 1
39 9 36 1
40 9 37 1
41 9 38 1
42 10 39 1
43 13 40 1
44 13 41 1
45 18 42 1
46 18 43 1
47 19 44 1
48 19 45 1
49 22 46 1
50 23 47 1
51 25 48 1
52 26 49 1
53 28 50 1
54 28 51 1
55 28 52 1
@<TRIPOS>SUBSTRUCTURE
1	UNK0	1	GROUP	1 ****	UNK
