# created with PyMOL 2.3.2
@<TRIPOS>MOLECULE
1898
57 60 1                 
SMALL
USER_CHARGES
@<TRIPOS>ATOM
1	   S	-3.075	1.174	2.277	S.O2	1	UNK0	0.000	
2	   O	-2.997	1.987	3.565	O.2	1	UNK0	0.000	
3	   O	-4.529	1.267	1.850	O.2	1	UNK0	0.000	
4	   N	-2.011	1.783	1.132	N.3	1	UNK0	0.000	
5	   C	-0.654	1.804	1.442	C.3	1	UNK0	0.000	
6	   C	0.198	1.534	0.214	C.3	1	UNK0	0.000	
7	   C	-0.615	1.226	-0.987	C.3	1	UNK0	0.000	
8	   C	-1.735	2.231	-1.194	C.3	1	UNK0	0.000	
9	   C	-2.525	2.520	0.057	C.3	1	UNK0	0.000	
10	   C	1.235	0.574	0.535	C.2	1	UNK0	0.000	
11	   O	1.142	0.034	1.715	O.2	1	UNK0	0.000	
12	   N	2.333	0.128	-0.221	N.pl3	1	UNK0	0.000	
13	   C	3.233	-0.852	0.372	C.3	1	UNK0	0.000	
14	   C	4.674	-0.540	0.070	C.3	1	UNK0	0.000	
15	   N	4.824	0.604	-0.797	N.3	1	UNK0	0.000	
16	   C	4.014	0.469	-1.963	C.3	1	UNK0	0.000	
17	   C	2.555	0.652	-1.548	C.3	1	UNK0	0.000	
18	   C	4.731	1.868	-0.149	C.3	1	UNK0	0.000	
19	   C	-2.744	-0.512	2.601	C.2	1	UNK0	0.000	
20	   C	-3.390	-1.200	3.615	C.2	1	UNK0	0.000	
21	   C	-3.146	-2.542	3.815	C.2	1	UNK0	0.000	
22	   C	-2.261	-3.246	3.026	C.2	1	UNK0	0.000	
23	   C	-1.605	-2.584	2.010	C.2	1	UNK0	0.000	
24	   C	-1.870	-1.250	1.837	C.2	1	UNK0	0.000	
25	   C	-0.680	-3.309	1.142	C.2	1	UNK0	0.000	
26	   N	-0.352	-4.623	1.219	N.2	1	UNK0	0.000	
27	   O	0.477	-4.903	0.267	O.3	1	UNK0	0.000	
28	   C	0.740	-3.850	-0.462	C.2	1	UNK0	0.000	
29	   N	0.008	-2.844	0.093	N.2	1	UNK0	0.000	
30	   C	1.651	-3.809	-1.637	C.3	1	UNK0	0.000	
31	  Cl	-4.517	-0.341	4.640	Cl	1	UNK0	0.000	
32	   H	-0.391	2.812	1.893	 H	1	UNK0	0.000	
33	   H	-0.441	1.090	2.266	 H	1	UNK0	0.000	
34	   H	0.726	2.517	-0.014	 H	1	UNK0	0.000	
35	   H	-0.999	0.198	-1.073	 H	1	UNK0	0.000	
36	   H	0.033	1.355	-1.900	 H	1	UNK0	0.000	
37	   H	-2.429	1.789	-1.935	 H	1	UNK0	0.000	
38	   H	-1.350	3.165	-1.668	 H	1	UNK0	0.000	
39	   H	-3.606	2.246	-0.078	 H	1	UNK0	0.000	
40	   H	-2.542	3.639	0.193	 H	1	UNK0	0.000	
41	   H	3.030	-1.879	0.027	 H	1	UNK0	0.000	
42	   H	3.134	-0.854	1.477	 H	1	UNK0	0.000	
43	   H	5.260	-0.338	0.988	 H	1	UNK0	0.000	
44	   H	5.183	-1.388	-0.447	 H	1	UNK0	0.000	
45	   H	4.228	1.179	-2.762	 H	1	UNK0	0.000	
46	   H	4.090	-0.602	-2.306	 H	1	UNK0	0.000	
47	   H	1.969	0.146	-2.321	 H	1	UNK0	0.000	
48	   H	2.330	1.733	-1.585	 H	1	UNK0	0.000	
49	   H	4.220	2.640	-0.765	 H	1	UNK0	0.000	
50	   H	4.316	1.795	0.874	 H	1	UNK0	0.000	
51	   H	5.778	2.264	-0.017	 H	1	UNK0	0.000	
52	   H	-3.652	-3.077	4.606	 H	1	UNK0	0.000	
53	   H	-2.061	-4.288	3.168	 H	1	UNK0	0.000	
54	   H	-1.369	-0.744	1.052	 H	1	UNK0	0.000	
55	   H	1.157	-4.239	-2.556	 H	1	UNK0	0.000	
56	   H	2.586	-4.376	-1.468	 H	1	UNK0	0.000	
57	   H	1.899	-2.747	-1.873	 H	1	UNK0	0.000	
@<TRIPOS>BOND
1 1 2 2
2 1 3 2
3 1 4 1
4 1 19 1
5 4 5 1
6 4 9 1
7 5 6 1
8 6 7 1
9 6 10 1
10 7 8 1
11 8 9 1
12 10 11 2
13 10 12 1
14 12 13 1
15 12 17 1
16 13 14 1
17 14 15 1
18 15 16 1
19 15 18 1
20 16 17 1
21 19 20 2
22 19 24 1
23 20 21 1
24 20 31 1
25 21 22 2
26 22 23 1
27 23 24 2
28 23 25 1
29 25 26 2
30 25 29 1
31 26 27 1
32 27 28 1
33 28 29 2
34 28 30 1
35 5 32 1
36 5 33 1
37 6 34 1
38 7 35 1
39 7 36 1
40 8 37 1
41 8 38 1
42 9 39 1
43 9 40 1
44 13 41 1
45 13 42 1
46 14 43 1
47 14 44 1
48 16 45 1
49 16 46 1
50 17 47 1
51 17 48 1
52 18 49 1
53 18 50 1
54 18 51 1
55 21 52 1
56 22 53 1
57 24 54 1
58 30 55 1
59 30 56 1
60 30 57 1
@<TRIPOS>SUBSTRUCTURE
1	UNK0	1	GROUP	1 ****	UNK
