# created with PyMOL 2.3.2
@<TRIPOS>MOLECULE
1899
59 62 1                 
SMALL
USER_CHARGES
@<TRIPOS>ATOM
1	   S	-0.105	-0.633	3.015	S.O2	1	UNK0	0.000	
2	   O	0.115	-1.252	4.374	O.2	1	UNK0	0.000	
3	   O	-1.581	-0.724	2.700	O.2	1	UNK0	0.000	
4	   N	0.869	-1.407	1.894	N.3	1	UNK0	0.000	
5	   C	0.834	-0.977	0.549	C.3	1	UNK0	0.000	
6	   C	1.194	-2.151	-0.337	C.3	1	UNK0	0.000	
7	   C	2.607	-2.545	0.018	C.3	1	UNK0	0.000	
8	   C	2.659	-2.912	1.482	C.3	1	UNK0	0.000	
9	   C	1.324	-2.713	2.172	C.3	1	UNK0	0.000	
10	   C	1.017	-1.893	-1.764	C.2	1	UNK0	0.000	
11	   O	2.012	-1.799	-2.562	O.2	1	UNK0	0.000	
12	   N	-0.292	-1.733	-2.328	N.pl3	1	UNK0	0.000	
13	   C	-0.437	-1.461	-3.765	C.3	1	UNK0	0.000	
14	   C	-1.837	-0.898	-4.027	C.3	1	UNK0	0.000	
15	   N	-2.093	0.038	-2.957	N.pl3	1	UNK0	0.000	
16	   C	-2.287	-0.562	-1.640	C.3	1	UNK0	0.000	
17	   C	-1.507	-1.838	-1.566	C.3	1	UNK0	0.000	
18	   C	-2.162	1.421	-3.211	C.2	1	UNK0	0.000	
19	   C	-2.025	2.362	-2.204	C.2	1	UNK0	0.000	
20	   C	-2.097	3.722	-2.384	C.2	1	UNK0	0.000	
21	   C	-2.322	4.207	-3.657	C.2	1	UNK0	0.000	
22	   C	-2.468	3.322	-4.704	C.2	1	UNK0	0.000	
23	   C	-2.388	1.949	-4.474	C.2	1	UNK0	0.000	
24	  Cl	-1.906	4.835	-1.025	Cl	1	UNK0	0.000	
25	   C	0.335	1.051	3.126	C.2	1	UNK0	0.000	
26	   C	-0.257	2.035	2.373	C.2	1	UNK0	0.000	
27	   N	0.155	3.310	2.525	N.2	1	UNK0	0.000	
28	   C	1.123	3.670	3.382	C.2	1	UNK0	0.000	
29	   N	1.689	2.696	4.109	N.2	1	UNK0	0.000	
30	   C	1.339	1.397	4.021	C.2	1	UNK0	0.000	
31	   C	2.031	0.419	4.866	C.3	1	UNK0	0.000	
32	   O	1.521	5.001	3.510	O.3	1	UNK0	0.000	
33	   O	-1.265	1.692	1.474	O.3	1	UNK0	0.000	
34	   H	1.701	-0.255	0.418	 H	1	UNK0	0.000	
35	   H	-0.041	-0.420	0.242	 H	1	UNK0	0.000	
36	   H	0.538	-3.024	-0.086	 H	1	UNK0	0.000	
37	   H	2.967	-3.382	-0.616	 H	1	UNK0	0.000	
38	   H	3.259	-1.662	-0.182	 H	1	UNK0	0.000	
39	   H	3.379	-2.218	2.001	 H	1	UNK0	0.000	
40	   H	3.015	-3.955	1.599	 H	1	UNK0	0.000	
41	   H	0.651	-3.539	1.878	 H	1	UNK0	0.000	
42	   H	1.556	-2.770	3.274	 H	1	UNK0	0.000	
43	   H	-0.359	-2.414	-4.303	 H	1	UNK0	0.000	
44	   H	0.287	-0.692	-4.105	 H	1	UNK0	0.000	
45	   H	-2.558	-1.753	-3.865	 H	1	UNK0	0.000	
46	   H	-1.936	-0.524	-5.036	 H	1	UNK0	0.000	
47	   H	-3.375	-0.858	-1.531	 H	1	UNK0	0.000	
48	   H	-2.063	0.149	-0.859	 H	1	UNK0	0.000	
49	   H	-2.119	-2.633	-2.090	 H	1	UNK0	0.000	
50	   H	-1.367	-2.230	-0.544	 H	1	UNK0	0.000	
51	   H	-1.843	2.034	-1.196	 H	1	UNK0	0.000	
52	   H	-2.378	5.282	-3.795	 H	1	UNK0	0.000	
53	   H	-2.642	3.720	-5.683	 H	1	UNK0	0.000	
54	   H	-2.511	1.281	-5.302	 H	1	UNK0	0.000	
55	   H	1.425	0.103	5.747	 H	1	UNK0	0.000	
56	   H	3.009	0.862	5.192	 H	1	UNK0	0.000	
57	   H	2.321	-0.514	4.338	 H	1	UNK0	0.000	
58	   H	0.819	5.747	3.602	 H	1	UNK0	0.000	
59	   H	-2.191	1.505	1.840	 H	1	UNK0	0.000	
@<TRIPOS>BOND
1 1 2 2
2 1 3 2
3 1 4 1
4 1 25 1
5 4 5 1
6 4 9 1
7 5 6 1
8 6 7 1
9 6 10 1
10 7 8 1
11 8 9 1
12 10 11 2
13 10 12 1
14 12 13 1
15 12 17 1
16 13 14 1
17 14 15 1
18 15 16 1
19 15 18 1
20 16 17 1
21 18 19 2
22 18 23 1
23 19 20 1
24 20 21 2
25 20 24 1
26 21 22 1
27 22 23 2
28 25 26 2
29 25 30 1
30 26 27 1
31 26 33 1
32 27 28 2
33 28 29 1
34 28 32 1
35 29 30 2
36 30 31 1
37 5 34 1
38 5 35 1
39 6 36 1
40 7 37 1
41 7 38 1
42 8 39 1
43 8 40 1
44 9 41 1
45 9 42 1
46 13 43 1
47 13 44 1
48 14 45 1
49 14 46 1
50 16 47 1
51 16 48 1
52 17 49 1
53 17 50 1
54 19 51 1
55 21 52 1
56 22 53 1
57 23 54 1
58 31 55 1
59 31 56 1
60 31 57 1
61 32 58 1
62 33 59 1
@<TRIPOS>SUBSTRUCTURE
1	UNK0	1	GROUP	1 ****	UNK
