# created with PyMOL 2.3.2
@<TRIPOS>MOLECULE
1900
51 54 1                 
SMALL
USER_CHARGES
@<TRIPOS>ATOM
1	   S	0.859	-5.710	1.052	S.O2	1	UNK0	0.000	
2	   O	0.797	-6.233	2.465	O.2	1	UNK0	0.000	
3	   O	1.948	-6.384	0.290	O.2	1	UNK0	0.000	
4	   N	-0.684	-5.980	0.330	N.3	1	UNK0	0.000	
5	   C	-0.765	-5.532	-1.023	C.3	1	UNK0	0.000	
6	   C	-2.227	-5.229	-1.231	C.3	1	UNK0	0.000	
7	   C	-2.633	-4.664	0.114	C.3	1	UNK0	0.000	
8	   C	-1.752	-5.403	1.081	C.3	1	UNK0	0.000	
9	   C	1.175	-3.988	1.073	C.2	1	UNK0	0.000	
10	   C	0.856	-3.092	2.058	C.2	1	UNK0	0.000	
11	   N	1.281	-1.855	1.673	N.pl3	1	UNK0	0.000	
12	   C	1.871	-1.882	0.472	C.2	1	UNK0	0.000	
13	   C	1.795	-3.249	0.103	C.2	1	UNK0	0.000	
14	   C	2.469	-0.841	-0.336	C.2	1	UNK0	0.000	
15	   O	2.955	-1.230	-1.469	O.2	1	UNK0	0.000	
16	   N	2.572	0.482	-0.035	N.pl3	1	UNK0	0.000	
17	   C	2.093	1.095	1.170	C.3	1	UNK0	0.000	
18	   C	2.439	2.622	1.130	C.3	1	UNK0	0.000	
19	   N	1.916	3.114	-0.066	N.3	1	UNK0	0.000	
20	   C	2.246	2.503	-1.284	C.3	1	UNK0	0.000	
21	   C	3.227	1.383	-1.013	C.3	1	UNK0	0.000	
22	   S	0.666	4.213	-0.038	S.O2	1	UNK0	0.000	
23	   O	0.300	4.617	-1.434	O.2	1	UNK0	0.000	
24	   O	1.015	5.502	0.694	O.2	1	UNK0	0.000	
25	   C	-0.786	3.574	0.716	C.2	1	UNK0	0.000	
26	   S	-1.037	2.986	2.302	S.3	1	UNK0	0.000	
27	   C	-2.685	2.577	2.195	C.2	1	UNK0	0.000	
28	   C	-2.999	2.914	0.912	C.2	1	UNK0	0.000	
29	   C	-2.022	3.429	0.145	C.2	1	UNK0	0.000	
30	  Cl	-3.759	1.883	3.426	Cl	1	UNK0	0.000	
31	   H	-0.398	-6.320	-1.729	 H	1	UNK0	0.000	
32	   H	-0.195	-4.589	-1.116	 H	1	UNK0	0.000	
33	   H	-2.403	-4.475	-2.005	 H	1	UNK0	0.000	
34	   H	-2.746	-6.186	-1.415	 H	1	UNK0	0.000	
35	   H	-2.353	-3.588	0.166	 H	1	UNK0	0.000	
36	   H	-3.690	-4.852	0.361	 H	1	UNK0	0.000	
37	   H	-1.302	-4.737	1.853	 H	1	UNK0	0.000	
38	   H	-2.288	-6.236	1.597	 H	1	UNK0	0.000	
39	   H	0.355	-3.320	2.983	 H	1	UNK0	0.000	
40	   H	1.136	-1.031	2.280	 H	1	UNK0	0.000	
41	   H	2.181	-3.637	-0.823	 H	1	UNK0	0.000	
42	   H	0.999	1.000	1.255	 H	1	UNK0	0.000	
43	   H	2.609	0.689	2.052	 H	1	UNK0	0.000	
44	   H	1.929	3.051	1.993	 H	1	UNK0	0.000	
45	   H	3.520	2.705	1.288	 H	1	UNK0	0.000	
46	   H	1.357	2.162	-1.831	 H	1	UNK0	0.000	
47	   H	2.795	3.215	-1.968	 H	1	UNK0	0.000	
48	   H	3.332	0.831	-1.963	 H	1	UNK0	0.000	
49	   H	4.174	1.735	-0.604	 H	1	UNK0	0.000	
50	   H	-4.037	2.753	0.548	 H	1	UNK0	0.000	
51	   H	-2.201	3.731	-0.922	 H	1	UNK0	0.000	
@<TRIPOS>BOND
1 1 2 2
2 1 3 2
3 1 4 1
4 1 9 1
5 4 5 1
6 4 8 1
7 5 6 1
8 6 7 1
9 7 8 1
10 9 10 2
11 9 13 1
12 10 11 1
13 11 12 1
14 12 13 2
15 12 14 1
16 14 15 2
17 14 16 1
18 16 17 1
19 16 21 1
20 17 18 1
21 18 19 1
22 19 20 1
23 19 22 1
24 20 21 1
25 22 23 2
26 22 24 2
27 22 25 1
28 25 26 1
29 25 29 2
30 26 27 1
31 27 28 2
32 27 30 1
33 28 29 1
34 5 31 1
35 5 32 1
36 6 33 1
37 6 34 1
38 7 35 1
39 7 36 1
40 8 37 1
41 8 38 1
42 10 39 1
43 11 40 1
44 13 41 1
45 17 42 1
46 17 43 1
47 18 44 1
48 18 45 1
49 20 46 1
50 20 47 1
51 21 48 1
52 21 49 1
53 28 50 1
54 29 51 1
@<TRIPOS>SUBSTRUCTURE
1	UNK0	1	GROUP	1 ****	UNK
