# created with PyMOL 2.3.2
@<TRIPOS>MOLECULE
1901
52 55 1                 
SMALL
USER_CHARGES
@<TRIPOS>ATOM
1	   S	0.087	0.455	3.931	S.O2	1	UNK0	0.000	
2	   O	-0.956	1.475	4.403	O.2	1	UNK0	0.000	
3	   O	0.340	-0.374	5.206	O.2	1	UNK0	0.000	
4	   N	1.437	1.265	3.428	N.3	1	UNK0	0.000	
5	   C	2.628	0.653	3.050	C.3	1	UNK0	0.000	
6	   C	2.668	0.421	1.530	C.3	1	UNK0	0.000	
7	   N	2.621	1.717	0.955	N.3	1	UNK0	0.000	
8	   C	1.512	2.524	1.300	C.3	1	UNK0	0.000	
9	   C	1.231	2.530	2.771	C.3	1	UNK0	0.000	
10	   C	3.174	1.877	-0.331	C.3	1	UNK0	0.000	
11	   C	3.069	3.296	-0.845	C.3	1	UNK0	0.000	
12	   C	-0.699	-0.642	2.837	C.2	1	UNK0	0.000	
13	   C	-1.944	-0.264	2.289	C.2	1	UNK0	0.000	
14	   C	-2.606	-1.064	1.387	C.2	1	UNK0	0.000	
15	   C	-2.089	-2.270	0.973	C.2	1	UNK0	0.000	
16	   C	-0.896	-2.640	1.495	C.2	1	UNK0	0.000	
17	   C	-0.200	-1.847	2.415	C.2	1	UNK0	0.000	
18	  Cl	1.319	-2.420	3.084	Cl	1	UNK0	0.000	
19	   N	-2.738	-3.102	0.056	N.pl3	1	UNK0	0.000	
20	   C	-3.999	-2.635	-0.450	C.2	1	UNK0	0.000	
21	   O	-4.776	-3.410	-1.063	O.2	1	UNK0	0.000	
22	   C	-4.435	-1.227	-0.271	C.3	1	UNK0	0.000	
23	   O	-3.833	-0.661	0.866	O.3	1	UNK0	0.000	
24	   C	-2.270	-4.357	-0.417	C.3	1	UNK0	0.000	
25	   C	-1.449	-4.156	-1.653	C.2	1	UNK0	0.000	
26	   N	-0.823	-5.069	-2.417	N.2	1	UNK0	0.000	
27	   O	-0.218	-4.449	-3.408	O.3	1	UNK0	0.000	
28	   C	-0.421	-3.160	-3.329	C.2	1	UNK0	0.000	
29	   N	-1.189	-2.971	-2.235	N.2	1	UNK0	0.000	
30	   C	0.095	-2.119	-4.261	C.3	1	UNK0	0.000	
31	   H	2.996	-0.181	3.634	 H	1	UNK0	0.000	
32	   H	3.451	1.455	3.176	 H	1	UNK0	0.000	
33	   H	1.755	-0.125	1.236	 H	1	UNK0	0.000	
34	   H	3.579	-0.095	1.224	 H	1	UNK0	0.000	
35	   H	1.704	3.565	0.966	 H	1	UNK0	0.000	
36	   H	0.623	2.173	0.745	 H	1	UNK0	0.000	
37	   H	1.936	3.262	3.237	 H	1	UNK0	0.000	
38	   H	0.213	2.923	2.942	 H	1	UNK0	0.000	
39	   H	2.711	1.204	-1.098	 H	1	UNK0	0.000	
40	   H	4.251	1.624	-0.312	 H	1	UNK0	0.000	
41	   H	3.491	3.988	-0.063	 H	1	UNK0	0.000	
42	   H	2.011	3.581	-1.051	 H	1	UNK0	0.000	
43	   H	3.611	3.417	-1.797	 H	1	UNK0	0.000	
44	   H	-2.361	0.689	2.610	 H	1	UNK0	0.000	
45	   H	-0.464	-3.573	1.195	 H	1	UNK0	0.000	
46	   H	-4.270	-0.624	-1.191	 H	1	UNK0	0.000	
47	   H	-5.540	-1.259	-0.082	 H	1	UNK0	0.000	
48	   H	-1.750	-4.986	0.320	 H	1	UNK0	0.000	
49	   H	-3.151	-4.955	-0.734	 H	1	UNK0	0.000	
50	   H	-0.534	-1.189	-4.175	 H	1	UNK0	0.000	
51	   H	1.155	-1.849	-4.010	 H	1	UNK0	0.000	
52	   H	0.071	-2.420	-5.309	 H	1	UNK0	0.000	
@<TRIPOS>BOND
1 1 2 2
2 1 3 2
3 1 4 1
4 1 12 1
5 4 5 1
6 4 9 1
7 5 6 1
8 6 7 1
9 7 8 1
10 7 10 1
11 8 9 1
12 10 11 1
13 12 13 2
14 12 17 1
15 13 14 1
16 14 15 2
17 14 23 1
18 15 16 1
19 15 19 1
20 16 17 2
21 17 18 1
22 19 20 1
23 19 24 1
24 20 21 2
25 20 22 1
26 22 23 1
27 24 25 1
28 25 26 2
29 25 29 1
30 26 27 1
31 27 28 1
32 28 29 2
33 28 30 1
34 5 31 1
35 5 32 1
36 6 33 1
37 6 34 1
38 8 35 1
39 8 36 1
40 9 37 1
41 9 38 1
42 10 39 1
43 10 40 1
44 11 41 1
45 11 42 1
46 11 43 1
47 13 44 1
48 16 45 1
49 22 46 1
50 22 47 1
51 24 48 1
52 24 49 1
53 30 50 1
54 30 51 1
55 30 52 1
@<TRIPOS>SUBSTRUCTURE
1	UNK0	1	GROUP	1 ****	UNK
