# created with PyMOL 2.3.2
@<TRIPOS>MOLECULE
1907
59 61 1                 
SMALL
USER_CHARGES
@<TRIPOS>ATOM
1	  Cl	-4.980	5.506	0.348	Cl	1	UNK0	0.000	
2	   C	-4.867	3.797	0.800	C.2	1	UNK0	0.000	
3	   C	-5.692	2.867	0.237	C.2	1	UNK0	0.000	
4	   C	-5.614	1.523	0.583	C.2	1	UNK0	0.000	
5	   C	-4.694	1.092	1.510	C.2	1	UNK0	0.000	
6	   C	-3.861	2.043	2.076	C.2	1	UNK0	0.000	
7	   C	-3.943	3.372	1.730	C.2	1	UNK0	0.000	
8	   C	-4.584	-0.342	1.910	C.3	1	UNK0	0.000	
9	   N	-3.332	-0.945	1.510	N.pl3	1	UNK0	0.000	
10	   C	-3.062	-1.663	0.315	C.2	1	UNK0	0.000	
11	   O	-3.901	-1.888	-0.610	O.2	1	UNK0	0.000	
12	   N	-1.682	-2.090	0.328	N.pl3	1	UNK0	0.000	
13	   C	-1.022	-1.275	1.294	C.3	1	UNK0	0.000	
14	   C	0.169	-1.930	1.966	C.3	1	UNK0	0.000	
15	   C	1.056	-0.746	2.396	C.3	1	UNK0	0.000	
16	   N	1.748	-0.282	1.203	N.3	1	UNK0	0.000	
17	   C	0.812	-0.202	0.081	C.3	1	UNK0	0.000	
18	   C	-0.583	0.011	0.600	C.3	1	UNK0	0.000	
19	   C	2.223	1.086	1.408	C.3	1	UNK0	0.000	
20	   C	3.127	1.477	0.304	C.2	1	UNK0	0.000	
21	   O	3.609	2.645	0.282	O.2	1	UNK0	0.000	
22	   N	3.487	0.597	-0.738	N.pl3	1	UNK0	0.000	
23	   C	4.365	0.932	-1.833	C.3	1	UNK0	0.000	
24	   C	4.530	-0.247	-2.759	C.3	1	UNK0	0.000	
25	   O	5.371	0.005	-3.833	O.3	1	UNK0	0.000	
26	   C	5.438	-1.256	-4.440	C.3	1	UNK0	0.000	
27	   C	5.569	-2.261	-3.317	C.3	1	UNK0	0.000	
28	   C	5.266	-1.403	-2.083	C.3	1	UNK0	0.000	
29	   C	-2.091	-0.946	2.244	C.2	1	UNK0	0.000	
30	   O	-2.055	-0.695	3.478	O.2	1	UNK0	0.000	
31	  Cl	0.821	1.949	1.395	Cl	1	UNK0	0.000	
32	   H	-6.409	3.208	-0.484	 H	1	UNK0	0.000	
33	   H	-6.296	0.830	0.105	 H	1	UNK0	0.000	
34	   H	-3.113	1.750	2.814	 H	1	UNK0	0.000	
35	   H	-3.286	4.108	2.178	 H	1	UNK0	0.000	
36	   H	-4.732	-0.383	2.993	 H	1	UNK0	0.000	
37	   H	-5.459	-0.881	1.446	 H	1	UNK0	0.000	
38	   H	-1.266	-2.842	-0.255	 H	1	UNK0	0.000	
39	   H	-0.099	-2.574	2.805	 H	1	UNK0	0.000	
40	   H	0.740	-2.515	1.218	 H	1	UNK0	0.000	
41	   H	1.781	-1.032	3.155	 H	1	UNK0	0.000	
42	   H	0.391	0.027	2.817	 H	1	UNK0	0.000	
43	   H	0.853	-1.175	-0.442	 H	1	UNK0	0.000	
44	   H	1.023	0.646	-0.599	 H	1	UNK0	0.000	
45	   H	-0.697	0.824	1.321	 H	1	UNK0	0.000	
46	   H	-1.248	0.156	-0.299	 H	1	UNK0	0.000	
47	   H	1.319	1.716	1.402	 H	1	UNK0	0.000	
48	   H	2.720	1.177	2.383	 H	1	UNK0	0.000	
49	   H	3.105	-0.397	-0.732	 H	1	UNK0	0.000	
50	   H	3.973	1.768	-2.446	 H	1	UNK0	0.000	
51	   H	5.362	1.225	-1.415	 H	1	UNK0	0.000	
52	   H	3.581	-0.614	-3.161	 H	1	UNK0	0.000	
53	   H	4.442	-1.436	-4.937	 H	1	UNK0	0.000	
54	   H	6.270	-1.331	-5.180	 H	1	UNK0	0.000	
55	   H	4.756	-3.031	-3.374	 H	1	UNK0	0.000	
56	   H	6.561	-2.705	-3.253	 H	1	UNK0	0.000	
57	   H	4.626	-1.926	-1.370	 H	1	UNK0	0.000	
58	   H	6.211	-1.007	-1.644	 H	1	UNK0	0.000	
59	   H	1.805	2.539	0.656	 H	1	UNK0	0.000	
@<TRIPOS>BOND
1 1 2 1
2 2 3 2
3 2 7 1
4 3 4 1
5 4 5 2
6 5 6 1
7 5 8 1
8 6 7 2
9 8 9 1
10 9 10 1
11 9 29 1
12 10 11 2
13 10 12 1
14 12 13 1
15 13 14 1
16 13 18 1
17 13 29 1
18 14 15 1
19 15 16 1
20 16 17 1
21 16 19 1
22 17 18 1
23 19 20 1
24 20 21 2
25 20 22 1
26 22 23 1
27 23 24 1
28 24 25 1
29 24 28 1
30 25 26 1
31 26 27 1
32 27 28 1
33 29 30 2
34 3 32 1
35 4 33 1
36 6 34 1
37 7 35 1
38 8 36 1
39 8 37 1
40 12 38 1
41 14 39 1
42 14 40 1
43 15 41 1
44 15 42 1
45 17 43 1
46 17 44 1
47 18 45 1
48 18 46 1
49 19 47 1
50 19 48 1
51 22 49 1
52 23 50 1
53 23 51 1
54 24 52 1
55 26 53 1
56 26 54 1
57 27 55 1
58 27 56 1
59 28 57 1
60 28 58 1
61 31 59 1
@<TRIPOS>SUBSTRUCTURE
1	UNK0	1	GROUP	1 ****	UNK
