# created with PyMOL 2.3.2
@<TRIPOS>MOLECULE
1908
61 64 1                 
SMALL
USER_CHARGES
@<TRIPOS>ATOM
1	  Cl	-5.845	-2.258	1.251	Cl	1	UNK0	0.000	
2	   C	-4.550	-1.323	1.968	C.2	1	UNK0	0.000	
3	   C	-4.798	-0.090	2.509	C.2	1	UNK0	0.000	
4	   C	-3.802	0.648	3.068	C.2	1	UNK0	0.000	
5	   C	-2.495	0.174	3.109	C.2	1	UNK0	0.000	
6	   C	-2.271	-1.056	2.566	C.2	1	UNK0	0.000	
7	   C	-3.280	-1.827	1.988	C.2	1	UNK0	0.000	
8	   C	-1.421	1.010	3.708	C.3	1	UNK0	0.000	
9	   N	-0.642	1.709	2.692	N.pl3	1	UNK0	0.000	
10	   C	0.509	1.218	2.186	C.2	1	UNK0	0.000	
11	   C	1.166	1.922	1.161	C.2	1	UNK0	0.000	
12	   C	2.351	1.408	0.689	C.2	1	UNK0	0.000	
13	   C	2.859	0.250	1.212	C.2	1	UNK0	0.000	
14	   C	2.220	-0.435	2.211	C.2	1	UNK0	0.000	
15	   C	1.028	0.061	2.700	C.2	1	UNK0	0.000	
16	   N	0.684	3.057	0.682	N.pl3	1	UNK0	0.000	
17	   C	-0.478	3.540	1.207	C.2	1	UNK0	0.000	
18	   O	-0.967	4.621	0.775	O.2	1	UNK0	0.000	
19	   C	-1.119	2.866	2.195	C.2	1	UNK0	0.000	
20	   O	-2.196	3.359	2.651	O.2	1	UNK0	0.000	
21	   C	1.270	3.798	-0.404	C.3	1	UNK0	0.000	
22	   C	0.631	3.439	-1.676	C.2	1	UNK0	0.000	
23	   O	-0.186	4.277	-2.197	O.2	1	UNK0	0.000	
24	   N	0.844	2.240	-2.375	N.pl3	1	UNK0	0.000	
25	   C	0.164	1.952	-3.634	C.3	1	UNK0	0.000	
26	   C	0.560	0.602	-4.106	C.3	1	UNK0	0.000	
27	   N	0.278	-0.503	-3.274	N.3	1	UNK0	0.000	
28	   C	0.592	-1.725	-3.882	C.3	1	UNK0	0.000	
29	   C	-0.338	-2.878	-3.641	C.3	1	UNK0	0.000	
30	   N	-0.947	-2.825	-2.320	N.3	1	UNK0	0.000	
31	   C	-1.669	-1.576	-2.195	C.3	1	UNK0	0.000	
32	   C	-0.766	-0.368	-2.371	C.3	1	UNK0	0.000	
33	   C	0.032	-3.029	-1.282	C.3	1	UNK0	0.000	
34	   H	-5.809	0.310	2.490	 H	1	UNK0	0.000	
35	   H	-4.020	1.613	3.500	 H	1	UNK0	0.000	
36	   H	-1.297	-1.502	2.563	 H	1	UNK0	0.000	
37	   H	-3.047	-2.796	1.574	 H	1	UNK0	0.000	
38	   H	-1.938	1.839	4.283	 H	1	UNK0	0.000	
39	   H	-0.833	0.403	4.381	 H	1	UNK0	0.000	
40	   H	2.895	1.912	-0.107	 H	1	UNK0	0.000	
41	   H	3.796	-0.136	0.824	 H	1	UNK0	0.000	
42	   H	2.639	-1.356	2.605	 H	1	UNK0	0.000	
43	   H	0.583	-0.526	3.498	 H	1	UNK0	0.000	
44	   H	1.078	4.905	-0.178	 H	1	UNK0	0.000	
45	   H	2.362	3.727	-0.388	 H	1	UNK0	0.000	
46	   H	1.508	1.514	-2.004	 H	1	UNK0	0.000	
47	   H	0.564	2.696	-4.390	 H	1	UNK0	0.000	
48	   H	-0.912	2.125	-3.609	 H	1	UNK0	0.000	
49	   H	0.121	0.415	-5.127	 H	1	UNK0	0.000	
50	   H	1.669	0.601	-4.304	 H	1	UNK0	0.000	
51	   H	0.621	-1.578	-4.993	 H	1	UNK0	0.000	
52	   H	1.627	-2.029	-3.558	 H	1	UNK0	0.000	
53	   H	0.231	-3.812	-3.738	 H	1	UNK0	0.000	
54	   H	-1.146	-2.872	-4.394	 H	1	UNK0	0.000	
55	   H	-2.117	-1.550	-1.198	 H	1	UNK0	0.000	
56	   H	-2.471	-1.580	-2.947	 H	1	UNK0	0.000	
57	   H	-1.460	0.467	-2.636	 H	1	UNK0	0.000	
58	   H	-0.381	-0.147	-1.337	 H	1	UNK0	0.000	
59	   H	1.046	-2.751	-1.685	 H	1	UNK0	0.000	
60	   H	-0.201	-2.400	-0.409	 H	1	UNK0	0.000	
61	   H	0.043	-4.102	-0.948	 H	1	UNK0	0.000	
@<TRIPOS>BOND
1 1 2 1
2 2 3 2
3 2 7 1
4 3 4 1
5 4 5 2
6 5 6 1
7 5 8 1
8 6 7 2
9 8 9 1
10 9 10 1
11 9 19 1
12 10 11 1
13 10 15 2
14 11 12 2
15 11 16 1
16 12 13 1
17 13 14 2
18 14 15 1
19 16 17 1
20 16 21 1
21 17 18 2
22 17 19 1
23 19 20 2
24 21 22 1
25 22 23 2
26 22 24 1
27 24 25 1
28 25 26 1
29 26 27 1
30 27 28 1
31 27 32 1
32 28 29 1
33 29 30 1
34 30 31 1
35 30 33 1
36 31 32 1
37 3 34 1
38 4 35 1
39 6 36 1
40 7 37 1
41 8 38 1
42 8 39 1
43 12 40 1
44 13 41 1
45 14 42 1
46 15 43 1
47 21 44 1
48 21 45 1
49 24 46 1
50 25 47 1
51 25 48 1
52 26 49 1
53 26 50 1
54 28 51 1
55 28 52 1
56 29 53 1
57 29 54 1
58 31 55 1
59 31 56 1
60 32 57 1
61 32 58 1
62 33 59 1
63 33 60 1
64 33 61 1
@<TRIPOS>SUBSTRUCTURE
1	UNK0	1	GROUP	1 ****	UNK
