# created with PyMOL 2.3.2
@<TRIPOS>MOLECULE
1909
58 61 1                 
SMALL
USER_CHARGES
@<TRIPOS>ATOM
1	   S	3.271	2.818	-1.160	S.O2	1	UNK0	0.000	
2	   O	4.241	3.844	-0.606	O.2	1	UNK0	0.000	
3	   O	3.343	2.983	-2.674	O.2	1	UNK0	0.000	
4	   N	1.688	3.176	-0.686	N.3	1	UNK0	0.000	
5	   C	0.662	2.357	-1.285	C.3	1	UNK0	0.000	
6	   C	-0.692	2.921	-0.839	C.3	1	UNK0	0.000	
7	   C	-0.558	3.470	0.565	C.3	1	UNK0	0.000	
8	   C	0.285	4.747	0.403	C.3	1	UNK0	0.000	
9	   C	1.286	4.536	-0.740	C.3	1	UNK0	0.000	
10	   C	-1.708	1.880	-0.988	C.2	1	UNK0	0.000	
11	   O	-2.725	2.110	-1.692	O.2	1	UNK0	0.000	
12	   N	-1.601	0.607	-0.370	N.pl3	1	UNK0	0.000	
13	   C	-2.618	-0.402	-0.527	C.3	1	UNK0	0.000	
14	   C	-3.819	-0.186	0.294	C.2	1	UNK0	0.000	
15	   C	-4.939	0.385	-0.248	C.2	1	UNK0	0.000	
16	   C	-6.050	0.576	0.555	C.2	1	UNK0	0.000	
17	   C	-6.029	0.199	1.873	C.2	1	UNK0	0.000	
18	   C	-4.874	-0.384	2.408	C.2	1	UNK0	0.000	
19	   C	-3.767	-0.580	1.625	C.2	1	UNK0	0.000	
20	  Cl	-7.404	0.427	2.909	Cl	1	UNK0	0.000	
21	   N	3.813	1.277	-0.786	N.3	1	UNK0	0.000	
22	   C	3.856	0.944	0.607	C.3	1	UNK0	0.000	
23	   C	2.804	-0.041	1.021	C.3	1	UNK0	0.000	
24	   C	2.717	-1.227	0.118	C.3	1	UNK0	0.000	
25	   O	2.836	-2.404	0.860	O.3	1	UNK0	0.000	
26	   C	1.498	-2.829	1.057	C.3	1	UNK0	0.000	
27	   C	0.985	-2.578	-0.370	C.3	1	UNK0	0.000	
28	   O	1.509	-1.295	-0.575	O.3	1	UNK0	0.000	
29	   C	3.801	-1.111	-0.930	C.3	1	UNK0	0.000	
30	   C	3.526	0.213	-1.662	C.3	1	UNK0	0.000	
31	   H	0.727	1.297	-0.969	 H	1	UNK0	0.000	
32	   H	0.685	2.493	-2.393	 H	1	UNK0	0.000	
33	   H	-0.970	3.793	-1.471	 H	1	UNK0	0.000	
34	   H	-0.052	2.764	1.237	 H	1	UNK0	0.000	
35	   H	-1.519	3.749	0.987	 H	1	UNK0	0.000	
36	   H	0.789	5.015	1.344	 H	1	UNK0	0.000	
37	   H	-0.434	5.545	0.124	 H	1	UNK0	0.000	
38	   H	0.797	4.765	-1.718	 H	1	UNK0	0.000	
39	   H	2.109	5.268	-0.642	 H	1	UNK0	0.000	
40	   H	-0.775	0.392	0.212	 H	1	UNK0	0.000	
41	   H	-2.192	-1.430	-0.368	 H	1	UNK0	0.000	
42	   H	-2.963	-0.435	-1.602	 H	1	UNK0	0.000	
43	   H	-5.010	0.696	-1.275	 H	1	UNK0	0.000	
44	   H	-6.946	1.026	0.141	 H	1	UNK0	0.000	
45	   H	-4.876	-0.674	3.439	 H	1	UNK0	0.000	
46	   H	-2.848	-1.031	2.008	 H	1	UNK0	0.000	
47	   H	3.816	1.878	1.188	 H	1	UNK0	0.000	
48	   H	4.851	0.484	0.807	 H	1	UNK0	0.000	
49	   H	3.056	-0.375	2.070	 H	1	UNK0	0.000	
50	   H	1.792	0.400	1.093	 H	1	UNK0	0.000	
51	   H	0.935	-2.100	1.686	 H	1	UNK0	0.000	
52	   H	1.415	-3.868	1.361	 H	1	UNK0	0.000	
53	   H	1.503	-3.320	-1.026	 H	1	UNK0	0.000	
54	   H	-0.103	-2.617	-0.419	 H	1	UNK0	0.000	
55	   H	3.655	-1.985	-1.616	 H	1	UNK0	0.000	
56	   H	4.820	-1.095	-0.486	 H	1	UNK0	0.000	
57	   H	4.284	0.232	-2.496	 H	1	UNK0	0.000	
58	   H	2.520	0.142	-2.065	 H	1	UNK0	0.000	
@<TRIPOS>BOND
1 1 2 2
2 1 3 2
3 1 4 1
4 1 21 1
5 4 5 1
6 4 9 1
7 5 6 1
8 6 7 1
9 6 10 1
10 7 8 1
11 8 9 1
12 10 11 2
13 10 12 1
14 12 13 1
15 13 14 1
16 14 15 2
17 14 19 1
18 15 16 1
19 16 17 2
20 17 18 1
21 17 20 1
22 18 19 2
23 21 22 1
24 21 30 1
25 22 23 1
26 23 24 1
27 24 25 1
28 24 28 1
29 24 29 1
30 25 26 1
31 26 27 1
32 27 28 1
33 29 30 1
34 5 31 1
35 5 32 1
36 6 33 1
37 7 34 1
38 7 35 1
39 8 36 1
40 8 37 1
41 9 38 1
42 9 39 1
43 12 40 1
44 13 41 1
45 13 42 1
46 15 43 1
47 16 44 1
48 18 45 1
49 19 46 1
50 22 47 1
51 22 48 1
52 23 49 1
53 23 50 1
54 26 51 1
55 26 52 1
56 27 53 1
57 27 54 1
58 29 55 1
59 29 56 1
60 30 57 1
61 30 58 1
@<TRIPOS>SUBSTRUCTURE
1	UNK0	1	GROUP	1 ****	UNK
