# created with PyMOL 2.3.2
@<TRIPOS>MOLECULE
1910
55 58 1                 
SMALL
USER_CHARGES
@<TRIPOS>ATOM
1	  Br	4.662	-0.407	3.449	Br	1	UNK0	0.000	
2	   C	3.797	-2.062	2.774	C.2	1	UNK0	0.000	
3	   C	2.352	-2.030	3.023	C.2	1	UNK0	0.000	
4	   C	1.715	-3.188	2.515	C.2	1	UNK0	0.000	
5	   C	2.469	-4.143	1.890	C.2	1	UNK0	0.000	
6	   C	3.867	-4.144	1.666	C.2	1	UNK0	0.000	
7	   C	4.427	-2.895	2.236	C.2	1	UNK0	0.000	
8	   C	0.276	-3.299	2.640	C.2	1	UNK0	0.000	
9	   C	-0.584	-2.359	2.267	C.2	1	UNK0	0.000	
10	   O	-0.211	-1.160	1.692	O.3	1	UNK0	0.000	
11	   C	-1.351	-0.452	1.446	C.2	1	UNK0	0.000	
12	   C	-2.510	-1.136	1.860	C.2	1	UNK0	0.000	
13	   C	-3.814	-0.608	1.717	C.2	1	UNK0	0.000	
14	   C	-3.967	0.583	1.146	C.2	1	UNK0	0.000	
15	   C	-2.832	1.324	0.687	C.2	1	UNK0	0.000	
16	   C	-1.629	0.820	0.837	C.2	1	UNK0	0.000	
17	   C	-0.357	1.590	0.573	C.3	1	UNK0	0.000	
18	   N	-0.145	1.969	-0.771	N.4	1	UNK0	0.000	
19	   C	-1.169	1.603	-1.717	C.3	1	UNK0	0.000	
20	   C	-0.475	1.070	-2.985	C.3	1	UNK0	0.000	
21	   N	0.588	1.981	-3.360	N.3	1	UNK0	0.000	
22	   C	0.558	3.219	-2.662	C.3	1	UNK0	0.000	
23	   C	0.627	3.067	-1.142	C.3	1	UNK0	0.000	
24	   C	1.834	1.368	-3.625	C.3	1	UNK0	0.000	
25	   C	1.944	0.537	-4.852	C.3	1	UNK0	0.000	
26	   O	1.726	1.242	-6.042	O.3	1	UNK0	0.000	
27	   O	-3.198	2.533	0.121	O.2	1	UNK0	0.000	
28	   C	-4.961	-1.357	2.372	C.3	1	UNK0	0.000	
29	   C	-2.103	-2.357	2.384	C.2	1	UNK0	0.000	
30	   O	-2.621	-3.372	2.899	O.2	1	UNK0	0.000	
31	   H	1.870	-1.263	3.502	 H	1	UNK0	0.000	
32	   H	1.909	-5.023	1.523	 H	1	UNK0	0.000	
33	   H	4.460	-4.836	1.201	 H	1	UNK0	0.000	
34	   H	5.561	-2.914	2.044	 H	1	UNK0	0.000	
35	   H	-0.136	-4.234	3.045	 H	1	UNK0	0.000	
36	   H	-4.976	1.006	1.046	 H	1	UNK0	0.000	
37	   H	0.480	1.170	1.095	 H	1	UNK0	0.000	
38	   H	-0.506	2.619	1.123	 H	1	UNK0	0.000	
39	   H	0.623	1.115	-1.041	 H	1	UNK0	0.000	
40	   H	-1.852	2.425	-1.991	 H	1	UNK0	0.000	
41	   H	-1.771	0.729	-1.364	 H	1	UNK0	0.000	
42	   H	-0.137	0.035	-2.788	 H	1	UNK0	0.000	
43	   H	-1.230	1.059	-3.774	 H	1	UNK0	0.000	
44	   H	-0.413	3.715	-2.952	 H	1	UNK0	0.000	
45	   H	1.357	3.880	-2.973	 H	1	UNK0	0.000	
46	   H	0.466	4.046	-0.680	 H	1	UNK0	0.000	
47	   H	1.758	2.860	-0.888	 H	1	UNK0	0.000	
48	   H	2.178	0.707	-2.758	 H	1	UNK0	0.000	
49	   H	2.620	2.148	-3.710	 H	1	UNK0	0.000	
50	   H	3.026	0.194	-4.900	 H	1	UNK0	0.000	
51	   H	1.389	-0.433	-4.836	 H	1	UNK0	0.000	
52	   H	2.086	2.144	-5.956	 H	1	UNK0	0.000	
53	   H	-5.832	-1.361	1.736	 H	1	UNK0	0.000	
54	   H	-4.612	-2.358	2.729	 H	1	UNK0	0.000	
55	   H	-5.077	-0.783	3.345	 H	1	UNK0	0.000	
@<TRIPOS>BOND
1 1 2 1
2 2 3 2
3 2 7 1
4 3 4 1
5 4 5 2
6 4 8 1
7 5 6 1
8 6 7 2
9 8 9 2
10 9 10 1
11 9 29 1
12 10 11 1
13 11 12 2
14 11 16 1
15 12 13 1
16 12 29 1
17 13 14 2
18 13 28 1
19 14 15 1
20 15 16 2
21 15 27 1
22 16 17 1
23 17 18 1
24 18 19 1
25 18 23 1
26 19 20 1
27 20 21 1
28 21 22 1
29 21 24 1
30 22 23 1
31 24 25 1
32 25 26 1
33 29 30 2
34 3 31 1
35 5 32 1
36 6 33 1
37 7 34 1
38 8 35 1
39 14 36 1
40 17 37 1
41 17 38 1
42 18 39 1
43 19 40 1
44 19 41 1
45 20 42 1
46 20 43 1
47 22 44 1
48 22 45 1
49 23 46 1
50 23 47 1
51 24 48 1
52 24 49 1
53 25 50 1
54 25 51 1
55 26 52 1
56 28 53 1
57 28 54 1
58 28 55 1
@<TRIPOS>SUBSTRUCTURE
1	UNK0	1	GROUP	1 ****	UNK
