# created with PyMOL 2.3.2
@<TRIPOS>MOLECULE
1911
48 51 1                 
SMALL
USER_CHARGES
@<TRIPOS>ATOM
1	  Cl	5.650	-1.304	0.874	Cl	1	UNK0	0.000	
2	   C	3.965	-0.880	0.512	C.2	1	UNK0	0.000	
3	   C	3.631	0.133	-0.357	C.2	1	UNK0	0.000	
4	   C	2.300	0.421	-0.643	C.2	1	UNK0	0.000	
5	   C	1.272	-0.313	-0.056	C.2	1	UNK0	0.000	
6	   C	1.628	-1.322	0.815	C.2	1	UNK0	0.000	
7	   C	2.961	-1.604	1.096	C.2	1	UNK0	0.000	
8	   N	-0.082	-0.105	-0.424	N.pl3	1	UNK0	0.000	
9	   C	-1.164	0.684	0.045	C.3	1	UNK0	0.000	
10	   C	-2.378	0.227	-0.697	C.3	1	UNK0	0.000	
11	   N	-2.000	-0.879	-1.532	N.4	1	UNK0	0.000	
12	   C	-2.391	-2.191	-1.066	C.3	1	UNK0	0.000	
13	   C	-1.323	-3.169	-1.531	C.3	1	UNK0	0.000	
14	   C	-1.249	-3.293	-3.041	C.3	1	UNK0	0.000	
15	   C	-0.305	-2.227	-3.643	C.3	1	UNK0	0.000	
16	   C	0.179	-1.430	-2.456	C.2	1	UNK0	0.000	
17	   C	-0.586	-0.862	-1.562	C.2	1	UNK0	0.000	
18	   O	-1.379	0.285	1.391	O.3	1	UNK0	0.000	
19	   C	-0.903	2.109	0.097	C.2	1	UNK0	0.000	
20	   C	-0.090	2.549	1.156	C.2	1	UNK0	0.000	
21	   C	0.239	3.882	1.299	C.2	1	UNK0	0.000	
22	   C	-0.221	4.838	0.400	C.2	1	UNK0	0.000	
23	   C	-1.019	4.417	-0.640	C.2	1	UNK0	0.000	
24	   C	-1.337	3.061	-0.761	C.2	1	UNK0	0.000	
25	   N	0.139	6.208	0.570	N.pl3	1	UNK0	0.000	
26	   O	0.867	6.532	1.530	O.2	1	UNK0	0.000	
27	   O	-0.277	7.195	-0.281	O.2	1	UNK0	0.000	
28	   H	4.413	0.719	-0.833	 H	1	UNK0	0.000	
29	   H	2.040	1.224	-1.332	 H	1	UNK0	0.000	
30	   H	0.824	-1.910	1.296	 H	1	UNK0	0.000	
31	   H	3.218	-2.397	1.782	 H	1	UNK0	0.000	
32	   H	-3.198	-0.092	-0.027	 H	1	UNK0	0.000	
33	   H	-2.808	0.980	-1.386	 H	1	UNK0	0.000	
34	   H	-2.357	-0.798	-2.521	 H	1	UNK0	0.000	
35	   H	-2.400	-2.253	0.048	 H	1	UNK0	0.000	
36	   H	-3.340	-2.561	-1.490	 H	1	UNK0	0.000	
37	   H	-1.537	-4.178	-1.125	 H	1	UNK0	0.000	
38	   H	-0.344	-2.834	-1.108	 H	1	UNK0	0.000	
39	   H	-0.803	-4.248	-3.348	 H	1	UNK0	0.000	
40	   H	-2.256	-3.138	-3.466	 H	1	UNK0	0.000	
41	   H	-0.898	-1.540	-4.272	 H	1	UNK0	0.000	
42	   H	0.509	-2.653	-4.219	 H	1	UNK0	0.000	
43	   H	1.224	-1.342	-2.370	 H	1	UNK0	0.000	
44	   H	-2.371	0.282	1.568	 H	1	UNK0	0.000	
45	   H	0.294	1.842	1.894	 H	1	UNK0	0.000	
46	   H	0.851	4.236	2.095	 H	1	UNK0	0.000	
47	   H	-1.388	5.149	-1.352	 H	1	UNK0	0.000	
48	   H	-1.952	2.789	-1.578	 H	1	UNK0	0.000	
@<TRIPOS>BOND
1 1 2 1
2 2 3 2
3 2 7 1
4 3 4 1
5 4 5 2
6 5 6 1
7 5 8 1
8 6 7 2
9 8 9 1
10 8 17 1
11 9 10 1
12 9 18 1
13 9 19 1
14 10 11 1
15 11 12 1
16 11 17 1
17 12 13 1
18 13 14 1
19 14 15 1
20 15 16 1
21 16 17 2
22 19 20 2
23 19 24 1
24 20 21 1
25 21 22 2
26 22 23 1
27 22 25 1
28 23 24 2
29 25 26 2
30 25 27 1
31 3 28 1
32 4 29 1
33 6 30 1
34 7 31 1
35 10 32 1
36 10 33 1
37 11 34 1
38 12 35 1
39 12 36 1
40 13 37 1
41 13 38 1
42 14 39 1
43 14 40 1
44 15 41 1
45 15 42 1
46 16 43 1
47 18 44 1
48 20 45 1
49 21 46 1
50 23 47 1
51 24 48 1
@<TRIPOS>SUBSTRUCTURE
1	UNK0	1	GROUP	1 ****	UNK
