# created with PyMOL 2.3.2
@<TRIPOS>MOLECULE
1912
51 54 1                 
SMALL
USER_CHARGES
@<TRIPOS>ATOM
1	   S	3.120	1.414	-2.486	S.O2	1	UNK0	0.000	
2	   O	3.819	2.499	-3.278	O.2	1	UNK0	0.000	
3	   O	3.953	1.220	-1.239	O.2	1	UNK0	0.000	
4	   N	1.587	1.967	-2.069	N.3	1	UNK0	0.000	
5	   C	0.839	1.111	-1.192	C.3	1	UNK0	0.000	
6	   C	-0.438	1.744	-0.693	C.3	1	UNK0	0.000	
7	   O	-0.798	2.716	-1.631	O.3	1	UNK0	0.000	
8	   C	0.093	3.798	-1.428	C.3	1	UNK0	0.000	
9	   C	1.514	3.360	-1.723	C.3	1	UNK0	0.000	
10	   C	-1.469	0.673	-0.625	C.2	1	UNK0	0.000	
11	   O	-2.454	0.756	-1.389	O.2	1	UNK0	0.000	
12	   N	-1.370	-0.411	0.258	N.pl3	1	UNK0	0.000	
13	   C	-0.282	-0.610	1.200	C.3	1	UNK0	0.000	
14	   C	-0.682	-1.488	2.354	C.3	1	UNK0	0.000	
15	   N	-2.039	-1.424	2.703	N.3	1	UNK0	0.000	
16	   C	-2.993	-1.473	1.649	C.3	1	UNK0	0.000	
17	   C	-2.398	-1.453	0.281	C.3	1	UNK0	0.000	
18	   C	-2.461	-0.792	3.867	C.3	1	UNK0	0.000	
19	   C	-2.243	0.681	4.100	C.3	1	UNK0	0.000	
20	   C	-1.603	-0.378	4.999	C.3	1	UNK0	0.000	
21	   C	3.114	-0.101	-3.345	C.2	1	UNK0	0.000	
22	   C	2.436	-0.149	-4.543	C.2	1	UNK0	0.000	
23	   C	2.402	-1.323	-5.262	C.2	1	UNK0	0.000	
24	   C	3.050	-2.431	-4.768	C.2	1	UNK0	0.000	
25	   C	3.743	-2.414	-3.562	C.2	1	UNK0	0.000	
26	   C	3.756	-1.228	-2.872	C.2	1	UNK0	0.000	
27	  Cl	1.600	1.276	-5.181	Cl	1	UNK0	0.000	
28	   H	1.488	0.943	-0.300	 H	1	UNK0	0.000	
29	   H	0.599	0.190	-1.735	 H	1	UNK0	0.000	
30	   H	-0.317	2.232	0.288	 H	1	UNK0	0.000	
31	   H	-0.051	4.109	-0.373	 H	1	UNK0	0.000	
32	   H	-0.214	4.667	-2.055	 H	1	UNK0	0.000	
33	   H	2.096	3.501	-0.784	 H	1	UNK0	0.000	
34	   H	1.996	3.957	-2.502	 H	1	UNK0	0.000	
35	   H	0.130	0.353	1.568	 H	1	UNK0	0.000	
36	   H	0.533	-1.119	0.649	 H	1	UNK0	0.000	
37	   H	-0.049	-1.225	3.211	 H	1	UNK0	0.000	
38	   H	-0.433	-2.560	2.098	 H	1	UNK0	0.000	
39	   H	-3.602	-2.391	1.759	 H	1	UNK0	0.000	
40	   H	-3.680	-0.610	1.749	 H	1	UNK0	0.000	
41	   H	-1.846	-2.421	0.144	 H	1	UNK0	0.000	
42	   H	-3.154	-1.291	-0.490	 H	1	UNK0	0.000	
43	   H	-3.501	-1.109	4.201	 H	1	UNK0	0.000	
44	   H	-3.057	1.305	4.493	 H	1	UNK0	0.000	
45	   H	-1.511	1.228	3.490	 H	1	UNK0	0.000	
46	   H	-0.524	-0.498	4.977	 H	1	UNK0	0.000	
47	   H	-2.031	-0.345	6.032	 H	1	UNK0	0.000	
48	   H	1.858	-1.355	-6.219	 H	1	UNK0	0.000	
49	   H	3.004	-3.343	-5.361	 H	1	UNK0	0.000	
50	   H	4.250	-3.305	-3.189	 H	1	UNK0	0.000	
51	   H	4.296	-1.179	-1.913	 H	1	UNK0	0.000	
@<TRIPOS>BOND
1 1 2 2
2 1 3 2
3 1 4 1
4 1 21 1
5 4 5 1
6 4 9 1
7 5 6 1
8 6 7 1
9 6 10 1
10 7 8 1
11 8 9 1
12 10 11 2
13 10 12 1
14 12 13 1
15 12 17 1
16 13 14 1
17 14 15 1
18 15 16 1
19 15 18 1
20 16 17 1
21 18 19 1
22 18 20 1
23 19 20 1
24 21 22 2
25 21 26 1
26 22 23 1
27 22 27 1
28 23 24 2
29 24 25 1
30 25 26 2
31 5 28 1
32 5 29 1
33 6 30 1
34 8 31 1
35 8 32 1
36 9 33 1
37 9 34 1
38 13 35 1
39 13 36 1
40 14 37 1
41 14 38 1
42 16 39 1
43 16 40 1
44 17 41 1
45 17 42 1
46 18 43 1
47 19 44 1
48 19 45 1
49 20 46 1
50 20 47 1
51 23 48 1
52 24 49 1
53 25 50 1
54 26 51 1
@<TRIPOS>SUBSTRUCTURE
1	UNK0	1	GROUP	1 ****	UNK
