# created with PyMOL 2.3.2
@<TRIPOS>MOLECULE
1914
42 45 1                 
SMALL
USER_CHARGES
@<TRIPOS>ATOM
1	  Br	-1.135	4.000	0.754	Br	1	UNK0	0.000	
2	   C	-1.326	2.172	0.253	C.2	1	UNK0	0.000	
3	   C	-2.270	1.856	-0.706	C.2	1	UNK0	0.000	
4	   N	-3.164	2.537	-1.444	N.pl3	1	UNK0	0.000	
5	   C	-3.845	1.694	-2.243	C.2	1	UNK0	0.000	
6	   N	-3.352	0.472	-1.984	N.2	1	UNK0	0.000	
7	   C	-2.384	0.525	-1.047	C.2	1	UNK0	0.000	
8	   C	-1.569	-0.407	-0.429	C.2	1	UNK0	0.000	
9	   N	-0.653	-0.092	0.504	N.pl3	1	UNK0	0.000	
10	   C	-0.535	1.207	0.842	C.2	1	UNK0	0.000	
11	   C	0.191	-1.082	1.140	C.3	1	UNK0	0.000	
12	   C	1.431	-1.231	0.343	C.2	1	UNK0	0.000	
13	   O	1.569	-0.535	-0.693	O.2	1	UNK0	0.000	
14	   C	2.487	-2.182	0.758	C.2	1	UNK0	0.000	
15	   C	2.337	-2.945	1.892	C.2	1	UNK0	0.000	
16	   C	3.324	-3.840	2.288	C.2	1	UNK0	0.000	
17	   C	4.485	-3.993	1.559	C.2	1	UNK0	0.000	
18	   C	4.622	-3.221	0.424	C.2	1	UNK0	0.000	
19	   C	3.641	-2.327	0.025	C.2	1	UNK0	0.000	
20	   C	5.459	-4.885	1.962	C.2	1	UNK0	0.000	
21	   C	5.322	-5.656	3.097	C.2	1	UNK0	0.000	
22	   C	4.160	-5.504	3.828	C.2	1	UNK0	0.000	
23	   C	3.188	-4.614	3.425	C.2	1	UNK0	0.000	
24	   C	-4.924	2.067	-3.212	C.3	1	UNK0	0.000	
25	   C	-3.327	3.984	-1.349	C.3	1	UNK0	0.000	
26	   H	-1.663	-1.444	-0.699	 H	1	UNK0	0.000	
27	   H	0.206	1.451	1.595	 H	1	UNK0	0.000	
28	   H	-0.390	-2.049	1.100	 H	1	UNK0	0.000	
29	   H	0.402	-0.821	2.195	 H	1	UNK0	0.000	
30	   H	1.434	-2.842	2.480	 H	1	UNK0	0.000	
31	   H	5.540	-3.341	-0.154	 H	1	UNK0	0.000	
32	   H	3.772	-1.728	-0.875	 H	1	UNK0	0.000	
33	   H	6.357	-4.976	1.362	 H	1	UNK0	0.000	
34	   H	6.106	-6.351	3.390	 H	1	UNK0	0.000	
35	   H	4.044	-6.102	4.714	 H	1	UNK0	0.000	
36	   H	2.261	-4.477	3.987	 H	1	UNK0	0.000	
37	   H	-4.712	1.461	-4.133	 H	1	UNK0	0.000	
38	   H	-4.860	3.116	-3.494	 H	1	UNK0	0.000	
39	   H	-5.889	1.734	-2.822	 H	1	UNK0	0.000	
40	   H	-2.404	4.472	-1.686	 H	1	UNK0	0.000	
41	   H	-3.537	4.298	-0.288	 H	1	UNK0	0.000	
42	   H	-4.186	4.306	-1.980	 H	1	UNK0	0.000	
@<TRIPOS>BOND
1 1 2 1
2 2 3 2
3 2 10 1
4 3 4 1
5 3 7 1
6 4 5 1
7 4 25 1
8 5 6 2
9 5 24 1
10 6 7 1
11 7 8 2
12 8 9 1
13 9 10 2
14 9 11 1
15 11 12 1
16 12 13 2
17 12 14 1
18 14 15 2
19 14 19 1
20 15 16 1
21 16 17 2
22 16 23 1
23 17 18 1
24 17 20 1
25 18 19 2
26 20 21 2
27 21 22 1
28 22 23 2
29 8 26 1
30 10 27 1
31 11 28 1
32 11 29 1
33 15 30 1
34 18 31 1
35 19 32 1
36 20 33 1
37 21 34 1
38 22 35 1
39 23 36 1
40 24 37 1
41 24 38 1
42 24 39 1
43 25 40 1
44 25 41 1
45 25 42 1
@<TRIPOS>SUBSTRUCTURE
1	UNK0	1	GROUP	1 ****	UNK
