# created with PyMOL 2.3.2
@<TRIPOS>MOLECULE
1915
47 50 1                 
SMALL
USER_CHARGES
@<TRIPOS>ATOM
1	  Cl	1.637	4.724	0.855	Cl	1	UNK0	0.000	
2	   C	1.171	3.282	1.750	C.2	1	UNK0	0.000	
3	   C	0.444	3.437	2.930	C.2	1	UNK0	0.000	
4	   C	0.079	2.310	3.630	C.2	1	UNK0	0.000	
5	   C	0.433	1.062	3.161	C.2	1	UNK0	0.000	
6	   C	1.150	0.867	2.002	C.2	1	UNK0	0.000	
7	   C	1.503	2.039	1.317	C.2	1	UNK0	0.000	
8	   N	1.544	-0.398	1.500	N.pl3	1	UNK0	0.000	
9	   C	0.776	-1.580	1.355	C.2	1	UNK0	0.000	
10	   O	-0.217	-1.849	2.119	O.2	1	UNK0	0.000	
11	   C	1.297	-2.387	0.239	C.3	1	UNK0	0.000	
12	   C	0.847	-2.040	-1.121	C.3	1	UNK0	0.000	
13	   O	1.675	-0.950	-1.502	O.3	1	UNK0	0.000	
14	   C	2.894	-1.597	-1.282	C.3	1	UNK0	0.000	
15	   C	2.770	-1.948	0.174	C.3	1	UNK0	0.000	
16	   C	2.852	-0.740	1.021	C.2	1	UNK0	0.000	
17	   O	3.916	-0.116	1.273	O.2	1	UNK0	0.000	
18	   C	2.701	-2.805	-2.129	C.2	1	UNK0	0.000	
19	   C	1.406	-3.085	-2.040	C.2	1	UNK0	0.000	
20	   C	-0.583	-1.770	-1.379	C.3	1	UNK0	0.000	
21	   O	-0.682	-1.524	-2.800	O.3	1	UNK0	0.000	
22	   C	-1.416	-2.379	-3.579	C.2	1	UNK0	0.000	
23	   O	-2.011	-3.378	-3.097	O.co2	1	UNK0	0.000	
24	   C	-1.511	-2.111	-5.058	C.3	1	UNK0	0.000	
25	   O	-1.156	-0.677	-0.737	O.3	1	UNK0	0.000	
26	   C	-2.348	-0.859	-0.030	C.2	1	UNK0	0.000	
27	   O	-2.875	-2.016	0.005	O.co2	1	UNK0	0.000	
28	   C	-3.021	0.240	0.679	C.3	1	UNK0	0.000	
29	   C	0.081	4.785	3.404	C.3	1	UNK0	0.000	
30	   H	-0.485	2.443	4.546	 H	1	UNK0	0.000	
31	   H	0.140	0.181	3.721	 H	1	UNK0	0.000	
32	   H	2.065	1.912	0.402	 H	1	UNK0	0.000	
33	   H	1.257	-3.487	0.450	 H	1	UNK0	0.000	
34	   H	3.773	-1.005	-1.533	 H	1	UNK0	0.000	
35	   H	3.433	-2.774	0.500	 H	1	UNK0	0.000	
36	   H	3.422	-3.359	-2.703	 H	1	UNK0	0.000	
37	   H	0.841	-3.880	-2.510	 H	1	UNK0	0.000	
38	   H	-1.176	-2.686	-1.195	 H	1	UNK0	0.000	
39	   H	-2.386	-1.454	-5.275	 H	1	UNK0	0.000	
40	   H	-1.577	-3.074	-5.602	 H	1	UNK0	0.000	
41	   H	-0.592	-1.568	-5.403	 H	1	UNK0	0.000	
42	   H	-3.806	0.753	0.071	 H	1	UNK0	0.000	
43	   H	-2.248	0.984	0.978	 H	1	UNK0	0.000	
44	   H	-3.542	-0.072	1.612	 H	1	UNK0	0.000	
45	   H	0.757	5.531	2.925	 H	1	UNK0	0.000	
46	   H	0.133	4.789	4.506	 H	1	UNK0	0.000	
47	   H	-0.972	4.999	3.076	 H	1	UNK0	0.000	
@<TRIPOS>BOND
1 1 2 1
2 2 3 2
3 2 7 1
4 3 4 1
5 3 29 1
6 4 5 2
7 5 6 1
8 6 7 2
9 6 8 1
10 8 9 1
11 8 16 1
12 9 10 2
13 9 11 1
14 11 12 1
15 11 15 1
16 12 13 1
17 12 19 1
18 12 20 1
19 13 14 1
20 14 15 1
21 14 18 1
22 15 16 1
23 16 17 2
24 18 19 2
25 20 21 1
26 20 25 1
27 21 22 1
28 22 23 2
29 22 24 1
30 25 26 1
31 26 27 2
32 26 28 1
33 4 30 1
34 5 31 1
35 7 32 1
36 11 33 1
37 14 34 1
38 15 35 1
39 18 36 1
40 19 37 1
41 20 38 1
42 24 39 1
43 24 40 1
44 24 41 1
45 28 42 1
46 28 43 1
47 28 44 1
48 29 45 1
49 29 46 1
50 29 47 1
@<TRIPOS>SUBSTRUCTURE
1	UNK0	1	GROUP	1 ****	UNK
