# created with PyMOL 2.3.2
@<TRIPOS>MOLECULE
1916
49 52 1                 
SMALL
USER_CHARGES
@<TRIPOS>ATOM
1	  Cl	-1.878	-4.750	-5.002	Cl	1	UNK0	0.000	
2	   C	-2.180	-4.183	-3.367	C.2	1	UNK0	0.000	
3	   C	-1.230	-3.353	-2.742	C.2	1	UNK0	0.000	
4	   C	-1.476	-2.918	-1.469	C.2	1	UNK0	0.000	
5	   C	-2.651	-3.289	-0.795	C.2	1	UNK0	0.000	
6	   C	-3.537	-4.100	-1.458	C.2	1	UNK0	0.000	
7	   C	-3.340	-4.566	-2.739	C.2	1	UNK0	0.000	
8	   C	-0.361	-2.069	-1.040	C.3	1	UNK0	0.000	
9	   N	0.227	-2.447	0.191	N.3	1	UNK0	0.000	
10	   C	-0.240	-1.542	1.195	C.3	1	UNK0	0.000	
11	   C	-0.685	-0.304	0.513	C.3	1	UNK0	0.000	
12	   C	-0.880	-0.659	-0.916	C.3	1	UNK0	0.000	
13	   C	-0.089	0.309	-1.694	C.2	1	UNK0	0.000	
14	   O	0.041	0.390	-2.954	O.2	1	UNK0	0.000	
15	   N	0.548	1.197	-0.780	N.pl3	1	UNK0	0.000	
16	   C	0.227	0.835	0.557	C.2	1	UNK0	0.000	
17	   O	0.656	1.401	1.587	O.2	1	UNK0	0.000	
18	   C	1.428	2.276	-1.143	C.3	1	UNK0	0.000	
19	   C	0.850	3.583	-1.464	C.3	1	UNK0	0.000	
20	   C	0.030	4.285	-0.444	C.3	1	UNK0	0.000	
21	   C	-1.229	3.559	-0.058	C.3	1	UNK0	0.000	
22	   C	0.765	-1.342	2.307	C.3	1	UNK0	0.000	
23	   O	1.959	-0.841	1.820	O.3	1	UNK0	0.000	
24	   C	1.056	-2.682	2.957	C.3	1	UNK0	0.000	
25	   C	0.577	-2.074	-2.169	C.2	1	UNK0	0.000	
26	   O	1.712	-1.487	-2.244	O.2	1	UNK0	0.000	
27	   N	0.020	-2.852	-3.198	N.pl3	1	UNK0	0.000	
28	   H	-2.770	-2.905	0.203	 H	1	UNK0	0.000	
29	   H	-4.446	-4.370	-0.899	 H	1	UNK0	0.000	
30	   H	-4.074	-5.213	-3.235	 H	1	UNK0	0.000	
31	   H	0.110	-3.453	0.434	 H	1	UNK0	0.000	
32	   H	-1.161	-1.975	1.698	 H	1	UNK0	0.000	
33	   H	-1.696	0.053	0.892	 H	1	UNK0	0.000	
34	   H	-1.970	-0.623	-1.209	 H	1	UNK0	0.000	
35	   H	2.155	1.924	-1.944	 H	1	UNK0	0.000	
36	   H	2.136	2.442	-0.268	 H	1	UNK0	0.000	
37	   H	0.274	3.609	-2.425	 H	1	UNK0	0.000	
38	   H	1.730	4.278	-1.679	 H	1	UNK0	0.000	
39	   H	0.632	4.484	0.490	 H	1	UNK0	0.000	
40	   H	-0.287	5.308	-0.803	 H	1	UNK0	0.000	
41	   H	-2.135	4.227	-0.183	 H	1	UNK0	0.000	
42	   H	-1.393	2.742	-0.774	 H	1	UNK0	0.000	
43	   H	-1.267	3.229	0.990	 H	1	UNK0	0.000	
44	   H	0.414	-0.675	3.092	 H	1	UNK0	0.000	
45	   H	2.661	-1.529	1.816	 H	1	UNK0	0.000	
46	   H	0.194	-3.000	3.585	 H	1	UNK0	0.000	
47	   H	1.937	-2.603	3.621	 H	1	UNK0	0.000	
48	   H	1.183	-3.449	2.169	 H	1	UNK0	0.000	
49	   H	0.415	-3.059	-4.156	 H	1	UNK0	0.000	
@<TRIPOS>BOND
1 1 2 1
2 2 3 2
3 2 7 1
4 3 4 1
5 3 27 1
6 4 5 2
7 4 8 1
8 5 6 1
9 6 7 2
10 8 9 1
11 8 12 1
12 8 25 1
13 9 10 1
14 10 11 1
15 10 22 1
16 11 12 1
17 11 16 1
18 12 13 1
19 13 14 2
20 13 15 1
21 15 16 1
22 15 18 1
23 16 17 2
24 18 19 1
25 19 20 1
26 20 21 1
27 22 23 1
28 22 24 1
29 25 26 2
30 25 27 1
31 5 28 1
32 6 29 1
33 7 30 1
34 9 31 1
35 10 32 1
36 11 33 1
37 12 34 1
38 18 35 1
39 18 36 1
40 19 37 1
41 19 38 1
42 20 39 1
43 20 40 1
44 21 41 1
45 21 42 1
46 21 43 1
47 22 44 1
48 23 45 1
49 24 46 1
50 24 47 1
51 24 48 1
52 27 49 1
@<TRIPOS>SUBSTRUCTURE
1	UNK0	1	GROUP	1 ****	UNK
