# created with PyMOL 2.3.2
@<TRIPOS>MOLECULE
1921
45 48 1                 
SMALL
USER_CHARGES
@<TRIPOS>ATOM
1	  Br	-1.261	-1.407	-7.644	Br	1	UNK0	0.000	
2	   C	-1.134	-0.184	-6.201	C.2	1	UNK0	0.000	
3	   C	-2.202	0.651	-5.923	C.2	1	UNK0	0.000	
4	   N	-2.152	1.521	-4.918	N.2	1	UNK0	0.000	
5	   C	-1.068	1.631	-4.128	C.2	1	UNK0	0.000	
6	   N	-0.770	2.407	-3.076	N.pl3	1	UNK0	0.000	
7	   C	0.472	2.142	-2.607	C.2	1	UNK0	0.000	
8	   N	0.951	1.159	-3.414	N.2	1	UNK0	0.000	
9	   C	0.036	0.837	-4.339	C.2	1	UNK0	0.000	
10	   C	-0.017	-0.076	-5.392	C.2	1	UNK0	0.000	
11	   N	1.128	2.753	-1.512	N.pl3	1	UNK0	0.000	
12	   C	2.461	2.358	-1.123	C.3	1	UNK0	0.000	
13	   C	2.442	1.996	0.336	C.3	1	UNK0	0.000	
14	   N	1.199	2.169	0.980	N.3	1	UNK0	0.000	
15	   C	0.424	3.314	0.684	C.3	1	UNK0	0.000	
16	   C	0.499	3.789	-0.738	C.3	1	UNK0	0.000	
17	   C	0.424	0.962	0.888	C.3	1	UNK0	0.000	
18	   C	0.953	-0.161	1.693	C.2	1	UNK0	0.000	
19	   O	1.980	0.011	2.377	O.2	1	UNK0	0.000	
20	   N	0.337	-1.436	1.721	N.pl3	1	UNK0	0.000	
21	   C	0.717	-2.625	2.446	C.3	1	UNK0	0.000	
22	   C	0.086	-3.809	1.815	C.3	1	UNK0	0.000	
23	   C	-0.812	-3.253	0.757	C.3	1	UNK0	0.000	
24	   C	-0.863	-1.769	0.960	C.3	1	UNK0	0.000	
25	   H	-3.093	0.573	-6.558	 H	1	UNK0	0.000	
26	   H	-1.410	3.117	-2.674	 H	1	UNK0	0.000	
27	   H	0.822	-0.703	-5.579	 H	1	UNK0	0.000	
28	   H	2.763	1.464	-1.703	 H	1	UNK0	0.000	
29	   H	3.202	3.159	-1.327	 H	1	UNK0	0.000	
30	   H	3.176	2.692	0.843	 H	1	UNK0	0.000	
31	   H	2.771	0.942	0.434	 H	1	UNK0	0.000	
32	   H	0.815	4.153	1.332	 H	1	UNK0	0.000	
33	   H	-0.645	3.225	1.017	 H	1	UNK0	0.000	
34	   H	-0.520	4.035	-1.100	 H	1	UNK0	0.000	
35	   H	1.173	4.676	-0.797	 H	1	UNK0	0.000	
36	   H	-0.650	1.137	1.197	 H	1	UNK0	0.000	
37	   H	0.339	0.603	-0.170	 H	1	UNK0	0.000	
38	   H	1.841	-2.688	2.323	 H	1	UNK0	0.000	
39	   H	0.510	-2.533	3.535	 H	1	UNK0	0.000	
40	   H	0.870	-4.472	1.361	 H	1	UNK0	0.000	
41	   H	-0.473	-4.365	2.605	 H	1	UNK0	0.000	
42	   H	-0.353	-3.482	-0.240	 H	1	UNK0	0.000	
43	   H	-1.805	-3.740	0.834	 H	1	UNK0	0.000	
44	   H	-1.792	-1.508	1.469	 H	1	UNK0	0.000	
45	   H	-0.803	-1.283	-0.028	 H	1	UNK0	0.000	
@<TRIPOS>BOND
1 1 2 1
2 2 3 2
3 2 10 1
4 3 4 1
5 4 5 2
6 5 6 1
7 5 9 1
8 6 7 1
9 7 8 2
10 7 11 1
11 8 9 1
12 9 10 2
13 11 12 1
14 11 16 1
15 12 13 1
16 13 14 1
17 14 15 1
18 14 17 1
19 15 16 1
20 17 18 1
21 18 19 2
22 18 20 1
23 20 21 1
24 20 24 1
25 21 22 1
26 22 23 1
27 23 24 1
28 3 25 1
29 6 26 1
30 10 27 1
31 12 28 1
32 12 29 1
33 13 30 1
34 13 31 1
35 15 32 1
36 15 33 1
37 16 34 1
38 16 35 1
39 17 36 1
40 17 37 1
41 21 38 1
42 21 39 1
43 22 40 1
44 22 41 1
45 23 42 1
46 23 43 1
47 24 44 1
48 24 45 1
@<TRIPOS>SUBSTRUCTURE
1	UNK0	1	GROUP	1 ****	UNK
