# created with PyMOL 2.3.2
@<TRIPOS>MOLECULE
1922
49 52 1                 
SMALL
USER_CHARGES
@<TRIPOS>ATOM
1	  Cl	0.560	-4.139	5.674	Cl	1	UNK0	0.000	
2	   C	1.472	-4.896	4.381	C.2	1	UNK0	0.000	
3	   C	1.134	-4.701	3.072	C.2	1	UNK0	0.000	
4	   C	1.927	-5.332	2.111	C.2	1	UNK0	0.000	
5	   C	2.994	-6.110	2.471	C.2	1	UNK0	0.000	
6	   C	3.312	-6.290	3.782	C.2	1	UNK0	0.000	
7	   C	2.564	-5.692	4.756	C.2	1	UNK0	0.000	
8	   C	-0.004	-3.895	2.629	C.2	1	UNK0	0.000	
9	   C	-0.310	-3.651	1.359	C.2	1	UNK0	0.000	
10	   C	-1.510	-2.808	1.365	C.3	1	UNK0	0.000	
11	   O	-1.539	-2.241	2.659	O.3	1	UNK0	0.000	
12	   N	-0.987	-3.260	3.403	N.pl3	1	UNK0	0.000	
13	   C	-2.791	-3.551	1.138	C.3	1	UNK0	0.000	
14	   C	-1.445	-1.702	0.349	C.2	1	UNK0	0.000	
15	   O	-1.413	-2.096	-0.838	O.2	1	UNK0	0.000	
16	   N	-1.423	-0.355	0.705	N.pl3	1	UNK0	0.000	
17	   C	-1.364	0.764	-0.147	C.2	1	UNK0	0.000	
18	   C	-1.327	0.734	-1.515	C.2	1	UNK0	0.000	
19	   N	-1.268	1.877	-2.241	N.2	1	UNK0	0.000	
20	   C	-1.242	3.105	-1.700	C.2	1	UNK0	0.000	
21	   C	-1.277	3.176	-0.318	C.2	1	UNK0	0.000	
22	   C	-1.337	2.031	0.429	C.2	1	UNK0	0.000	
23	   N	-1.179	4.288	-2.478	N.pl3	1	UNK0	0.000	
24	   C	-1.150	4.226	-3.922	C.3	1	UNK0	0.000	
25	   C	-0.108	5.191	-4.487	C.3	1	UNK0	0.000	
26	   N	-0.358	6.523	-3.979	N.pl3	1	UNK0	0.000	
27	   C	-1.178	6.663	-2.830	C.2	1	UNK0	0.000	
28	   O	-1.897	7.688	-2.699	O.2	1	UNK0	0.000	
29	   C	-1.143	5.567	-1.819	C.3	1	UNK0	0.000	
30	   H	1.674	-5.190	1.064	 H	1	UNK0	0.000	
31	   H	3.571	-6.572	1.680	 H	1	UNK0	0.000	
32	   H	4.157	-6.907	4.045	 H	1	UNK0	0.000	
33	   H	2.793	-5.816	5.808	 H	1	UNK0	0.000	
34	   H	0.218	-4.004	0.512	 H	1	UNK0	0.000	
35	   H	-1.313	-3.454	4.351	 H	1	UNK0	0.000	
36	   H	-2.570	-4.431	0.486	 H	1	UNK0	0.000	
37	   H	-3.550	-2.948	0.569	 H	1	UNK0	0.000	
38	   H	-3.296	-3.848	2.079	 H	1	UNK0	0.000	
39	   H	-1.456	-0.169	1.759	 H	1	UNK0	0.000	
40	   H	-1.346	-0.225	-2.026	 H	1	UNK0	0.000	
41	   H	-1.255	4.180	0.112	 H	1	UNK0	0.000	
42	   H	-1.363	2.120	1.500	 H	1	UNK0	0.000	
43	   H	-0.881	3.221	-4.300	 H	1	UNK0	0.000	
44	   H	-2.149	4.476	-4.343	 H	1	UNK0	0.000	
45	   H	0.876	4.821	-4.115	 H	1	UNK0	0.000	
46	   H	-0.169	5.119	-5.570	 H	1	UNK0	0.000	
47	   H	0.054	7.370	-4.445	 H	1	UNK0	0.000	
48	   H	-1.985	5.706	-1.088	 H	1	UNK0	0.000	
49	   H	-0.154	5.656	-1.281	 H	1	UNK0	0.000	
@<TRIPOS>BOND
1 1 2 1
2 2 3 2
3 2 7 1
4 3 4 1
5 3 8 1
6 4 5 2
7 5 6 1
8 6 7 2
9 8 9 2
10 8 12 1
11 9 10 1
12 10 11 1
13 10 13 1
14 10 14 1
15 11 12 1
16 14 15 2
17 14 16 1
18 16 17 1
19 17 18 2
20 17 22 1
21 18 19 1
22 19 20 2
23 20 21 1
24 20 23 1
25 21 22 2
26 23 24 1
27 23 29 1
28 24 25 1
29 25 26 1
30 26 27 1
31 27 28 2
32 27 29 1
33 4 30 1
34 5 31 1
35 6 32 1
36 7 33 1
37 9 34 1
38 12 35 1
39 13 36 1
40 13 37 1
41 13 38 1
42 16 39 1
43 18 40 1
44 21 41 1
45 22 42 1
46 24 43 1
47 24 44 1
48 25 45 1
49 25 46 1
50 26 47 1
51 29 48 1
52 29 49 1
@<TRIPOS>SUBSTRUCTURE
1	UNK0	1	GROUP	1 ****	UNK
