# created with PyMOL 2.3.2
@<TRIPOS>MOLECULE
1923
53 56 1                 
SMALL
USER_CHARGES
@<TRIPOS>ATOM
1	  Cl	-0.817	-3.182	4.864	Cl	1	UNK0	0.000	
2	   C	-1.692	-1.867	4.125	C.2	1	UNK0	0.000	
3	   C	-1.070	-1.003	3.225	C.2	1	UNK0	0.000	
4	   C	-1.740	0.041	2.630	C.2	1	UNK0	0.000	
5	   C	-3.059	0.196	2.966	C.2	1	UNK0	0.000	
6	   C	-3.703	-0.663	3.870	C.2	1	UNK0	0.000	
7	   C	-3.018	-1.693	4.447	C.2	1	UNK0	0.000	
8	   C	-1.054	0.956	1.691	C.3	1	UNK0	0.000	
9	   N	-0.875	0.343	0.390	N.pl3	1	UNK0	0.000	
10	   C	-1.795	0.466	-0.620	C.2	1	UNK0	0.000	
11	   C	-1.290	-0.294	-1.657	C.2	1	UNK0	0.000	
12	   N	-0.127	-0.842	-1.289	N.2	1	UNK0	0.000	
13	   C	0.132	-0.437	-0.002	C.2	1	UNK0	0.000	
14	   N	1.304	-0.761	0.724	N.pl3	1	UNK0	0.000	
15	   C	1.793	-2.125	0.636	C.3	1	UNK0	0.000	
16	   C	3.040	-2.106	-0.213	C.3	1	UNK0	0.000	
17	   C	3.863	-0.871	0.062	C.3	1	UNK0	0.000	
18	   C	3.561	-0.283	1.416	C.3	1	UNK0	0.000	
19	   C	2.100	0.144	1.516	C.3	1	UNK0	0.000	
20	   C	3.654	0.155	-1.010	C.2	1	UNK0	0.000	
21	   O	2.879	-0.067	-1.977	O.2	1	UNK0	0.000	
22	   N	4.319	1.390	-0.960	N.pl3	1	UNK0	0.000	
23	   N	-1.979	-0.369	-2.818	N.pl3	1	UNK0	0.000	
24	   C	-3.128	0.295	-2.930	C.2	1	UNK0	0.000	
25	   O	-3.752	0.208	-4.024	O.2	1	UNK0	0.000	
26	   N	-3.664	1.045	-1.967	N.pl3	1	UNK0	0.000	
27	   C	-2.981	1.127	-0.796	C.2	1	UNK0	0.000	
28	   O	-3.445	1.821	0.131	O.2	1	UNK0	0.000	
29	   C	-4.936	1.762	-2.131	C.3	1	UNK0	0.000	
30	   C	-1.438	-1.179	-3.916	C.3	1	UNK0	0.000	
31	   H	-0.032	-1.219	3.042	 H	1	UNK0	0.000	
32	   H	-3.665	0.977	2.578	 H	1	UNK0	0.000	
33	   H	-4.751	-0.531	4.129	 H	1	UNK0	0.000	
34	   H	-3.518	-2.362	5.149	 H	1	UNK0	0.000	
35	   H	-1.712	1.873	1.611	 H	1	UNK0	0.000	
36	   H	-0.107	1.321	2.145	 H	1	UNK0	0.000	
37	   H	2.072	-2.507	1.663	 H	1	UNK0	0.000	
38	   H	1.008	-2.756	0.210	 H	1	UNK0	0.000	
39	   H	3.663	-2.977	0.107	 H	1	UNK0	0.000	
40	   H	2.822	-2.262	-1.279	 H	1	UNK0	0.000	
41	   H	4.959	-1.094	0.051	 H	1	UNK0	0.000	
42	   H	4.231	0.584	1.570	 H	1	UNK0	0.000	
43	   H	3.809	-1.048	2.176	 H	1	UNK0	0.000	
44	   H	1.998	1.201	1.146	 H	1	UNK0	0.000	
45	   H	1.864	0.119	2.589	 H	1	UNK0	0.000	
46	   H	3.849	2.307	-0.774	 H	1	UNK0	0.000	
47	   H	5.351	1.419	-1.115	 H	1	UNK0	0.000	
48	   H	-4.656	2.721	-2.651	 H	1	UNK0	0.000	
49	   H	-5.582	1.214	-2.827	 H	1	UNK0	0.000	
50	   H	-5.375	2.018	-1.169	 H	1	UNK0	0.000	
51	   H	-1.273	-2.232	-3.606	 H	1	UNK0	0.000	
52	   H	-2.227	-1.211	-4.705	 H	1	UNK0	0.000	
53	   H	-0.484	-0.789	-4.283	 H	1	UNK0	0.000	
@<TRIPOS>BOND
1 1 2 1
2 2 3 2
3 2 7 1
4 3 4 1
5 4 5 2
6 4 8 1
7 5 6 1
8 6 7 2
9 8 9 1
10 9 10 1
11 9 13 1
12 10 11 2
13 10 27 1
14 11 12 1
15 11 23 1
16 12 13 2
17 13 14 1
18 14 15 1
19 14 19 1
20 15 16 1
21 16 17 1
22 17 18 1
23 17 20 1
24 18 19 1
25 20 21 2
26 20 22 1
27 23 24 1
28 23 30 1
29 24 25 2
30 24 26 1
31 26 27 1
32 26 29 1
33 27 28 2
34 3 31 1
35 5 32 1
36 6 33 1
37 7 34 1
38 8 35 1
39 8 36 1
40 15 37 1
41 15 38 1
42 16 39 1
43 16 40 1
44 17 41 1
45 18 42 1
46 18 43 1
47 19 44 1
48 19 45 1
49 22 46 1
50 22 47 1
51 29 48 1
52 29 49 1
53 29 50 1
54 30 51 1
55 30 52 1
56 30 53 1
@<TRIPOS>SUBSTRUCTURE
1	UNK0	1	GROUP	1 ****	UNK
