# created with PyMOL 2.3.2
@<TRIPOS>MOLECULE
1924
45 48 1                 
SMALL
USER_CHARGES
@<TRIPOS>ATOM
1	  Cl	1.228	-2.455	-4.725	Cl	1	UNK0	0.000	
2	   C	-0.052	-2.207	-3.519	C.2	1	UNK0	0.000	
3	   C	0.269	-2.084	-2.193	C.2	1	UNK0	0.000	
4	   C	-0.705	-1.890	-1.244	C.2	1	UNK0	0.000	
5	   C	-2.014	-1.819	-1.626	C.2	1	UNK0	0.000	
6	   C	-2.350	-1.944	-2.983	C.2	1	UNK0	0.000	
7	   C	-1.362	-2.137	-3.910	C.2	1	UNK0	0.000	
8	   C	-0.303	-1.743	0.203	C.3	1	UNK0	0.000	
9	   N	-0.363	-0.398	0.674	N.pl3	1	UNK0	0.000	
10	   C	-1.459	0.093	1.341	C.2	1	UNK0	0.000	
11	   C	-1.233	1.451	1.571	C.2	1	UNK0	0.000	
12	   N	-0.046	1.722	1.054	N.2	1	UNK0	0.000	
13	   C	0.515	0.579	0.491	C.2	1	UNK0	0.000	
14	   N	1.802	0.610	-0.066	N.pl3	1	UNK0	0.000	
15	   C	2.307	1.952	-0.536	C.3	1	UNK0	0.000	
16	   C	2.281	1.892	-2.027	C.3	1	UNK0	0.000	
17	   N	2.470	0.513	-2.483	N.3	1	UNK0	0.000	
18	   C	3.406	-0.184	-1.606	C.3	1	UNK0	0.000	
19	   C	2.788	-0.404	-0.227	C.3	1	UNK0	0.000	
20	   N	-2.103	2.243	2.214	N.pl3	1	UNK0	0.000	
21	   C	-3.254	1.691	2.659	C.2	1	UNK0	0.000	
22	   O	-4.084	2.446	3.270	O.2	1	UNK0	0.000	
23	   N	-3.520	0.388	2.465	N.pl3	1	UNK0	0.000	
24	   C	-2.638	-0.413	1.815	C.2	1	UNK0	0.000	
25	   O	-2.916	-1.620	1.657	O.2	1	UNK0	0.000	
26	   C	-1.877	3.650	2.455	C.3	1	UNK0	0.000	
27	   H	1.330	-2.159	-1.954	 H	1	UNK0	0.000	
28	   H	-2.841	-1.668	-0.957	 H	1	UNK0	0.000	
29	   H	-3.385	-1.891	-3.308	 H	1	UNK0	0.000	
30	   H	-1.582	-2.237	-4.970	 H	1	UNK0	0.000	
31	   H	0.629	-2.287	0.405	 H	1	UNK0	0.000	
32	   H	-1.067	-2.402	0.740	 H	1	UNK0	0.000	
33	   H	3.348	2.036	-0.192	 H	1	UNK0	0.000	
34	   H	1.663	2.745	-0.132	 H	1	UNK0	0.000	
35	   H	1.283	2.276	-2.379	 H	1	UNK0	0.000	
36	   H	3.030	2.580	-2.473	 H	1	UNK0	0.000	
37	   H	2.959	0.582	-3.408	 H	1	UNK0	0.000	
38	   H	4.280	0.486	-1.512	 H	1	UNK0	0.000	
39	   H	3.618	-1.157	-2.060	 H	1	UNK0	0.000	
40	   H	2.547	-1.431	-0.073	 H	1	UNK0	0.000	
41	   H	3.631	-0.136	0.503	 H	1	UNK0	0.000	
42	   H	-4.412	-0.030	2.814	 H	1	UNK0	0.000	
43	   H	-0.874	3.941	2.065	 H	1	UNK0	0.000	
44	   H	-2.600	4.301	1.918	 H	1	UNK0	0.000	
45	   H	-1.866	3.907	3.531	 H	1	UNK0	0.000	
@<TRIPOS>BOND
1 1 2 1
2 2 3 2
3 2 7 1
4 3 4 1
5 4 5 2
6 4 8 1
7 5 6 1
8 6 7 2
9 8 9 1
10 9 10 1
11 9 13 1
12 10 11 2
13 10 24 1
14 11 12 1
15 11 20 1
16 12 13 2
17 13 14 1
18 14 15 1
19 14 19 1
20 15 16 1
21 16 17 1
22 17 18 1
23 18 19 1
24 20 21 1
25 20 26 1
26 21 22 2
27 21 23 1
28 23 24 1
29 24 25 2
30 3 27 1
31 5 28 1
32 6 29 1
33 7 30 1
34 8 31 1
35 8 32 1
36 15 33 1
37 15 34 1
38 16 35 1
39 16 36 1
40 17 37 1
41 18 38 1
42 18 39 1
43 19 40 1
44 19 41 1
45 23 42 1
46 26 43 1
47 26 44 1
48 26 45 1
@<TRIPOS>SUBSTRUCTURE
1	UNK0	1	GROUP	1 ****	UNK
