# created with PyMOL 2.3.2
@<TRIPOS>MOLECULE
1925
48 51 1                 
SMALL
USER_CHARGES
@<TRIPOS>ATOM
1	  Cl	-2.530	-2.360	4.677	Cl	1	UNK0	0.000	
2	   C	-0.842	-1.967	4.967	C.2	1	UNK0	0.000	
3	   C	0.033	-1.731	3.935	C.2	1	UNK0	0.000	
4	   C	1.337	-1.428	4.198	C.2	1	UNK0	0.000	
5	   C	1.781	-1.359	5.505	C.2	1	UNK0	0.000	
6	   C	0.890	-1.598	6.523	C.2	1	UNK0	0.000	
7	   C	-0.431	-1.906	6.285	C.2	1	UNK0	0.000	
8	   C	2.364	-1.141	3.132	C.3	1	UNK0	0.000	
9	   N	2.489	0.279	2.911	N.pl3	1	UNK0	0.000	
10	   N	3.337	0.962	3.742	N.2	1	UNK0	0.000	
11	   C	3.324	2.249	3.462	C.2	1	UNK0	0.000	
12	   C	2.442	2.393	2.421	C.2	1	UNK0	0.000	
13	   C	1.912	1.126	2.074	C.2	1	UNK0	0.000	
14	   N	1.034	0.993	1.028	N.pl3	1	UNK0	0.000	
15	   C	0.441	-0.069	0.337	C.2	1	UNK0	0.000	
16	   O	0.677	-1.250	0.576	O.2	1	UNK0	0.000	
17	   N	-0.510	0.155	-0.729	N.pl3	1	UNK0	0.000	
18	   C	-0.838	1.487	-1.070	C.3	1	UNK0	0.000	
19	   C	-1.812	1.668	-2.173	C.3	1	UNK0	0.000	
20	   N	-2.565	0.475	-2.502	N.3	1	UNK0	0.000	
21	   C	-1.699	-0.668	-2.708	C.3	1	UNK0	0.000	
22	   C	-1.071	-0.982	-1.384	C.3	1	UNK0	0.000	
23	   C	-3.463	0.730	-3.578	C.3	1	UNK0	0.000	
24	   C	-2.805	1.173	-4.841	C.3	1	UNK0	0.000	
25	   N	-1.855	2.241	-4.601	N.pl3	1	UNK0	0.000	
26	   C	-1.188	2.281	-3.361	C.2	1	UNK0	0.000	
27	   O	-0.077	2.830	-3.266	O.2	1	UNK0	0.000	
28	   H	-0.361	-1.799	2.947	 H	1	UNK0	0.000	
29	   H	2.835	-1.114	5.726	 H	1	UNK0	0.000	
30	   H	1.248	-1.542	7.561	 H	1	UNK0	0.000	
31	   H	-1.119	-2.092	7.121	 H	1	UNK0	0.000	
32	   H	2.275	-1.780	2.273	 H	1	UNK0	0.000	
33	   H	3.350	-1.508	3.603	 H	1	UNK0	0.000	
34	   H	3.888	3.035	3.946	 H	1	UNK0	0.000	
35	   H	2.224	3.351	1.974	 H	1	UNK0	0.000	
36	   H	0.645	1.949	0.605	 H	1	UNK0	0.000	
37	   H	0.071	2.078	-1.326	 H	1	UNK0	0.000	
38	   H	-1.242	1.969	-0.140	 H	1	UNK0	0.000	
39	   H	-2.591	2.414	-1.837	 H	1	UNK0	0.000	
40	   H	-0.940	-0.489	-3.485	 H	1	UNK0	0.000	
41	   H	-2.363	-1.526	-2.971	 H	1	UNK0	0.000	
42	   H	-0.350	-1.821	-1.503	 H	1	UNK0	0.000	
43	   H	-1.894	-1.364	-0.722	 H	1	UNK0	0.000	
44	   H	-4.021	-0.220	-3.815	 H	1	UNK0	0.000	
45	   H	-4.234	1.441	-3.236	 H	1	UNK0	0.000	
46	   H	-2.238	0.338	-5.301	 H	1	UNK0	0.000	
47	   H	-3.610	1.547	-5.524	 H	1	UNK0	0.000	
48	   H	-1.686	2.962	-5.362	 H	1	UNK0	0.000	
@<TRIPOS>BOND
1 1 2 1
2 2 3 2
3 2 7 1
4 3 4 1
5 4 5 2
6 4 8 1
7 5 6 1
8 6 7 2
9 8 9 1
10 9 10 1
11 9 13 1
12 10 11 2
13 11 12 1
14 12 13 2
15 13 14 1
16 14 15 1
17 15 16 2
18 15 17 1
19 17 18 1
20 17 22 1
21 18 19 1
22 19 20 1
23 19 26 1
24 20 21 1
25 20 23 1
26 21 22 1
27 23 24 1
28 24 25 1
29 25 26 1
30 26 27 2
31 3 28 1
32 5 29 1
33 6 30 1
34 7 31 1
35 8 32 1
36 8 33 1
37 11 34 1
38 12 35 1
39 14 36 1
40 18 37 1
41 18 38 1
42 19 39 1
43 21 40 1
44 21 41 1
45 22 42 1
46 22 43 1
47 23 44 1
48 23 45 1
49 24 46 1
50 24 47 1
51 25 48 1
@<TRIPOS>SUBSTRUCTURE
1	UNK0	1	GROUP	1 ****	UNK
