# created with PyMOL 2.3.2
@<TRIPOS>MOLECULE
1926
64 67 1                 
SMALL
USER_CHARGES
@<TRIPOS>ATOM
1	  Cl	-5.048	6.073	-1.516	Cl	1	UNK0	0.000	
2	   C	-3.747	5.082	-0.862	C.2	1	UNK0	0.000	
3	   C	-3.210	4.125	-1.672	C.2	1	UNK0	0.000	
4	   C	-2.199	3.329	-1.212	C.2	1	UNK0	0.000	
5	   C	-1.698	3.464	0.063	C.2	1	UNK0	0.000	
6	   C	-2.241	4.431	0.881	C.2	1	UNK0	0.000	
7	   C	-3.269	5.242	0.418	C.2	1	UNK0	0.000	
8	   C	-0.588	2.601	0.440	C.2	1	UNK0	0.000	
9	   C	-0.674	1.753	1.447	C.2	1	UNK0	0.000	
10	   C	0.352	0.795	1.988	C.3	1	UNK0	0.000	
11	   N	-0.401	-0.374	2.181	N.pl3	1	UNK0	0.000	
12	   C	-1.649	0.108	2.772	C.2	1	UNK0	0.000	
13	   O	-2.421	-0.534	3.542	O.2	1	UNK0	0.000	
14	   C	-1.830	1.476	2.300	C.2	1	UNK0	0.000	
15	   O	-2.772	2.276	2.551	O.2	1	UNK0	0.000	
16	   C	-0.215	-1.798	1.998	C.3	1	UNK0	0.000	
17	   C	-0.759	-2.360	0.719	C.3	1	UNK0	0.000	
18	   C	-0.535	-3.847	0.614	C.3	1	UNK0	0.000	
19	   N	-1.011	-4.463	-0.552	N.4	1	UNK0	0.000	
20	   C	-0.189	-5.613	-0.938	C.3	1	UNK0	0.000	
21	   C	0.950	-5.243	-1.823	C.3	1	UNK0	0.000	
22	   O	1.167	-3.856	-1.663	O.3	1	UNK0	0.000	
23	   C	0.117	-3.246	-2.373	C.3	1	UNK0	0.000	
24	   C	-1.164	-3.645	-1.717	C.3	1	UNK0	0.000	
25	   C	1.617	0.823	1.333	C.2	1	UNK0	0.000	
26	   C	2.706	1.364	1.986	C.2	1	UNK0	0.000	
27	   C	3.953	1.435	1.410	C.2	1	UNK0	0.000	
28	   C	4.163	0.956	0.128	C.2	1	UNK0	0.000	
29	   C	3.057	0.419	-0.508	C.2	1	UNK0	0.000	
30	   C	1.809	0.349	0.070	C.2	1	UNK0	0.000	
31	   N	5.432	1.009	-0.502	N.pl3	1	UNK0	0.000	
32	   C	5.588	0.497	-1.838	C.3	1	UNK0	0.000	
33	   C	6.561	1.568	0.182	C.3	1	UNK0	0.000	
34	   O	0.568	2.716	-0.315	O.2	1	UNK0	0.000	
35	   H	-3.563	3.971	-2.688	 H	1	UNK0	0.000	
36	   H	-1.778	2.576	-1.854	 H	1	UNK0	0.000	
37	   H	-1.869	4.594	1.860	 H	1	UNK0	0.000	
38	   H	-3.718	6.011	1.036	 H	1	UNK0	0.000	
39	   H	0.504	1.212	3.051	 H	1	UNK0	0.000	
40	   H	0.862	-2.090	2.161	 H	1	UNK0	0.000	
41	   H	-0.737	-2.368	2.826	 H	1	UNK0	0.000	
42	   H	-0.244	-1.910	-0.138	 H	1	UNK0	0.000	
43	   H	-1.820	-2.073	0.639	 H	1	UNK0	0.000	
44	   H	-1.037	-4.288	1.524	 H	1	UNK0	0.000	
45	   H	0.542	-4.081	0.753	 H	1	UNK0	0.000	
46	   H	-1.970	-4.889	-0.365	 H	1	UNK0	0.000	
47	   H	0.256	-5.977	0.034	 H	1	UNK0	0.000	
48	   H	-0.792	-6.447	-1.315	 H	1	UNK0	0.000	
49	   H	0.651	-5.370	-2.887	 H	1	UNK0	0.000	
50	   H	1.869	-5.823	-1.663	 H	1	UNK0	0.000	
51	   H	0.254	-2.157	-2.472	 H	1	UNK0	0.000	
52	   H	0.219	-3.651	-3.424	 H	1	UNK0	0.000	
53	   H	-1.856	-2.782	-1.552	 H	1	UNK0	0.000	
54	   H	-1.721	-4.284	-2.468	 H	1	UNK0	0.000	
55	   H	2.610	1.767	3.015	 H	1	UNK0	0.000	
56	   H	4.814	1.857	1.912	 H	1	UNK0	0.000	
57	   H	3.183	0.026	-1.530	 H	1	UNK0	0.000	
58	   H	1.019	-0.080	-0.544	 H	1	UNK0	0.000	
59	   H	6.534	0.918	-2.286	 H	1	UNK0	0.000	
60	   H	4.788	0.780	-2.531	 H	1	UNK0	0.000	
61	   H	5.717	-0.605	-1.860	 H	1	UNK0	0.000	
62	   H	6.682	1.162	1.209	 H	1	UNK0	0.000	
63	   H	6.360	2.664	0.320	 H	1	UNK0	0.000	
64	   H	7.482	1.482	-0.417	 H	1	UNK0	0.000	
@<TRIPOS>BOND
1 1 2 1
2 2 3 2
3 2 7 1
4 3 4 1
5 4 5 2
6 5 6 1
7 5 8 1
8 6 7 2
9 8 9 2
10 8 34 1
11 9 10 1
12 9 14 1
13 10 11 1
14 10 25 1
15 11 12 1
16 11 16 1
17 12 13 2
18 12 14 1
19 14 15 2
20 16 17 1
21 17 18 1
22 18 19 1
23 19 20 1
24 19 24 1
25 20 21 1
26 21 22 1
27 22 23 1
28 23 24 1
29 25 26 2
30 25 30 1
31 26 27 1
32 27 28 2
33 28 29 1
34 28 31 1
35 29 30 2
36 31 32 1
37 31 33 1
38 3 35 1
39 4 36 1
40 6 37 1
41 7 38 1
42 10 39 1
43 16 40 1
44 16 41 1
45 17 42 1
46 17 43 1
47 18 44 1
48 18 45 1
49 19 46 1
50 20 47 1
51 20 48 1
52 21 49 1
53 21 50 1
54 23 51 1
55 23 52 1
56 24 53 1
57 24 54 1
58 26 55 1
59 27 56 1
60 29 57 1
61 30 58 1
62 32 59 1
63 32 60 1
64 32 61 1
65 33 62 1
66 33 63 1
67 33 64 1
@<TRIPOS>SUBSTRUCTURE
1	UNK0	1	GROUP	1 ****	UNK
