# created with PyMOL 2.3.2
@<TRIPOS>MOLECULE
1927
55 58 1                 
SMALL
USER_CHARGES
@<TRIPOS>ATOM
1	  Cl	-0.700	-1.497	8.453	Cl	1	UNK0	0.000	
2	   C	-0.377	-0.592	6.951	C.2	1	UNK0	0.000	
3	   C	-1.274	0.334	6.476	C.2	1	UNK0	0.000	
4	   C	-1.015	1.046	5.305	C.2	1	UNK0	0.000	
5	   C	0.159	0.857	4.564	C.2	1	UNK0	0.000	
6	   C	1.032	-0.076	5.070	C.2	1	UNK0	0.000	
7	   C	0.788	-0.789	6.228	C.2	1	UNK0	0.000	
8	   C	0.344	1.678	3.381	C.3	1	UNK0	0.000	
9	   C	0.071	0.863	2.119	C.3	1	UNK0	0.000	
10	   C	-0.005	1.907	1.024	C.3	1	UNK0	0.000	
11	   N	1.272	2.491	0.810	N.pl3	1	UNK0	0.000	
12	   C	1.898	3.132	1.996	C.3	1	UNK0	0.000	
13	   C	1.620	2.427	3.280	C.3	1	UNK0	0.000	
14	   C	1.981	2.503	-0.384	C.2	1	UNK0	0.000	
15	   O	3.020	3.297	-0.424	O.2	1	UNK0	0.000	
16	   C	1.770	1.778	-1.646	C.3	1	UNK0	0.000	
17	   N	0.877	0.704	-1.643	N.pl3	1	UNK0	0.000	
18	   C	0.383	0.044	-2.810	C.2	1	UNK0	0.000	
19	   O	0.795	0.517	-3.902	O.2	1	UNK0	0.000	
20	   C	-0.512	-1.076	-2.710	C.2	1	UNK0	0.000	
21	   C	-1.101	-1.778	-3.621	C.2	1	UNK0	0.000	
22	   N	-0.955	-1.529	-5.021	N.pl3	1	UNK0	0.000	
23	   N	-1.592	-2.326	-5.995	N.pl3	1	UNK0	0.000	
24	   C	-2.407	-3.414	-5.623	C.2	1	UNK0	0.000	
25	   O	-2.958	-4.105	-6.529	O.2	1	UNK0	0.000	
26	   C	-2.582	-3.703	-4.213	C.2	1	UNK0	0.000	
27	   C	-1.964	-2.930	-3.257	C.2	1	UNK0	0.000	
28	   C	-2.156	-3.283	-1.952	C.2	1	UNK0	0.000	
29	   C	-2.939	-4.378	-1.568	C.2	1	UNK0	0.000	
30	   C	-3.532	-5.115	-2.556	C.2	1	UNK0	0.000	
31	   C	-3.367	-4.794	-3.901	C.2	1	UNK0	0.000	
32	   O	-0.705	2.652	3.372	O.3	1	UNK0	0.000	
33	   H	-2.191	0.493	7.044	 H	1	UNK0	0.000	
34	   H	-1.758	1.752	4.988	 H	1	UNK0	0.000	
35	   H	1.946	-0.229	4.506	 H	1	UNK0	0.000	
36	   H	1.512	-1.520	6.596	 H	1	UNK0	0.000	
37	   H	0.821	0.097	1.941	 H	1	UNK0	0.000	
38	   H	-0.896	0.366	2.231	 H	1	UNK0	0.000	
39	   H	-0.610	2.767	1.528	 H	1	UNK0	0.000	
40	   H	-0.618	1.586	0.213	 H	1	UNK0	0.000	
41	   H	2.995	3.282	1.817	 H	1	UNK0	0.000	
42	   H	1.458	4.150	2.034	 H	1	UNK0	0.000	
43	   H	2.529	1.831	3.540	 H	1	UNK0	0.000	
44	   H	1.633	3.236	4.085	 H	1	UNK0	0.000	
45	   H	1.475	2.590	-2.398	 H	1	UNK0	0.000	
46	   H	2.785	1.443	-2.075	 H	1	UNK0	0.000	
47	   H	0.560	0.256	-0.742	 H	1	UNK0	0.000	
48	   H	-0.722	-1.372	-1.653	 H	1	UNK0	0.000	
49	   H	-0.364	-0.736	-5.368	 H	1	UNK0	0.000	
50	   H	-1.461	-2.121	-7.013	 H	1	UNK0	0.000	
51	   H	-1.712	-2.739	-1.161	 H	1	UNK0	0.000	
52	   H	-3.055	-4.609	-0.513	 H	1	UNK0	0.000	
53	   H	-4.133	-5.972	-2.239	 H	1	UNK0	0.000	
54	   H	-3.861	-5.415	-4.637	 H	1	UNK0	0.000	
55	   H	-0.307	3.491	3.713	 H	1	UNK0	0.000	
@<TRIPOS>BOND
1 1 2 1
2 2 3 2
3 2 7 1
4 3 4 1
5 4 5 2
6 5 6 1
7 5 8 1
8 6 7 2
9 8 9 1
10 8 13 1
11 8 32 1
12 9 10 1
13 10 11 1
14 11 12 1
15 11 14 1
16 12 13 1
17 14 15 2
18 14 16 1
19 16 17 1
20 17 18 1
21 18 19 2
22 18 20 1
23 20 21 2
24 21 22 1
25 21 27 1
26 22 23 1
27 23 24 1
28 24 25 2
29 24 26 1
30 26 27 2
31 26 31 1
32 27 28 1
33 28 29 2
34 29 30 1
35 30 31 2
36 3 33 1
37 4 34 1
38 6 35 1
39 7 36 1
40 9 37 1
41 9 38 1
42 10 39 1
43 10 40 1
44 12 41 1
45 12 42 1
46 13 43 1
47 13 44 1
48 16 45 1
49 16 46 1
50 17 47 1
51 20 48 1
52 22 49 1
53 23 50 1
54 28 51 1
55 29 52 1
56 30 53 1
57 31 54 1
58 32 55 1
@<TRIPOS>SUBSTRUCTURE
1	UNK0	1	GROUP	1 ****	UNK
