# created with PyMOL 2.3.2
@<TRIPOS>MOLECULE
1929
51 54 1                 
SMALL
USER_CHARGES
@<TRIPOS>ATOM
1	  Cl	2.955	7.990	-4.217	Cl	1	UNK0	0.000	
2	   C	1.991	7.082	-3.080	C.2	1	UNK0	0.000	
3	   C	2.251	5.756	-2.821	C.2	1	UNK0	0.000	
4	   C	1.495	5.030	-1.926	C.2	1	UNK0	0.000	
5	   C	0.453	5.700	-1.292	C.2	1	UNK0	0.000	
6	   N	-0.125	4.789	-0.479	N.pl3	1	UNK0	0.000	
7	   C	0.510	3.612	-0.588	C.2	1	UNK0	0.000	
8	   C	1.542	3.724	-1.495	C.2	1	UNK0	0.000	
9	   C	2.447	2.630	-1.860	C.3	1	UNK0	0.000	
10	   C	2.196	1.370	-1.064	C.3	1	UNK0	0.000	
11	   N	0.784	1.285	-0.772	N.pl3	1	UNK0	0.000	
12	   C	0.253	2.319	0.093	C.3	1	UNK0	0.000	
13	   C	-0.082	0.283	-1.266	C.2	1	UNK0	0.000	
14	   O	-1.289	0.327	-0.933	O.2	1	UNK0	0.000	
15	   N	0.377	-0.774	-2.131	N.pl3	1	UNK0	0.000	
16	   C	-0.521	-1.756	-2.599	C.3	1	UNK0	0.000	
17	   C	-1.089	-2.662	-1.640	C.2	1	UNK0	0.000	
18	   O	-2.023	-3.476	-2.094	O.2	1	UNK0	0.000	
19	   N	-0.796	-2.819	-0.294	N.pl3	1	UNK0	0.000	
20	   C	0.232	-2.151	0.461	C.3	1	UNK0	0.000	
21	   C	0.737	-3.185	1.504	C.3	1	UNK0	0.000	
22	   N	0.656	-4.520	0.992	N.3	1	UNK0	0.000	
23	   C	-0.732	-4.940	0.911	C.3	1	UNK0	0.000	
24	   C	-1.621	-3.787	0.505	C.3	1	UNK0	0.000	
25	   C	1.366	-4.715	-0.241	C.3	1	UNK0	0.000	
26	   C	0.182	7.029	-1.543	C.2	1	UNK0	0.000	
27	   C	0.960	7.719	-2.444	C.2	1	UNK0	0.000	
28	   H	3.062	5.243	-3.318	 H	1	UNK0	0.000	
29	   H	-0.946	5.032	0.123	 H	1	UNK0	0.000	
30	   H	2.390	2.343	-2.931	 H	1	UNK0	0.000	
31	   H	3.502	2.987	-1.704	 H	1	UNK0	0.000	
32	   H	2.638	0.484	-1.510	 H	1	UNK0	0.000	
33	   H	2.708	1.530	-0.070	 H	1	UNK0	0.000	
34	   H	-0.810	2.165	0.337	 H	1	UNK0	0.000	
35	   H	0.824	2.315	1.061	 H	1	UNK0	0.000	
36	   H	1.386	-0.827	-2.424	 H	1	UNK0	0.000	
37	   H	-0.036	-2.397	-3.405	 H	1	UNK0	0.000	
38	   H	-1.367	-1.195	-3.116	 H	1	UNK0	0.000	
39	   H	1.087	-1.954	-0.181	 H	1	UNK0	0.000	
40	   H	-0.169	-1.281	0.993	 H	1	UNK0	0.000	
41	   H	1.767	-2.900	1.770	 H	1	UNK0	0.000	
42	   H	0.060	-3.096	2.367	 H	1	UNK0	0.000	
43	   H	-0.786	-5.798	0.228	 H	1	UNK0	0.000	
44	   H	-1.034	-5.229	1.942	 H	1	UNK0	0.000	
45	   H	-2.057	-3.257	1.357	 H	1	UNK0	0.000	
46	   H	-2.435	-4.133	-0.154	 H	1	UNK0	0.000	
47	   H	0.690	-4.961	-1.096	 H	1	UNK0	0.000	
48	   H	2.051	-5.592	-0.090	 H	1	UNK0	0.000	
49	   H	1.951	-3.820	-0.470	 H	1	UNK0	0.000	
50	   H	-0.651	7.520	-1.020	 H	1	UNK0	0.000	
51	   H	0.763	8.771	-2.658	 H	1	UNK0	0.000	
@<TRIPOS>BOND
1 1 2 1
2 2 3 2
3 2 27 1
4 3 4 1
5 4 5 2
6 4 8 1
7 5 6 1
8 5 26 1
9 6 7 1
10 7 8 2
11 7 12 1
12 8 9 1
13 9 10 1
14 10 11 1
15 11 12 1
16 11 13 1
17 13 14 2
18 13 15 1
19 15 16 1
20 16 17 1
21 17 18 2
22 17 19 1
23 19 20 1
24 19 24 1
25 20 21 1
26 21 22 1
27 22 23 1
28 22 25 1
29 23 24 1
30 26 27 2
31 3 28 1
32 6 29 1
33 9 30 1
34 9 31 1
35 10 32 1
36 10 33 1
37 12 34 1
38 12 35 1
39 15 36 1
40 16 37 1
41 16 38 1
42 20 39 1
43 20 40 1
44 21 41 1
45 21 42 1
46 23 43 1
47 23 44 1
48 24 45 1
49 24 46 1
50 25 47 1
51 25 48 1
52 25 49 1
53 26 50 1
54 27 51 1
@<TRIPOS>SUBSTRUCTURE
1	UNK0	1	GROUP	1 ****	UNK
