# created with PyMOL 2.3.2
@<TRIPOS>MOLECULE
1930
58 61 1                 
SMALL
USER_CHARGES
@<TRIPOS>ATOM
1	  Cl	7.135	0.658	4.102	Cl	1	UNK0	0.000	
2	   C	5.399	0.814	4.324	C.2	1	UNK0	0.000	
3	   C	4.579	1.410	3.400	C.2	1	UNK0	0.000	
4	   C	3.210	1.529	3.583	C.2	1	UNK0	0.000	
5	   N	2.188	2.045	2.880	N.2	1	UNK0	0.000	
6	   C	1.025	1.892	3.536	C.2	1	UNK0	0.000	
7	   N	1.355	1.252	4.695	N.pl3	1	UNK0	0.000	
8	   C	2.672	1.021	4.747	C.2	1	UNK0	0.000	
9	   C	3.460	0.414	5.702	C.2	1	UNK0	0.000	
10	   C	4.829	0.317	5.477	C.2	1	UNK0	0.000	
11	   C	0.350	0.899	5.696	C.3	1	UNK0	0.000	
12	   C	-0.341	2.308	3.133	C.3	1	UNK0	0.000	
13	   C	-1.086	1.270	2.359	C.3	1	UNK0	0.000	
14	   C	-0.420	0.882	1.092	C.2	1	UNK0	0.000	
15	   O	0.660	1.444	0.776	O.2	1	UNK0	0.000	
16	   N	-0.970	-0.095	0.242	N.pl3	1	UNK0	0.000	
17	   C	-0.332	-0.494	-1.013	C.3	1	UNK0	0.000	
18	   C	-1.293	-0.068	-2.105	C.3	1	UNK0	0.000	
19	   C	-2.663	-0.664	-1.881	C.3	1	UNK0	0.000	
20	   C	-2.646	-1.599	-0.666	C.3	1	UNK0	0.000	
21	   C	-2.212	-0.786	0.542	C.3	1	UNK0	0.000	
22	   O	-3.623	0.322	-1.546	O.3	1	UNK0	0.000	
23	   C	-3.211	-1.387	-3.074	C.3	1	UNK0	0.000	
24	   N	-0.790	-0.216	-3.425	N.pl3	1	UNK0	0.000	
25	   C	-0.749	0.834	-4.297	C.2	1	UNK0	0.000	
26	   C	-0.262	0.692	-5.579	C.2	1	UNK0	0.000	
27	   C	0.197	-0.537	-5.998	C.2	1	UNK0	0.000	
28	   O	0.656	-0.710	-7.178	O.2	1	UNK0	0.000	
29	   N	0.153	-1.566	-5.134	N.pl3	1	UNK0	0.000	
30	   C	-0.338	-1.377	-3.875	C.2	1	UNK0	0.000	
31	   O	-0.354	-2.371	-3.115	O.2	1	UNK0	0.000	
32	   C	-0.203	1.812	-6.551	C.3	1	UNK0	0.000	
33	   H	5.016	1.804	2.490	 H	1	UNK0	0.000	
34	   H	3.036	0.017	6.613	 H	1	UNK0	0.000	
35	   H	5.452	-0.156	6.218	 H	1	UNK0	0.000	
36	   H	-0.306	0.061	5.326	 H	1	UNK0	0.000	
37	   H	-0.341	1.750	5.888	 H	1	UNK0	0.000	
38	   H	0.871	0.570	6.626	 H	1	UNK0	0.000	
39	   H	-0.327	3.291	2.596	 H	1	UNK0	0.000	
40	   H	-0.909	2.498	4.068	 H	1	UNK0	0.000	
41	   H	-1.181	0.356	3.012	 H	1	UNK0	0.000	
42	   H	-2.112	1.656	2.181	 H	1	UNK0	0.000	
43	   H	-0.215	-1.594	-0.929	 H	1	UNK0	0.000	
44	   H	0.629	0.027	-1.169	 H	1	UNK0	0.000	
45	   H	-1.418	1.044	-1.920	 H	1	UNK0	0.000	
46	   H	-3.691	-1.917	-0.479	 H	1	UNK0	0.000	
47	   H	-2.044	-2.491	-0.832	 H	1	UNK0	0.000	
48	   H	-2.003	-1.483	1.380	 H	1	UNK0	0.000	
49	   H	-3.020	-0.097	0.829	 H	1	UNK0	0.000	
50	   H	-4.501	-0.129	-1.600	 H	1	UNK0	0.000	
51	   H	-4.326	-1.239	-3.176	 H	1	UNK0	0.000	
52	   H	-3.095	-2.504	-2.996	 H	1	UNK0	0.000	
53	   H	-2.773	-1.045	-4.019	 H	1	UNK0	0.000	
54	   H	-1.116	1.815	-3.961	 H	1	UNK0	0.000	
55	   H	0.498	-2.493	-5.445	 H	1	UNK0	0.000	
56	   H	0.801	2.287	-6.416	 H	1	UNK0	0.000	
57	   H	-0.232	1.440	-7.596	 H	1	UNK0	0.000	
58	   H	-1.023	2.534	-6.357	 H	1	UNK0	0.000	
@<TRIPOS>BOND
1 1 2 1
2 2 3 2
3 2 10 1
4 3 4 1
5 4 5 1
6 4 8 2
7 5 6 2
8 6 7 1
9 6 12 1
10 7 8 1
11 7 11 1
12 8 9 1
13 9 10 2
14 12 13 1
15 13 14 1
16 14 15 2
17 14 16 1
18 16 17 1
19 16 21 1
20 17 18 1
21 18 19 1
22 18 24 1
23 19 20 1
24 19 22 1
25 19 23 1
26 20 21 1
27 24 25 1
28 24 30 1
29 25 26 2
30 26 27 1
31 26 32 1
32 27 28 2
33 27 29 1
34 29 30 1
35 30 31 2
36 3 33 1
37 9 34 1
38 10 35 1
39 11 36 1
40 11 37 1
41 11 38 1
42 12 39 1
43 12 40 1
44 13 41 1
45 13 42 1
46 17 43 1
47 17 44 1
48 18 45 1
49 20 46 1
50 20 47 1
51 21 48 1
52 21 49 1
53 22 50 1
54 23 51 1
55 23 52 1
56 23 53 1
57 25 54 1
58 29 55 1
59 32 56 1
60 32 57 1
61 32 58 1
@<TRIPOS>SUBSTRUCTURE
1	UNK0	1	GROUP	1 ****	UNK
