# created with PyMOL 2.3.2
@<TRIPOS>MOLECULE
1931
53 56 1                 
SMALL
USER_CHARGES
@<TRIPOS>ATOM
1	   S	1.896	-0.391	-0.134	S.O2	1	UNK0	0.000	
2	   O	3.139	-0.094	-0.876	O.2	1	UNK0	0.000	
3	   O	2.201	-1.191	1.120	O.2	1	UNK0	0.000	
4	   C	0.982	1.076	0.343	C.3	1	UNK0	0.000	
5	   N	-0.154	0.715	1.156	N.pl3	1	UNK0	0.000	
6	   C	-1.437	1.219	0.855	C.2	1	UNK0	0.000	
7	   O	-1.592	1.982	-0.133	O.2	1	UNK0	0.000	
8	   C	-2.645	0.916	1.630	C.2	1	UNK0	0.000	
9	   C	-3.457	-0.154	1.312	C.2	1	UNK0	0.000	
10	   C	-4.595	-0.434	2.063	C.2	1	UNK0	0.000	
11	   C	-4.951	0.341	3.143	C.2	1	UNK0	0.000	
12	   C	-4.135	1.404	3.447	C.2	1	UNK0	0.000	
13	   C	-3.009	1.691	2.715	C.2	1	UNK0	0.000	
14	  Cl	-3.059	-1.179	-0.062	Cl	1	UNK0	0.000	
15	   C	1.880	2.022	1.071	C.2	1	UNK0	0.000	
16	   O	1.640	2.146	2.321	O.2	1	UNK0	0.000	
17	   N	2.925	2.760	0.507	N.pl3	1	UNK0	0.000	
18	   C	3.751	3.593	1.405	C.3	1	UNK0	0.000	
19	   C	4.761	4.293	0.524	C.3	1	UNK0	0.000	
20	   O	4.109	5.081	-0.417	O.3	1	UNK0	0.000	
21	   C	3.305	4.337	-1.241	C.3	1	UNK0	0.000	
22	   C	3.281	2.843	-0.875	C.3	1	UNK0	0.000	
23	   C	0.895	-1.431	-1.123	C.2	1	UNK0	0.000	
24	   C	0.144	-2.464	-0.599	C.2	1	UNK0	0.000	
25	   C	-0.637	-3.286	-1.383	C.2	1	UNK0	0.000	
26	   C	-0.718	-3.127	-2.753	C.2	1	UNK0	0.000	
27	   C	0.034	-2.091	-3.282	C.2	1	UNK0	0.000	
28	   C	0.816	-1.268	-2.499	C.2	1	UNK0	0.000	
29	   O	-1.503	-3.952	-3.546	O.3	1	UNK0	0.000	
30	   C	-2.515	-4.742	-2.905	C.3	1	UNK0	0.000	
31	   C	-1.857	-5.389	-1.704	C.3	1	UNK0	0.000	
32	   O	-1.404	-4.342	-0.855	O.3	1	UNK0	0.000	
33	   H	0.632	1.622	-0.536	 H	1	UNK0	0.000	
34	   H	-0.026	0.088	1.959	 H	1	UNK0	0.000	
35	   H	-5.188	-1.271	1.778	 H	1	UNK0	0.000	
36	   H	-5.852	0.115	3.732	 H	1	UNK0	0.000	
37	   H	-4.404	2.019	4.293	 H	1	UNK0	0.000	
38	   H	-2.360	2.526	2.949	 H	1	UNK0	0.000	
39	   H	3.158	4.345	1.934	 H	1	UNK0	0.000	
40	   H	4.321	2.937	2.103	 H	1	UNK0	0.000	
41	   H	5.432	4.954	1.132	 H	1	UNK0	0.000	
42	   H	5.461	3.578	0.036	 H	1	UNK0	0.000	
43	   H	2.249	4.680	-1.065	 H	1	UNK0	0.000	
44	   H	3.588	4.383	-2.308	 H	1	UNK0	0.000	
45	   H	2.543	2.414	-1.580	 H	1	UNK0	0.000	
46	   H	4.253	2.382	-1.068	 H	1	UNK0	0.000	
47	   H	0.182	-2.620	0.480	 H	1	UNK0	0.000	
48	   H	-0.030	-1.962	-4.373	 H	1	UNK0	0.000	
49	   H	1.397	-0.462	-2.942	 H	1	UNK0	0.000	
50	   H	-3.011	-5.432	-3.576	 H	1	UNK0	0.000	
51	   H	-3.280	-4.031	-2.478	 H	1	UNK0	0.000	
52	   H	-0.998	-5.999	-2.031	 H	1	UNK0	0.000	
53	   H	-2.608	-5.986	-1.151	 H	1	UNK0	0.000	
@<TRIPOS>BOND
1 1 2 2
2 1 3 2
3 1 4 1
4 1 23 1
5 4 5 1
6 4 15 1
7 5 6 1
8 6 7 2
9 6 8 1
10 8 9 2
11 8 13 1
12 9 10 1
13 9 14 1
14 10 11 2
15 11 12 1
16 12 13 2
17 15 16 2
18 15 17 1
19 17 18 1
20 17 22 1
21 18 19 1
22 19 20 1
23 20 21 1
24 21 22 1
25 23 24 2
26 23 28 1
27 24 25 1
28 25 26 2
29 25 32 1
30 26 27 1
31 26 29 1
32 27 28 2
33 29 30 1
34 30 31 1
35 31 32 1
36 4 33 1
37 5 34 1
38 10 35 1
39 11 36 1
40 12 37 1
41 13 38 1
42 18 39 1
43 18 40 1
44 19 41 1
45 19 42 1
46 21 43 1
47 21 44 1
48 22 45 1
49 22 46 1
50 24 47 1
51 27 48 1
52 28 49 1
53 30 50 1
54 30 51 1
55 31 52 1
56 31 53 1
@<TRIPOS>SUBSTRUCTURE
1	UNK0	1	GROUP	1 ****	UNK
