# created with PyMOL 2.3.2
@<TRIPOS>MOLECULE
1938
49 52 1                 
SMALL
USER_CHARGES
@<TRIPOS>ATOM
1	  Cl	-2.916	-2.153	-5.033	Cl	1	UNK0	0.000	
2	   C	-3.229	-2.224	-3.304	C.2	1	UNK0	0.000	
3	   C	-2.860	-1.147	-2.494	C.2	1	UNK0	0.000	
4	   C	-3.087	-1.173	-1.164	C.2	1	UNK0	0.000	
5	   C	-3.706	-2.329	-0.657	C.2	1	UNK0	0.000	
6	   C	-4.070	-3.388	-1.442	C.2	1	UNK0	0.000	
7	   C	-3.827	-3.331	-2.780	C.2	1	UNK0	0.000	
8	   C	-2.729	-0.105	-0.267	C.2	1	UNK0	0.000	
9	   O	-3.074	-0.332	0.999	O.2	1	UNK0	0.000	
10	   N	-2.092	1.112	-0.480	N.pl3	1	UNK0	0.000	
11	   C	-1.891	1.987	0.699	C.3	1	UNK0	0.000	
12	   C	-0.388	2.104	0.851	C.3	1	UNK0	0.000	
13	   N	0.083	2.804	-0.356	N.pl3	1	UNK0	0.000	
14	   C	-0.831	2.976	-1.471	C.3	1	UNK0	0.000	
15	   C	-1.594	1.636	-1.705	C.3	1	UNK0	0.000	
16	   C	1.423	3.265	-0.337	C.2	1	UNK0	0.000	
17	   O	1.970	3.513	-1.450	O.2	1	UNK0	0.000	
18	   C	2.196	3.464	0.924	C.3	1	UNK0	0.000	
19	   N	1.335	3.399	2.082	N.pl3	1	UNK0	0.000	
20	   C	-0.007	2.931	2.006	C.2	1	UNK0	0.000	
21	   O	-0.881	3.187	2.874	O.2	1	UNK0	0.000	
22	   C	3.346	2.487	0.993	C.3	1	UNK0	0.000	
23	   C	2.930	1.083	0.967	C.2	1	UNK0	0.000	
24	   C	2.802	0.411	-0.231	C.2	1	UNK0	0.000	
25	   C	2.414	-0.912	-0.316	C.2	1	UNK0	0.000	
26	   C	2.146	-1.575	0.871	C.2	1	UNK0	0.000	
27	   C	2.276	-0.898	2.067	C.2	1	UNK0	0.000	
28	   C	2.663	0.421	2.144	C.2	1	UNK0	0.000	
29	   O	1.753	-2.907	0.812	O.3	1	UNK0	0.000	
30	   H	-2.398	-0.314	-2.993	 H	1	UNK0	0.000	
31	   H	-3.917	-2.418	0.397	 H	1	UNK0	0.000	
32	   H	-4.543	-4.268	-1.046	 H	1	UNK0	0.000	
33	   H	-4.100	-4.146	-3.437	 H	1	UNK0	0.000	
34	   H	-2.255	1.449	1.589	 H	1	UNK0	0.000	
35	   H	-2.391	2.947	0.573	 H	1	UNK0	0.000	
36	   H	0.034	1.099	0.856	 H	1	UNK0	0.000	
37	   H	-1.597	3.753	-1.301	 H	1	UNK0	0.000	
38	   H	-0.248	3.243	-2.364	 H	1	UNK0	0.000	
39	   H	-2.403	1.866	-2.428	 H	1	UNK0	0.000	
40	   H	-0.796	1.014	-2.189	 H	1	UNK0	0.000	
41	   H	2.640	4.479	0.858	 H	1	UNK0	0.000	
42	   H	1.684	3.699	3.017	 H	1	UNK0	0.000	
43	   H	3.946	2.671	0.053	 H	1	UNK0	0.000	
44	   H	4.040	2.744	1.819	 H	1	UNK0	0.000	
45	   H	3.006	0.903	-1.192	 H	1	UNK0	0.000	
46	   H	2.310	-1.446	-1.233	 H	1	UNK0	0.000	
47	   H	2.064	-1.422	2.997	 H	1	UNK0	0.000	
48	   H	2.753	0.918	3.122	 H	1	UNK0	0.000	
49	   H	0.807	-3.218	0.741	 H	1	UNK0	0.000	
@<TRIPOS>BOND
1 1 2 1
2 2 3 2
3 2 7 1
4 3 4 1
5 4 5 2
6 4 8 1
7 5 6 1
8 6 7 2
9 8 9 2
10 8 10 1
11 10 11 1
12 10 15 1
13 11 12 1
14 12 13 1
15 12 20 1
16 13 14 1
17 13 16 1
18 14 15 1
19 16 17 2
20 16 18 1
21 18 19 1
22 18 22 1
23 19 20 1
24 20 21 2
25 22 23 1
26 23 24 2
27 23 28 1
28 24 25 1
29 25 26 2
30 26 27 1
31 26 29 1
32 27 28 2
33 3 30 1
34 5 31 1
35 6 32 1
36 7 33 1
37 11 34 1
38 11 35 1
39 12 36 1
40 14 37 1
41 14 38 1
42 15 39 1
43 15 40 1
44 18 41 1
45 19 42 1
46 22 43 1
47 22 44 1
48 24 45 1
49 25 46 1
50 27 47 1
51 28 48 1
52 29 49 1
@<TRIPOS>SUBSTRUCTURE
1	UNK0	1	GROUP	1 ****	UNK
