# created with PyMOL 2.3.2
@<TRIPOS>MOLECULE
1940
50 53 1                 
SMALL
USER_CHARGES
@<TRIPOS>ATOM
1	  Cl	-4.315	-3.876	5.178	Cl	1	UNK0	0.000	
2	   C	-2.945	-3.128	4.396	C.2	1	UNK0	0.000	
3	   C	-1.927	-3.861	3.825	C.2	1	UNK0	0.000	
4	   C	-0.871	-3.204	3.224	C.2	1	UNK0	0.000	
5	   C	-0.784	-1.836	3.166	C.2	1	UNK0	0.000	
6	   C	-1.823	-1.110	3.749	C.2	1	UNK0	0.000	
7	   C	-2.879	-1.759	4.350	C.2	1	UNK0	0.000	
8	   C	0.361	-1.140	2.528	C.3	1	UNK0	0.000	
9	   N	0.737	-1.807	1.275	N.pl3	1	UNK0	0.000	
10	   C	-0.366	-1.625	0.406	C.2	1	UNK0	0.000	
11	   O	-0.719	-2.387	-0.525	O.2	1	UNK0	0.000	
12	   C	-1.023	-0.366	0.805	C.2	1	UNK0	0.000	
13	   O	-2.037	0.165	0.298	O.2	1	UNK0	0.000	
14	   C	-0.231	0.123	1.925	C.2	1	UNK0	0.000	
15	   C	-0.072	1.346	2.295	C.2	1	UNK0	0.000	
16	   O	0.733	1.669	3.386	O.2	1	UNK0	0.000	
17	   C	-0.734	2.434	1.582	C.2	1	UNK0	0.000	
18	   O	-1.924	2.558	1.112	O.3	1	UNK0	0.000	
19	   C	-2.083	3.718	0.542	C.2	1	UNK0	0.000	
20	   C	-0.915	4.431	0.634	C.2	1	UNK0	0.000	
21	   C	-0.040	3.618	1.299	C.2	1	UNK0	0.000	
22	   C	1.986	-2.509	1.016	C.3	1	UNK0	0.000	
23	   C	3.067	-1.649	0.438	C.3	1	UNK0	0.000	
24	   N	2.792	-1.059	-0.827	N.4	1	UNK0	0.000	
25	   C	2.401	0.314	-0.826	C.3	1	UNK0	0.000	
26	   C	3.474	1.252	-0.322	C.3	1	UNK0	0.000	
27	   O	4.641	1.115	-1.066	O.3	1	UNK0	0.000	
28	   C	5.046	-0.212	-1.166	C.3	1	UNK0	0.000	
29	   C	3.975	-1.121	-1.710	C.3	1	UNK0	0.000	
30	   H	-2.011	-4.935	3.879	 H	1	UNK0	0.000	
31	   H	-0.094	-3.814	2.784	 H	1	UNK0	0.000	
32	   H	-1.750	-0.014	3.703	 H	1	UNK0	0.000	
33	   H	-3.685	-1.187	4.801	 H	1	UNK0	0.000	
34	   H	1.201	-0.938	3.186	 H	1	UNK0	0.000	
35	   H	-2.976	4.121	0.050	 H	1	UNK0	0.000	
36	   H	-0.691	5.441	0.265	 H	1	UNK0	0.000	
37	   H	0.980	3.852	1.554	 H	1	UNK0	0.000	
38	   H	1.805	-3.397	0.363	 H	1	UNK0	0.000	
39	   H	2.319	-2.891	2.021	 H	1	UNK0	0.000	
40	   H	3.430	-0.923	1.199	 H	1	UNK0	0.000	
41	   H	3.949	-2.335	0.281	 H	1	UNK0	0.000	
42	   H	2.029	-1.605	-1.284	 H	1	UNK0	0.000	
43	   H	2.275	0.592	-1.918	 H	1	UNK0	0.000	
44	   H	1.447	0.544	-0.363	 H	1	UNK0	0.000	
45	   H	3.089	2.287	-0.565	 H	1	UNK0	0.000	
46	   H	3.622	1.224	0.762	 H	1	UNK0	0.000	
47	   H	5.392	-0.615	-0.188	 H	1	UNK0	0.000	
48	   H	5.902	-0.232	-1.872	 H	1	UNK0	0.000	
49	   H	3.665	-0.734	-2.695	 H	1	UNK0	0.000	
50	   H	4.405	-2.138	-1.742	 H	1	UNK0	0.000	
@<TRIPOS>BOND
1 1 2 1
2 2 3 2
3 2 7 1
4 3 4 1
5 4 5 2
6 5 6 1
7 5 8 1
8 6 7 2
9 8 9 1
10 8 14 1
11 9 10 1
12 9 22 1
13 10 11 2
14 10 12 1
15 12 13 2
16 12 14 1
17 14 15 2
18 15 16 1
19 15 17 1
20 17 18 1
21 17 21 2
22 18 19 1
23 19 20 2
24 20 21 1
25 22 23 1
26 23 24 1
27 24 25 1
28 24 29 1
29 25 26 1
30 26 27 1
31 27 28 1
32 28 29 1
33 3 30 1
34 4 31 1
35 6 32 1
36 7 33 1
37 8 34 1
38 19 35 1
39 20 36 1
40 21 37 1
41 22 38 1
42 22 39 1
43 23 40 1
44 23 41 1
45 24 42 1
46 25 43 1
47 25 44 1
48 26 45 1
49 26 46 1
50 28 47 1
51 28 48 1
52 29 49 1
53 29 50 1
@<TRIPOS>SUBSTRUCTURE
1	UNK0	1	GROUP	1 ****	UNK
