# created with PyMOL 2.3.2
@<TRIPOS>MOLECULE
1942
55 59 1                 
SMALL
USER_CHARGES
@<TRIPOS>ATOM
1	  Cl	7.499	3.685	1.181	Cl	1	UNK0	0.000	
2	   C	5.894	2.995	1.115	C.2	1	UNK0	0.000	
3	   C	4.813	3.642	1.667	C.2	1	UNK0	0.000	
4	   C	3.551	3.044	1.586	C.2	1	UNK0	0.000	
5	   C	3.359	1.829	0.971	C.2	1	UNK0	0.000	
6	   C	4.491	1.226	0.432	C.2	1	UNK0	0.000	
7	   C	5.733	1.792	0.499	C.2	1	UNK0	0.000	
8	   N	2.079	1.205	0.895	N.pl3	1	UNK0	0.000	
9	   C	1.460	0.396	1.918	C.2	1	UNK0	0.000	
10	   O	1.812	0.394	3.116	O.2	1	UNK0	0.000	
11	   C	0.406	-0.374	1.299	C.3	1	UNK0	0.000	
12	   C	-1.013	-0.043	1.592	C.3	1	UNK0	0.000	
13	   N	-1.653	-0.625	0.417	N.3	1	UNK0	0.000	
14	   C	-0.980	0.043	-0.648	C.3	1	UNK0	0.000	
15	   C	0.459	-0.039	-0.211	C.3	1	UNK0	0.000	
16	   C	1.177	1.258	-0.230	C.2	1	UNK0	0.000	
17	   O	1.073	2.220	-1.013	O.2	1	UNK0	0.000	
18	   C	-1.134	-0.664	-1.948	C.2	1	UNK0	0.000	
19	   C	-0.969	-2.025	-1.976	C.2	1	UNK0	0.000	
20	   C	-1.130	-2.666	-3.206	C.2	1	UNK0	0.000	
21	   C	-1.440	-1.961	-4.339	C.2	1	UNK0	0.000	
22	   C	-1.606	-0.596	-4.317	C.2	1	UNK0	0.000	
23	   C	-1.444	0.046	-3.082	C.2	1	UNK0	0.000	
24	   C	-3.072	-0.476	0.417	C.3	1	UNK0	0.000	
25	   C	-3.731	-0.996	1.639	C.3	1	UNK0	0.000	
26	   N	-2.861	-1.200	2.757	N.pl3	1	UNK0	0.000	
27	   C	-1.511	-0.792	2.797	C.2	1	UNK0	0.000	
28	   O	-0.768	-1.024	3.752	O.2	1	UNK0	0.000	
29	   C	-1.312	1.383	1.774	C.3	1	UNK0	0.000	
30	   C	-0.597	2.007	2.906	C.2	1	UNK0	0.000	
31	   O	0.244	2.930	2.766	O.co2	1	UNK0	0.000	
32	   O	-0.813	1.599	4.237	O.3	1	UNK0	0.000	
33	   C	-0.097	2.236	5.299	C.3	1	UNK0	0.000	
34	   H	4.933	4.601	2.158	 H	1	UNK0	0.000	
35	   H	2.742	3.594	2.032	 H	1	UNK0	0.000	
36	   H	4.378	0.266	-0.061	 H	1	UNK0	0.000	
37	   H	6.567	1.241	0.045	 H	1	UNK0	0.000	
38	   H	0.604	-1.482	1.415	 H	1	UNK0	0.000	
39	   H	-1.280	1.101	-0.805	 H	1	UNK0	0.000	
40	   H	1.054	-0.787	-0.758	 H	1	UNK0	0.000	
41	   H	-0.724	-2.611	-1.102	 H	1	UNK0	0.000	
42	   H	-0.995	-3.745	-3.198	 H	1	UNK0	0.000	
43	   H	-1.559	-2.486	-5.278	 H	1	UNK0	0.000	
44	   H	-1.851	-0.029	-5.214	 H	1	UNK0	0.000	
45	   H	-1.576	1.117	-3.082	 H	1	UNK0	0.000	
46	   H	-3.419	0.563	0.206	 H	1	UNK0	0.000	
47	   H	-3.455	-1.074	-0.457	 H	1	UNK0	0.000	
48	   H	-4.538	-0.292	1.996	 H	1	UNK0	0.000	
49	   H	-4.286	-1.966	1.482	 H	1	UNK0	0.000	
50	   H	-3.259	-1.684	3.595	 H	1	UNK0	0.000	
51	   H	-2.431	1.539	1.898	 H	1	UNK0	0.000	
52	   H	-1.077	2.028	0.883	 H	1	UNK0	0.000	
53	   H	-0.876	2.574	6.029	 H	1	UNK0	0.000	
54	   H	0.414	3.160	4.943	 H	1	UNK0	0.000	
55	   H	0.646	1.549	5.744	 H	1	UNK0	0.000	
@<TRIPOS>BOND
1 1 2 1
2 2 3 2
3 2 7 1
4 3 4 1
5 4 5 2
6 5 6 1
7 5 8 1
8 6 7 2
9 8 9 1
10 8 16 1
11 9 10 2
12 9 11 1
13 11 12 1
14 11 15 1
15 12 13 1
16 12 27 1
17 12 29 1
18 13 14 1
19 13 24 1
20 14 15 1
21 14 18 1
22 15 16 1
23 16 17 2
24 18 19 2
25 18 23 1
26 19 20 1
27 20 21 2
28 21 22 1
29 22 23 2
30 24 25 1
31 25 26 1
32 26 27 1
33 27 28 2
34 29 30 1
35 30 31 2
36 30 32 1
37 32 33 1
38 3 34 1
39 4 35 1
40 6 36 1
41 7 37 1
42 11 38 1
43 14 39 1
44 15 40 1
45 19 41 1
46 20 42 1
47 21 43 1
48 22 44 1
49 23 45 1
50 24 46 1
51 24 47 1
52 25 48 1
53 25 49 1
54 26 50 1
55 29 51 1
56 29 52 1
57 33 53 1
58 33 54 1
59 33 55 1
@<TRIPOS>SUBSTRUCTURE
1	UNK0	1	GROUP	1 ****	UNK
