# created with PyMOL 2.3.2
@<TRIPOS>MOLECULE
1944
43 46 1                 
SMALL
USER_CHARGES
@<TRIPOS>ATOM
1	  Cl	0.610	0.542	-3.704	Cl	1	UNK0	0.000	
2	   C	-0.353	-0.440	-2.616	C.2	1	UNK0	0.000	
3	   C	-1.678	-0.128	-2.402	C.2	1	UNK0	0.000	
4	   C	-2.466	-0.878	-1.564	C.2	1	UNK0	0.000	
5	   C	-1.857	-1.960	-0.951	C.2	1	UNK0	0.000	
6	   C	-0.545	-2.282	-1.153	C.2	1	UNK0	0.000	
7	   C	0.237	-1.511	-2.003	C.2	1	UNK0	0.000	
8	   C	1.650	-1.888	-2.172	C.3	1	UNK0	0.000	
9	   C	2.648	-1.102	-1.460	C.2	1	UNK0	0.000	
10	   O	3.840	-1.203	-1.974	O.2	1	UNK0	0.000	
11	   N	2.558	-0.278	-0.348	N.pl3	1	UNK0	0.000	
12	   C	1.447	0.122	0.448	C.3	1	UNK0	0.000	
13	   C	1.603	-0.481	1.823	C.3	1	UNK0	0.000	
14	   N	2.970	-0.732	2.205	N.pl3	1	UNK0	0.000	
15	   C	4.016	-0.380	1.470	C.2	1	UNK0	0.000	
16	   N	5.130	-0.770	2.105	N.2	1	UNK0	0.000	
17	   C	4.786	-1.380	3.265	C.2	1	UNK0	0.000	
18	   C	3.414	-1.353	3.324	C.2	1	UNK0	0.000	
19	   C	2.615	-1.884	4.416	C.2	1	UNK0	0.000	
20	   O	3.145	-2.495	5.354	O.2	1	UNK0	0.000	
21	   N	1.201	-1.717	4.439	N.pl3	1	UNK0	0.000	
22	   C	3.821	0.319	0.188	C.3	1	UNK0	0.000	
23	   O	-2.691	-2.709	-0.098	O.3	1	UNK0	0.000	
24	   C	-3.612	-2.029	0.753	C.3	1	UNK0	0.000	
25	   C	-4.321	-0.898	0.046	C.3	1	UNK0	0.000	
26	   O	-3.796	-0.668	-1.270	O.3	1	UNK0	0.000	
27	   H	-2.170	0.731	-2.891	 H	1	UNK0	0.000	
28	   H	-0.110	-3.147	-0.649	 H	1	UNK0	0.000	
29	   H	1.838	-1.807	-3.275	 H	1	UNK0	0.000	
30	   H	1.775	-2.971	-1.954	 H	1	UNK0	0.000	
31	   H	1.565	1.250	0.617	 H	1	UNK0	0.000	
32	   H	0.455	0.031	0.043	 H	1	UNK0	0.000	
33	   H	1.039	-1.450	1.792	 H	1	UNK0	0.000	
34	   H	1.062	0.117	2.593	 H	1	UNK0	0.000	
35	   H	5.499	-1.789	3.970	 H	1	UNK0	0.000	
36	   H	0.855	-0.895	4.984	 H	1	UNK0	0.000	
37	   H	0.545	-2.355	3.965	 H	1	UNK0	0.000	
38	   H	4.626	0.196	-0.525	 H	1	UNK0	0.000	
39	   H	3.641	1.406	0.360	 H	1	UNK0	0.000	
40	   H	-4.339	-2.755	1.147	 H	1	UNK0	0.000	
41	   H	-3.049	-1.630	1.626	 H	1	UNK0	0.000	
42	   H	-5.393	-1.176	-0.050	 H	1	UNK0	0.000	
43	   H	-4.240	0.025	0.678	 H	1	UNK0	0.000	
@<TRIPOS>BOND
1 1 2 1
2 2 3 2
3 2 7 1
4 3 4 1
5 4 5 2
6 4 26 1
7 5 6 1
8 5 23 1
9 6 7 2
10 7 8 1
11 8 9 1
12 9 10 2
13 9 11 1
14 11 12 1
15 11 22 1
16 12 13 1
17 13 14 1
18 14 15 1
19 14 18 1
20 15 16 2
21 15 22 1
22 16 17 1
23 17 18 2
24 18 19 1
25 19 20 2
26 19 21 1
27 23 24 1
28 24 25 1
29 25 26 1
30 3 27 1
31 6 28 1
32 8 29 1
33 8 30 1
34 12 31 1
35 12 32 1
36 13 33 1
37 13 34 1
38 17 35 1
39 21 36 1
40 21 37 1
41 22 38 1
42 22 39 1
43 24 40 1
44 24 41 1
45 25 42 1
46 25 43 1
@<TRIPOS>SUBSTRUCTURE
1	UNK0	1	GROUP	1 ****	UNK
