# created with PyMOL 2.3.2
@<TRIPOS>MOLECULE
1945
40 43 1                 
SMALL
USER_CHARGES
@<TRIPOS>ATOM
1	  Cl	-3.977	4.382	0.108	Cl	1	UNK0	0.000	
2	   C	-3.720	2.657	0.279	C.2	1	UNK0	0.000	
3	   C	-2.575	2.045	-0.177	C.2	1	UNK0	0.000	
4	   C	-2.383	0.668	-0.035	C.2	1	UNK0	0.000	
5	   C	-3.380	-0.073	0.582	C.2	1	UNK0	0.000	
6	   C	-4.529	0.524	1.043	C.2	1	UNK0	0.000	
7	   C	-4.706	1.876	0.896	C.2	1	UNK0	0.000	
8	   C	-3.221	-1.528	0.755	C.2	1	UNK0	0.000	
9	   N	-3.974	-2.433	1.281	N.2	1	UNK0	0.000	
10	   C	-3.386	-3.743	1.219	C.3	1	UNK0	0.000	
11	   C	-2.071	-3.524	0.537	C.3	1	UNK0	0.000	
12	   N	-2.027	-2.111	0.271	N.pl3	1	UNK0	0.000	
13	   C	-1.023	-1.324	-0.357	C.2	1	UNK0	0.000	
14	   O	0.051	-1.825	-0.795	O.2	1	UNK0	0.000	
15	   N	-1.176	0.097	-0.527	N.pl3	1	UNK0	0.000	
16	   C	-0.134	0.883	-1.173	C.3	1	UNK0	0.000	
17	   C	0.846	1.387	-0.184	C.2	1	UNK0	0.000	
18	   O	0.673	1.093	1.024	O.2	1	UNK0	0.000	
19	   N	1.964	2.180	-0.537	N.pl3	1	UNK0	0.000	
20	   C	2.905	2.658	0.447	C.3	1	UNK0	0.000	
21	   C	3.982	3.471	-0.221	C.3	1	UNK0	0.000	
22	   C	4.840	2.837	-1.258	C.3	1	UNK0	0.000	
23	   C	5.403	3.102	0.086	C.3	1	UNK0	0.000	
24	   H	-1.792	2.628	-0.660	 H	1	UNK0	0.000	
25	   H	-5.291	-0.057	1.516	 H	1	UNK0	0.000	
26	   H	-5.598	2.408	1.242	 H	1	UNK0	0.000	
27	   H	-4.024	-4.475	0.680	 H	1	UNK0	0.000	
28	   H	-3.168	-4.124	2.255	 H	1	UNK0	0.000	
29	   H	-1.206	-3.858	1.166	 H	1	UNK0	0.000	
30	   H	-2.095	-4.102	-0.417	 H	1	UNK0	0.000	
31	   H	-0.512	1.638	-1.867	 H	1	UNK0	0.000	
32	   H	0.436	0.143	-1.812	 H	1	UNK0	0.000	
33	   H	2.094	2.414	-1.542	 H	1	UNK0	0.000	
34	   H	3.342	1.782	1.003	 H	1	UNK0	0.000	
35	   H	2.362	3.273	1.183	 H	1	UNK0	0.000	
36	   H	3.791	4.564	-0.221	 H	1	UNK0	0.000	
37	   H	4.599	1.795	-1.569	 H	1	UNK0	0.000	
38	   H	5.129	3.477	-2.123	 H	1	UNK0	0.000	
39	   H	5.541	2.212	0.742	 H	1	UNK0	0.000	
40	   H	6.157	3.915	0.185	 H	1	UNK0	0.000	
@<TRIPOS>BOND
1 1 2 1
2 2 3 2
3 2 7 1
4 3 4 1
5 4 5 2
6 4 15 1
7 5 6 1
8 5 8 1
9 6 7 2
10 8 9 2
11 8 12 1
12 9 10 1
13 10 11 1
14 11 12 1
15 12 13 1
16 13 14 2
17 13 15 1
18 15 16 1
19 16 17 1
20 17 18 2
21 17 19 1
22 19 20 1
23 20 21 1
24 21 22 1
25 21 23 1
26 22 23 1
27 3 24 1
28 6 25 1
29 7 26 1
30 10 27 1
31 10 28 1
32 11 29 1
33 11 30 1
34 16 31 1
35 16 32 1
36 19 33 1
37 20 34 1
38 20 35 1
39 21 36 1
40 22 37 1
41 22 38 1
42 23 39 1
43 23 40 1
@<TRIPOS>SUBSTRUCTURE
1	UNK0	1	GROUP	1 ****	UNK
