# created with PyMOL 2.3.2
@<TRIPOS>MOLECULE
1946
50 53 1                 
SMALL
USER_CHARGES
@<TRIPOS>ATOM
1	  Cl	-5.183	-4.497	-1.998	Cl	1	UNK0	0.000	
2	   C	-4.181	-3.485	-0.979	C.2	1	UNK0	0.000	
3	   C	-4.513	-3.227	0.332	C.2	1	UNK0	0.000	
4	   C	-3.735	-2.426	1.165	C.2	1	UNK0	0.000	
5	   C	-2.580	-1.857	0.683	C.2	1	UNK0	0.000	
6	   C	-2.235	-2.108	-0.632	C.2	1	UNK0	0.000	
7	   C	-3.017	-2.902	-1.438	C.2	1	UNK0	0.000	
8	   N	-2.015	-1.134	1.674	N.pl3	1	UNK0	0.000	
9	   C	-2.835	-1.276	2.741	C.2	1	UNK0	0.000	
10	   O	-2.618	-0.728	3.870	O.co2	1	UNK0	0.000	
11	   O	-3.842	-2.044	2.412	O.3	1	UNK0	0.000	
12	   C	-0.777	-0.374	1.609	C.3	1	UNK0	0.000	
13	   N	0.370	-1.084	2.005	N.3	1	UNK0	0.000	
14	   C	0.733	-2.258	1.303	C.3	1	UNK0	0.000	
15	   C	1.558	-1.990	0.063	C.3	1	UNK0	0.000	
16	   N	2.138	-0.675	0.239	N.pl3	1	UNK0	0.000	
17	   C	2.660	-0.359	1.549	C.3	1	UNK0	0.000	
18	   C	1.459	-0.318	2.502	C.3	1	UNK0	0.000	
19	   C	2.180	0.244	-0.842	C.2	1	UNK0	0.000	
20	   O	1.714	-0.065	-1.976	O.2	1	UNK0	0.000	
21	   C	2.765	1.596	-0.699	C.3	1	UNK0	0.000	
22	   N	2.709	2.362	-1.906	N.3	1	UNK0	0.000	
23	   C	3.549	1.886	-2.963	C.3	1	UNK0	0.000	
24	   C	3.700	2.954	-4.034	C.3	1	UNK0	0.000	
25	   O	4.375	4.064	-3.572	O.3	1	UNK0	0.000	
26	   C	4.390	4.082	-2.191	C.3	1	UNK0	0.000	
27	   C	3.022	3.751	-1.642	C.3	1	UNK0	0.000	
28	   H	-5.411	-3.659	0.735	 H	1	UNK0	0.000	
29	   H	-1.332	-1.662	-1.013	 H	1	UNK0	0.000	
30	   H	-2.764	-3.113	-2.478	 H	1	UNK0	0.000	
31	   H	-0.911	0.488	2.301	 H	1	UNK0	0.000	
32	   H	-0.740	0.064	0.592	 H	1	UNK0	0.000	
33	   H	-0.129	-2.912	1.143	 H	1	UNK0	0.000	
34	   H	1.407	-2.849	2.000	 H	1	UNK0	0.000	
35	   H	2.392	-2.739	0.007	 H	1	UNK0	0.000	
36	   H	1.011	-2.091	-0.876	 H	1	UNK0	0.000	
37	   H	3.356	-1.172	1.833	 H	1	UNK0	0.000	
38	   H	3.183	0.615	1.580	 H	1	UNK0	0.000	
39	   H	1.822	-0.817	3.442	 H	1	UNK0	0.000	
40	   H	1.215	0.716	2.775	 H	1	UNK0	0.000	
41	   H	3.854	1.466	-0.442	 H	1	UNK0	0.000	
42	   H	2.310	2.120	0.143	 H	1	UNK0	0.000	
43	   H	3.141	0.984	-3.488	 H	1	UNK0	0.000	
44	   H	4.567	1.636	-2.601	 H	1	UNK0	0.000	
45	   H	2.718	3.227	-4.468	 H	1	UNK0	0.000	
46	   H	4.308	2.487	-4.857	 H	1	UNK0	0.000	
47	   H	4.682	5.107	-1.822	 H	1	UNK0	0.000	
48	   H	5.185	3.409	-1.808	 H	1	UNK0	0.000	
49	   H	3.041	3.947	-0.542	 H	1	UNK0	0.000	
50	   H	2.305	4.444	-2.123	 H	1	UNK0	0.000	
@<TRIPOS>BOND
1 1 2 1
2 2 3 2
3 2 7 1
4 3 4 1
5 4 5 2
6 4 11 1
7 5 6 1
8 5 8 1
9 6 7 2
10 8 9 1
11 8 12 1
12 9 10 2
13 9 11 1
14 12 13 1
15 13 14 1
16 13 18 1
17 14 15 1
18 15 16 1
19 16 17 1
20 16 19 1
21 17 18 1
22 19 20 2
23 19 21 1
24 21 22 1
25 22 23 1
26 22 27 1
27 23 24 1
28 24 25 1
29 25 26 1
30 26 27 1
31 3 28 1
32 6 29 1
33 7 30 1
34 12 31 1
35 12 32 1
36 14 33 1
37 14 34 1
38 15 35 1
39 15 36 1
40 17 37 1
41 17 38 1
42 18 39 1
43 18 40 1
44 21 41 1
45 21 42 1
46 23 43 1
47 23 44 1
48 24 45 1
49 24 46 1
50 26 47 1
51 26 48 1
52 27 49 1
53 27 50 1
@<TRIPOS>SUBSTRUCTURE
1	UNK0	1	GROUP	1 ****	UNK
