# created with PyMOL 2.3.2
@<TRIPOS>MOLECULE
1951
56 60 1                 
SMALL
USER_CHARGES
@<TRIPOS>ATOM
1	  Cl	2.200	6.958	0.082	Cl	1	UNK0	0.000	
2	   C	1.788	5.273	0.401	C.2	1	UNK0	0.000	
3	   C	1.844	4.780	1.684	C.2	1	UNK0	0.000	
4	   C	1.523	3.475	1.913	C.2	1	UNK0	0.000	
5	   C	1.134	2.603	0.899	C.2	1	UNK0	0.000	
6	   C	1.081	3.102	-0.371	C.2	1	UNK0	0.000	
7	   C	1.408	4.442	-0.628	C.2	1	UNK0	0.000	
8	   C	0.824	1.229	1.269	C.3	1	UNK0	0.000	
9	   O	1.875	0.743	2.076	O.3	1	UNK0	0.000	
10	   C	0.745	0.278	0.089	C.3	1	UNK0	0.000	
11	   N	-0.301	0.584	-0.805	N.3	1	UNK0	0.000	
12	   C	-0.627	-0.625	-1.516	C.3	1	UNK0	0.000	
13	   C	-0.251	-1.750	-0.577	C.3	1	UNK0	0.000	
14	   C	0.556	-1.122	0.522	C.3	1	UNK0	0.000	
15	   C	-0.288	-1.314	1.722	C.2	1	UNK0	0.000	
16	   O	-0.079	-0.833	2.863	O.2	1	UNK0	0.000	
17	   N	-1.410	-2.151	1.397	N.pl3	1	UNK0	0.000	
18	   C	-1.411	-2.427	0.007	C.2	1	UNK0	0.000	
19	   O	-2.242	-3.126	-0.656	O.2	1	UNK0	0.000	
20	   C	-2.411	-2.664	2.330	C.3	1	UNK0	0.000	
21	   C	-3.568	-1.702	2.456	C.3	1	UNK0	0.000	
22	   O	-4.542	-2.132	3.329	O.3	1	UNK0	0.000	
23	   C	-5.133	-3.326	3.002	C.3	1	UNK0	0.000	
24	   C	0.028	-0.761	-2.827	C.2	1	UNK0	0.000	
25	   C	-0.932	-0.780	-3.796	C.2	1	UNK0	0.000	
26	   C	-0.508	-0.882	-5.127	C.2	1	UNK0	0.000	
27	   C	0.831	-0.961	-5.436	C.2	1	UNK0	0.000	
28	   C	1.807	-0.944	-4.464	C.2	1	UNK0	0.000	
29	   C	1.392	-0.843	-3.156	C.2	1	UNK0	0.000	
30	   N	3.199	-1.028	-4.806	N.pl3	1	UNK0	0.000	
31	   O	4.059	-1.011	-3.915	O.2	1	UNK0	0.000	
32	   O	3.609	-1.128	-6.112	O.2	1	UNK0	0.000	
33	   N	-2.227	-0.717	-3.215	N.pl3	1	UNK0	0.000	
34	   C	-2.084	-0.659	-1.824	C.2	1	UNK0	0.000	
35	   O	-3.021	-0.638	-0.971	O.2	1	UNK0	0.000	
36	   H	2.150	5.474	2.465	 H	1	UNK0	0.000	
37	   H	1.579	3.116	2.947	 H	1	UNK0	0.000	
38	   H	0.803	2.538	-1.238	 H	1	UNK0	0.000	
39	   H	1.363	4.838	-1.651	 H	1	UNK0	0.000	
40	   H	-0.092	1.216	1.849	 H	1	UNK0	0.000	
41	   H	2.634	0.447	1.509	 H	1	UNK0	0.000	
42	   H	1.729	0.332	-0.451	 H	1	UNK0	0.000	
43	   H	-1.156	0.844	-0.247	 H	1	UNK0	0.000	
44	   H	0.382	-2.513	-1.078	 H	1	UNK0	0.000	
45	   H	1.540	-1.666	0.653	 H	1	UNK0	0.000	
46	   H	-1.894	-2.775	3.298	 H	1	UNK0	0.000	
47	   H	-2.750	-3.661	1.972	 H	1	UNK0	0.000	
48	   H	-3.987	-1.429	1.464	 H	1	UNK0	0.000	
49	   H	-3.125	-0.747	2.849	 H	1	UNK0	0.000	
50	   H	-4.438	-4.174	2.955	 H	1	UNK0	0.000	
51	   H	-5.587	-3.218	1.975	 H	1	UNK0	0.000	
52	   H	-5.972	-3.580	3.681	 H	1	UNK0	0.000	
53	   H	-1.285	-0.895	-5.887	 H	1	UNK0	0.000	
54	   H	1.158	-1.040	-6.470	 H	1	UNK0	0.000	
55	   H	2.171	-0.839	-2.399	 H	1	UNK0	0.000	
56	   H	-3.133	-0.717	-3.779	 H	1	UNK0	0.000	
@<TRIPOS>BOND
1 1 2 1
2 2 3 2
3 2 7 1
4 3 4 1
5 4 5 2
6 5 6 1
7 5 8 1
8 6 7 2
9 8 9 1
10 8 10 1
11 10 11 1
12 10 14 1
13 11 12 1
14 12 13 1
15 12 24 1
16 12 34 1
17 13 14 1
18 13 18 1
19 14 15 1
20 15 16 2
21 15 17 1
22 17 18 1
23 17 20 1
24 18 19 2
25 20 21 1
26 21 22 1
27 22 23 1
28 24 25 1
29 24 29 2
30 25 26 2
31 25 33 1
32 26 27 1
33 27 28 2
34 28 29 1
35 28 30 1
36 30 31 2
37 30 32 1
38 33 34 1
39 34 35 2
40 3 36 1
41 4 37 1
42 6 38 1
43 7 39 1
44 8 40 1
45 9 41 1
46 10 42 1
47 11 43 1
48 13 44 1
49 14 45 1
50 20 46 1
51 20 47 1
52 21 48 1
53 21 49 1
54 23 50 1
55 23 51 1
56 23 52 1
57 26 53 1
58 27 54 1
59 29 55 1
60 33 56 1
@<TRIPOS>SUBSTRUCTURE
1	UNK0	1	GROUP	1 ****	UNK
