# created with PyMOL 2.3.2
@<TRIPOS>MOLECULE
1954
44 47 1                 
SMALL
USER_CHARGES
@<TRIPOS>ATOM
1	  Cl	-1.853	-2.775	1.306	Cl	1	UNK0	0.000	
2	   C	-3.464	-2.653	2.005	C.2	1	UNK0	0.000	
3	   C	-4.533	-2.278	1.247	C.2	1	UNK0	0.000	
4	   C	-5.793	-2.253	1.872	C.2	1	UNK0	0.000	
5	   C	-5.962	-2.586	3.189	C.2	1	UNK0	0.000	
6	   C	-4.864	-2.966	3.955	C.2	1	UNK0	0.000	
7	   C	-3.628	-2.992	3.345	C.2	1	UNK0	0.000	
8	   C	-4.448	-1.842	-0.173	C.3	1	UNK0	0.000	
9	   N	-4.164	-0.437	-0.300	N.pl3	1	UNK0	0.000	
10	   N	-5.149	0.495	-0.301	N.2	1	UNK0	0.000	
11	   N	-4.660	1.697	-0.420	N.2	1	UNK0	0.000	
12	   C	-3.339	1.627	-0.502	C.2	1	UNK0	0.000	
13	   C	-3.045	0.258	-0.424	C.2	1	UNK0	0.000	
14	   N	-1.776	-0.096	-0.484	N.2	1	UNK0	0.000	
15	   C	-0.736	0.740	-0.613	C.2	1	UNK0	0.000	
16	   N	-1.009	2.044	-0.688	N.2	1	UNK0	0.000	
17	   C	-2.276	2.506	-0.636	C.2	1	UNK0	0.000	
18	   O	-2.594	3.843	-0.712	O.3	1	UNK0	0.000	
19	   C	0.602	0.170	-0.650	C.2	1	UNK0	0.000	
20	   O	0.777	-1.089	-0.583	O.2	1	UNK0	0.000	
21	   N	1.707	1.057	-0.761	N.pl3	1	UNK0	0.000	
22	   C	3.035	0.480	-0.790	C.3	1	UNK0	0.000	
23	   C	4.116	1.497	-0.897	C.3	1	UNK0	0.000	
24	   O	5.387	0.964	-0.924	O.3	1	UNK0	0.000	
25	   C	6.178	2.128	-0.987	C.3	1	UNK0	0.000	
26	   C	5.537	3.141	-0.073	C.3	1	UNK0	0.000	
27	   C	4.194	2.464	0.241	C.3	1	UNK0	0.000	
28	   H	-6.647	-1.957	1.271	 H	1	UNK0	0.000	
29	   H	-6.945	-2.562	3.671	 H	1	UNK0	0.000	
30	   H	-4.960	-3.233	4.991	 H	1	UNK0	0.000	
31	   H	-2.753	-3.287	3.921	 H	1	UNK0	0.000	
32	   H	-3.592	-2.439	-0.610	 H	1	UNK0	0.000	
33	   H	-5.392	-2.064	-0.721	 H	1	UNK0	0.000	
34	   H	-3.207	4.267	-1.394	 H	1	UNK0	0.000	
35	   H	1.533	2.067	-0.817	 H	1	UNK0	0.000	
36	   H	3.123	-0.138	0.128	 H	1	UNK0	0.000	
37	   H	3.110	-0.215	-1.646	 H	1	UNK0	0.000	
38	   H	3.987	2.086	-1.831	 H	1	UNK0	0.000	
39	   H	7.239	1.916	-0.748	 H	1	UNK0	0.000	
40	   H	6.076	2.485	-2.043	 H	1	UNK0	0.000	
41	   H	5.298	4.095	-0.629	 H	1	UNK0	0.000	
42	   H	6.126	3.358	0.820	 H	1	UNK0	0.000	
43	   H	4.303	2.021	1.234	 H	1	UNK0	0.000	
44	   H	3.386	3.250	0.207	 H	1	UNK0	0.000	
@<TRIPOS>BOND
1 1 2 1
2 2 3 2
3 2 7 1
4 3 4 1
5 3 8 1
6 4 5 2
7 5 6 1
8 6 7 2
9 8 9 1
10 9 10 1
11 9 13 1
12 10 11 2
13 11 12 1
14 12 13 2
15 12 17 1
16 13 14 1
17 14 15 2
18 15 16 1
19 15 19 1
20 16 17 2
21 17 18 1
22 19 20 2
23 19 21 1
24 21 22 1
25 22 23 1
26 23 24 1
27 23 27 1
28 24 25 1
29 25 26 1
30 26 27 1
31 4 28 1
32 5 29 1
33 6 30 1
34 7 31 1
35 8 32 1
36 8 33 1
37 18 34 1
38 21 35 1
39 22 36 1
40 22 37 1
41 23 38 1
42 25 39 1
43 25 40 1
44 26 41 1
45 26 42 1
46 27 43 1
47 27 44 1
@<TRIPOS>SUBSTRUCTURE
1	UNK0	1	GROUP	1 ****	UNK
