# created with PyMOL 2.3.2
@<TRIPOS>MOLECULE
1955
55 58 1                 
SMALL
USER_CHARGES
@<TRIPOS>ATOM
1	  Cl	-1.469	-2.323	5.229	Cl	1	UNK0	0.000	
2	   C	-1.197	-0.665	4.765	C.2	1	UNK0	0.000	
3	   C	-0.107	-0.311	3.972	C.2	1	UNK0	0.000	
4	   C	0.133	0.984	3.590	C.2	1	UNK0	0.000	
5	   C	-0.757	1.952	4.024	C.2	1	UNK0	0.000	
6	   C	-1.845	1.598	4.817	C.2	1	UNK0	0.000	
7	   C	-2.074	0.295	5.193	C.2	1	UNK0	0.000	
8	   N	1.228	1.350	2.790	N.pl3	1	UNK0	0.000	
9	   C	2.373	0.469	2.551	C.3	1	UNK0	0.000	
10	   C	2.468	0.138	1.061	C.3	1	UNK0	0.000	
11	   N	1.349	0.887	0.446	N.3	1	UNK0	0.000	
12	   C	1.735	2.294	0.665	C.3	1	UNK0	0.000	
13	   C	1.312	2.632	2.091	C.3	1	UNK0	0.000	
14	   C	1.229	0.564	-0.939	C.3	1	UNK0	0.000	
15	   C	0.008	1.120	-1.566	C.2	1	UNK0	0.000	
16	   C	-0.888	1.816	-0.896	C.2	1	UNK0	0.000	
17	   O	-2.004	2.305	-1.532	O.3	1	UNK0	0.000	
18	   C	-2.283	2.117	-2.892	C.2	1	UNK0	0.000	
19	   O	-3.191	2.811	-3.416	O.co2	1	UNK0	0.000	
20	   C	-1.529	1.137	-3.663	C.3	1	UNK0	0.000	
21	   C	-0.193	0.887	-2.998	C.2	1	UNK0	0.000	
22	   O	0.745	0.472	-3.711	O.2	1	UNK0	0.000	
23	   C	-2.163	-0.207	-3.812	C.3	1	UNK0	0.000	
24	   N	-2.408	-0.859	-2.562	N.3	1	UNK0	0.000	
25	   C	-2.626	-2.315	-2.784	C.3	1	UNK0	0.000	
26	   C	-2.969	-2.964	-1.461	C.3	1	UNK0	0.000	
27	   O	-2.992	-2.089	-0.393	O.3	1	UNK0	0.000	
28	   C	-3.728	-0.944	-0.571	C.3	1	UNK0	0.000	
29	   C	-3.741	-0.475	-2.014	C.3	1	UNK0	0.000	
30	   H	0.533	-1.128	3.678	 H	1	UNK0	0.000	
31	   H	-0.620	2.979	3.765	 H	1	UNK0	0.000	
32	   H	-2.551	2.361	5.162	 H	1	UNK0	0.000	
33	   H	-2.940	0.064	5.814	 H	1	UNK0	0.000	
34	   H	2.333	-0.435	3.165	 H	1	UNK0	0.000	
35	   H	3.290	1.035	2.890	 H	1	UNK0	0.000	
36	   H	2.384	-0.938	0.876	 H	1	UNK0	0.000	
37	   H	3.399	0.559	0.635	 H	1	UNK0	0.000	
38	   H	1.350	2.967	-0.090	 H	1	UNK0	0.000	
39	   H	2.854	2.343	0.594	 H	1	UNK0	0.000	
40	   H	0.330	3.097	2.022	 H	1	UNK0	0.000	
41	   H	2.115	3.267	2.516	 H	1	UNK0	0.000	
42	   H	2.162	0.929	-1.457	 H	1	UNK0	0.000	
43	   H	1.206	-0.544	-1.028	 H	1	UNK0	0.000	
44	   H	-0.756	2.011	0.176	 H	1	UNK0	0.000	
45	   H	-1.289	1.533	-4.708	 H	1	UNK0	0.000	
46	   H	-1.533	-0.832	-4.490	 H	1	UNK0	0.000	
47	   H	-3.165	-0.096	-4.330	 H	1	UNK0	0.000	
48	   H	-3.477	-2.381	-3.481	 H	1	UNK0	0.000	
49	   H	-1.699	-2.709	-3.197	 H	1	UNK0	0.000	
50	   H	-3.914	-3.552	-1.555	 H	1	UNK0	0.000	
51	   H	-2.142	-3.702	-1.243	 H	1	UNK0	0.000	
52	   H	-3.245	-0.133	0.025	 H	1	UNK0	0.000	
53	   H	-4.760	-1.079	-0.180	 H	1	UNK0	0.000	
54	   H	-4.521	-1.024	-2.603	 H	1	UNK0	0.000	
55	   H	-3.941	0.568	-2.098	 H	1	UNK0	0.000	
@<TRIPOS>BOND
1 1 2 1
2 2 3 2
3 2 7 1
4 3 4 1
5 4 5 2
6 4 8 1
7 5 6 1
8 6 7 2
9 8 9 1
10 8 13 1
11 9 10 1
12 10 11 1
13 11 12 1
14 11 14 1
15 12 13 1
16 14 15 1
17 15 16 2
18 15 21 1
19 16 17 1
20 17 18 1
21 18 19 2
22 18 20 1
23 20 21 1
24 20 23 1
25 21 22 2
26 23 24 1
27 24 25 1
28 24 29 1
29 25 26 1
30 26 27 1
31 27 28 1
32 28 29 1
33 3 30 1
34 5 31 1
35 6 32 1
36 7 33 1
37 9 34 1
38 9 35 1
39 10 36 1
40 10 37 1
41 12 38 1
42 12 39 1
43 13 40 1
44 13 41 1
45 14 42 1
46 14 43 1
47 16 44 1
48 20 45 1
49 23 46 1
50 23 47 1
51 25 48 1
52 25 49 1
53 26 50 1
54 26 51 1
55 28 52 1
56 28 53 1
57 29 54 1
58 29 55 1
@<TRIPOS>SUBSTRUCTURE
1	UNK0	1	GROUP	1 ****	UNK
