# created with PyMOL 2.3.2
@<TRIPOS>MOLECULE
1956
63 66 1                 
SMALL
USER_CHARGES
@<TRIPOS>ATOM
1	  Cl	-8.800	0.889	-3.456	Cl	1	UNK0	0.000	
2	   C	-7.406	0.432	-2.504	C.2	1	UNK0	0.000	
3	   C	-7.506	-0.175	-1.275	C.2	1	UNK0	0.000	
4	   C	-6.374	-0.515	-0.564	C.2	1	UNK0	0.000	
5	   C	-5.080	-0.266	-1.042	C.2	1	UNK0	0.000	
6	   C	-5.011	0.340	-2.274	C.2	1	UNK0	0.000	
7	   C	-6.159	0.687	-2.999	C.2	1	UNK0	0.000	
8	   C	-3.938	-0.690	-0.263	C.2	1	UNK0	0.000	
9	   C	-2.985	0.139	0.129	C.2	1	UNK0	0.000	
10	   C	-1.770	-0.246	0.935	C.3	1	UNK0	0.000	
11	   N	-1.204	0.991	1.390	N.pl3	1	UNK0	0.000	
12	   C	-1.798	2.092	0.718	C.2	1	UNK0	0.000	
13	   O	-1.449	3.280	0.778	O.2	1	UNK0	0.000	
14	   C	-2.925	1.551	-0.077	C.2	1	UNK0	0.000	
15	   O	-3.680	2.247	-0.796	O.2	1	UNK0	0.000	
16	   C	-0.171	1.117	2.413	C.3	1	UNK0	0.000	
17	   C	1.175	1.090	1.775	C.3	1	UNK0	0.000	
18	   N	2.248	1.224	2.774	N.4	1	UNK0	0.000	
19	   C	1.902	2.299	3.652	C.3	1	UNK0	0.000	
20	   C	3.102	2.779	4.465	C.3	1	UNK0	0.000	
21	   O	4.080	3.161	3.529	O.3	1	UNK0	0.000	
22	   C	4.549	2.008	2.935	C.3	1	UNK0	0.000	
23	   C	3.470	1.445	2.032	C.3	1	UNK0	0.000	
24	   C	-0.881	-1.010	0.018	C.2	1	UNK0	0.000	
25	   C	-0.670	-2.343	0.224	C.2	1	UNK0	0.000	
26	   C	0.137	-3.039	-0.630	C.2	1	UNK0	0.000	
27	   C	0.752	-2.433	-1.704	C.2	1	UNK0	0.000	
28	   C	0.540	-1.083	-1.914	C.2	1	UNK0	0.000	
29	   C	-0.281	-0.381	-1.044	C.2	1	UNK0	0.000	
30	   O	1.573	-3.149	-2.569	O.3	1	UNK0	0.000	
31	   C	1.766	-4.548	-2.315	C.3	1	UNK0	0.000	
32	   C	2.695	-5.116	-3.385	C.3	1	UNK0	0.000	
33	   C	4.008	-4.353	-3.282	C.3	1	UNK0	0.000	
34	   O	-3.782	-2.042	0.125	O.2	1	UNK0	0.000	
35	   H	-8.497	-0.372	-0.894	 H	1	UNK0	0.000	
36	   H	-6.471	-0.993	0.403	 H	1	UNK0	0.000	
37	   H	-4.040	0.532	-2.712	 H	1	UNK0	0.000	
38	   H	-6.051	1.168	-3.971	 H	1	UNK0	0.000	
39	   H	-2.084	-0.898	1.777	 H	1	UNK0	0.000	
40	   H	-0.269	0.251	3.106	 H	1	UNK0	0.000	
41	   H	-0.341	2.050	2.973	 H	1	UNK0	0.000	
42	   H	1.313	1.921	1.064	 H	1	UNK0	0.000	
43	   H	1.339	0.103	1.271	 H	1	UNK0	0.000	
44	   H	2.341	0.336	3.333	 H	1	UNK0	0.000	
45	   H	1.147	1.895	4.381	 H	1	UNK0	0.000	
46	   H	1.509	3.181	3.106	 H	1	UNK0	0.000	
47	   H	3.429	1.914	5.068	 H	1	UNK0	0.000	
48	   H	2.796	3.645	5.053	 H	1	UNK0	0.000	
49	   H	5.415	2.235	2.291	 H	1	UNK0	0.000	
50	   H	4.811	1.225	3.660	 H	1	UNK0	0.000	
51	   H	3.808	0.456	1.658	 H	1	UNK0	0.000	
52	   H	3.241	2.126	1.190	 H	1	UNK0	0.000	
53	   H	-1.130	-2.866	1.052	 H	1	UNK0	0.000	
54	   H	0.314	-4.099	-0.479	 H	1	UNK0	0.000	
55	   H	1.030	-0.626	-2.761	 H	1	UNK0	0.000	
56	   H	-0.409	0.682	-1.261	 H	1	UNK0	0.000	
57	   H	2.248	-4.689	-1.335	 H	1	UNK0	0.000	
58	   H	0.792	-5.069	-2.319	 H	1	UNK0	0.000	
59	   H	2.895	-6.176	-3.127	 H	1	UNK0	0.000	
60	   H	2.241	-5.016	-4.389	 H	1	UNK0	0.000	
61	   H	4.851	-5.011	-3.525	 H	1	UNK0	0.000	
62	   H	4.180	-3.972	-2.247	 H	1	UNK0	0.000	
63	   H	3.963	-3.511	-4.001	 H	1	UNK0	0.000	
@<TRIPOS>BOND
1 1 2 1
2 2 3 2
3 2 7 1
4 3 4 1
5 4 5 2
6 5 6 1
7 5 8 1
8 6 7 2
9 8 9 2
10 8 34 1
11 9 10 1
12 9 14 1
13 10 11 1
14 10 24 1
15 11 12 1
16 11 16 1
17 12 13 2
18 12 14 1
19 14 15 2
20 16 17 1
21 17 18 1
22 18 19 1
23 18 23 1
24 19 20 1
25 20 21 1
26 21 22 1
27 22 23 1
28 24 25 2
29 24 29 1
30 25 26 1
31 26 27 2
32 27 28 1
33 27 30 1
34 28 29 2
35 30 31 1
36 31 32 1
37 32 33 1
38 3 35 1
39 4 36 1
40 6 37 1
41 7 38 1
42 10 39 1
43 16 40 1
44 16 41 1
45 17 42 1
46 17 43 1
47 18 44 1
48 19 45 1
49 19 46 1
50 20 47 1
51 20 48 1
52 22 49 1
53 22 50 1
54 23 51 1
55 23 52 1
56 25 53 1
57 26 54 1
58 28 55 1
59 29 56 1
60 31 57 1
61 31 58 1
62 32 59 1
63 32 60 1
64 33 61 1
65 33 62 1
66 33 63 1
@<TRIPOS>SUBSTRUCTURE
1	UNK0	1	GROUP	1 ****	UNK
