# created with PyMOL 2.3.2
@<TRIPOS>MOLECULE
1957
57 61 1                 
SMALL
USER_CHARGES
@<TRIPOS>ATOM
1	  Cl	-3.697	-5.476	3.402	Cl	1	UNK0	0.000	
2	   C	-3.334	-3.784	3.106	C.2	1	UNK0	0.000	
3	   C	-4.086	-3.012	2.242	C.2	1	UNK0	0.000	
4	   C	-3.794	-1.692	2.018	C.2	1	UNK0	0.000	
5	   C	-2.723	-1.065	2.653	C.2	1	UNK0	0.000	
6	   C	-1.968	-1.822	3.515	C.2	1	UNK0	0.000	
7	   C	-2.282	-3.144	3.722	C.2	1	UNK0	0.000	
8	   C	-2.441	0.378	2.408	C.3	1	UNK0	0.000	
9	   O	-2.003	0.952	3.573	O.3	1	UNK0	0.000	
10	   C	-1.532	0.610	1.231	C.3	1	UNK0	0.000	
11	   N	-2.151	-0.084	0.109	N.3	1	UNK0	0.000	
12	   C	-1.075	-0.682	-0.656	C.3	1	UNK0	0.000	
13	   C	-0.071	-1.026	0.406	C.3	1	UNK0	0.000	
14	   C	-0.156	0.086	1.403	C.3	1	UNK0	0.000	
15	   C	0.900	1.062	1.017	C.2	1	UNK0	0.000	
16	   O	1.009	2.244	1.421	O.2	1	UNK0	0.000	
17	   N	1.769	0.376	0.089	N.pl3	1	UNK0	0.000	
18	   C	1.332	-0.961	-0.039	C.2	1	UNK0	0.000	
19	   O	1.998	-1.940	-0.456	O.2	1	UNK0	0.000	
20	   C	2.881	0.970	-0.593	C.3	1	UNK0	0.000	
21	   C	4.183	0.914	0.114	C.3	1	UNK0	0.000	
22	   C	4.723	-0.439	0.419	C.3	1	UNK0	0.000	
23	   O	4.957	-1.207	-0.714	O.3	1	UNK0	0.000	
24	   C	5.468	-2.464	-0.328	C.3	1	UNK0	0.000	
25	   C	-1.522	-1.886	-1.398	C.2	1	UNK0	0.000	
26	   C	-1.344	-1.615	-2.734	C.2	1	UNK0	0.000	
27	   C	-1.684	-2.586	-3.666	C.2	1	UNK0	0.000	
28	   C	-2.187	-3.789	-3.230	C.2	1	UNK0	0.000	
29	   C	-2.369	-4.072	-1.887	C.2	1	UNK0	0.000	
30	   C	-2.028	-3.098	-0.972	C.2	1	UNK0	0.000	
31	   N	-0.811	-0.292	-2.926	N.pl3	1	UNK0	0.000	
32	   C	-0.648	0.291	-1.646	C.2	1	UNK0	0.000	
33	   O	-0.213	1.439	-1.459	O.2	1	UNK0	0.000	
34	   H	-4.934	-3.475	1.728	 H	1	UNK0	0.000	
35	   H	-4.399	-1.083	1.327	 H	1	UNK0	0.000	
36	   H	-1.127	-1.410	4.056	 H	1	UNK0	0.000	
37	   H	-1.691	-3.763	4.406	 H	1	UNK0	0.000	
38	   H	-3.468	0.819	2.125	 H	1	UNK0	0.000	
39	   H	-2.075	1.936	3.477	 H	1	UNK0	0.000	
40	   H	-1.548	1.707	0.964	 H	1	UNK0	0.000	
41	   H	-2.709	0.566	-0.455	 H	1	UNK0	0.000	
42	   H	-0.314	-2.011	0.849	 H	1	UNK0	0.000	
43	   H	0.071	-0.251	2.428	 H	1	UNK0	0.000	
44	   H	2.625	2.019	-0.835	 H	1	UNK0	0.000	
45	   H	3.039	0.484	-1.600	 H	1	UNK0	0.000	
46	   H	4.942	1.402	-0.570	 H	1	UNK0	0.000	
47	   H	4.220	1.563	1.028	 H	1	UNK0	0.000	
48	   H	4.087	-1.042	1.088	 H	1	UNK0	0.000	
49	   H	5.703	-0.293	0.937	 H	1	UNK0	0.000	
50	   H	6.416	-2.357	0.228	 H	1	UNK0	0.000	
51	   H	4.735	-2.924	0.370	 H	1	UNK0	0.000	
52	   H	5.565	-3.134	-1.204	 H	1	UNK0	0.000	
53	   H	-1.543	-2.374	-4.736	 H	1	UNK0	0.000	
54	   H	-2.447	-4.540	-3.973	 H	1	UNK0	0.000	
55	   H	-2.770	-5.039	-1.617	 H	1	UNK0	0.000	
56	   H	-2.169	-3.313	0.098	 H	1	UNK0	0.000	
57	   H	-0.602	0.108	-3.869	 H	1	UNK0	0.000	
@<TRIPOS>BOND
1 1 2 1
2 2 3 2
3 2 7 1
4 3 4 1
5 4 5 2
6 5 6 1
7 5 8 1
8 6 7 2
9 8 9 1
10 8 10 1
11 10 11 1
12 10 14 1
13 11 12 1
14 12 13 1
15 12 25 1
16 12 32 1
17 13 14 1
18 13 18 1
19 14 15 1
20 15 16 2
21 15 17 1
22 17 18 1
23 17 20 1
24 18 19 2
25 20 21 1
26 21 22 1
27 22 23 1
28 23 24 1
29 25 26 1
30 25 30 2
31 26 27 2
32 26 31 1
33 27 28 1
34 28 29 2
35 29 30 1
36 31 32 1
37 32 33 2
38 3 34 1
39 4 35 1
40 6 36 1
41 7 37 1
42 8 38 1
43 9 39 1
44 10 40 1
45 11 41 1
46 13 42 1
47 14 43 1
48 20 44 1
49 20 45 1
50 21 46 1
51 21 47 1
52 22 48 1
53 22 49 1
54 24 50 1
55 24 51 1
56 24 52 1
57 27 53 1
58 28 54 1
59 29 55 1
60 30 56 1
61 31 57 1
@<TRIPOS>SUBSTRUCTURE
1	UNK0	1	GROUP	1 ****	UNK
