# created with PyMOL 2.3.2
@<TRIPOS>MOLECULE
1959
39 42 1                 
SMALL
USER_CHARGES
@<TRIPOS>ATOM
1	  Cl	3.283	-4.631	-0.464	Cl	1	UNK0	0.000	
2	   C	1.659	-4.459	0.155	C.2	1	UNK0	0.000	
3	   C	1.300	-5.016	1.351	C.2	1	UNK0	0.000	
4	   C	-0.002	-4.845	1.814	C.2	1	UNK0	0.000	
5	   C	-0.905	-4.124	1.071	C.2	1	UNK0	0.000	
6	   C	-0.525	-3.569	-0.133	C.2	1	UNK0	0.000	
7	   C	0.759	-3.734	-0.599	C.2	1	UNK0	0.000	
8	   C	-2.318	-3.878	1.496	C.3	1	UNK0	0.000	
9	   C	-2.348	-2.858	2.577	C.2	1	UNK0	0.000	
10	   O	-2.029	-3.296	3.738	O.2	1	UNK0	0.000	
11	   N	-2.682	-1.511	2.400	N.pl3	1	UNK0	0.000	
12	   C	-2.697	-0.581	3.500	C.3	1	UNK0	0.000	
13	   C	-2.513	0.854	3.034	C.3	1	UNK0	0.000	
14	   C	-1.586	0.843	1.875	C.2	1	UNK0	0.000	
15	   C	-1.813	-0.060	0.863	C.2	1	UNK0	0.000	
16	   N	-0.997	-0.066	-0.181	N.2	1	UNK0	0.000	
17	   C	0.063	0.802	-0.270	C.2	1	UNK0	0.000	
18	   N	0.324	1.698	0.696	N.pl3	1	UNK0	0.000	
19	   N	1.411	2.404	0.364	N.pl3	1	UNK0	0.000	
20	   C	1.877	1.984	-0.819	C.2	1	UNK0	0.000	
21	   C	1.039	0.976	-1.233	C.2	1	UNK0	0.000	
22	   C	-0.496	1.723	1.769	C.2	1	UNK0	0.000	
23	   O	-0.283	2.546	2.691	O.2	1	UNK0	0.000	
24	   C	-2.968	-1.003	1.075	C.3	1	UNK0	0.000	
25	   H	2.028	-5.582	1.938	 H	1	UNK0	0.000	
26	   H	-0.288	-5.284	2.757	 H	1	UNK0	0.000	
27	   H	-1.233	-2.991	-0.742	 H	1	UNK0	0.000	
28	   H	1.012	-3.279	-1.550	 H	1	UNK0	0.000	
29	   H	-2.631	-4.855	1.979	 H	1	UNK0	0.000	
30	   H	-3.016	-3.721	0.682	 H	1	UNK0	0.000	
31	   H	-3.622	-0.643	4.121	 H	1	UNK0	0.000	
32	   H	-1.819	-0.747	4.201	 H	1	UNK0	0.000	
33	   H	-3.495	1.230	2.705	 H	1	UNK0	0.000	
34	   H	-2.101	1.455	3.878	 H	1	UNK0	0.000	
35	   H	1.810	3.161	0.956	 H	1	UNK0	0.000	
36	   H	2.765	2.377	-1.357	 H	1	UNK0	0.000	
37	   H	1.142	0.419	-2.162	 H	1	UNK0	0.000	
38	   H	-3.025	-1.752	0.289	 H	1	UNK0	0.000	
39	   H	-3.913	-0.410	1.181	 H	1	UNK0	0.000	
@<TRIPOS>BOND
1 1 2 1
2 2 3 2
3 2 7 1
4 3 4 1
5 4 5 2
6 5 6 1
7 5 8 1
8 6 7 2
9 8 9 1
10 9 10 2
11 9 11 1
12 11 12 1
13 11 24 1
14 12 13 1
15 13 14 1
16 14 15 2
17 14 22 1
18 15 16 1
19 15 24 1
20 16 17 2
21 17 18 1
22 17 21 1
23 18 19 1
24 18 22 1
25 19 20 1
26 20 21 2
27 22 23 2
28 3 25 1
29 4 26 1
30 6 27 1
31 7 28 1
32 8 29 1
33 8 30 1
34 12 31 1
35 12 32 1
36 13 33 1
37 13 34 1
38 19 35 1
39 20 36 1
40 21 37 1
41 24 38 1
42 24 39 1
@<TRIPOS>SUBSTRUCTURE
1	UNK0	1	GROUP	1 ****	UNK
