# created with PyMOL 2.3.2
@<TRIPOS>MOLECULE
1960
52 55 1                 
SMALL
USER_CHARGES
@<TRIPOS>ATOM
1	  Cl	-1.741	-6.371	3.318	Cl	1	UNK0	0.000	
2	   C	-1.788	-4.654	3.059	C.2	1	UNK0	0.000	
3	   C	-2.124	-4.129	1.810	C.2	1	UNK0	0.000	
4	   C	-2.159	-2.761	1.611	C.2	1	UNK0	0.000	
5	   C	-1.862	-1.878	2.646	C.2	1	UNK0	0.000	
6	   C	-1.532	-2.388	3.871	C.2	1	UNK0	0.000	
7	   C	-1.498	-3.768	4.070	C.2	1	UNK0	0.000	
8	   C	-1.910	-0.414	2.388	C.3	1	UNK0	0.000	
9	   C	-0.600	0.100	1.945	C.2	1	UNK0	0.000	
10	   O	0.347	-0.725	1.854	O.2	1	UNK0	0.000	
11	   N	-0.355	1.444	1.622	N.pl3	1	UNK0	0.000	
12	   C	0.980	1.890	1.186	C.3	1	UNK0	0.000	
13	   C	0.796	2.939	0.100	C.3	1	UNK0	0.000	
14	   N	-0.471	2.654	-0.543	N.pl3	1	UNK0	0.000	
15	   C	-1.652	2.973	0.241	C.3	1	UNK0	0.000	
16	   C	-1.353	2.503	1.675	C.3	1	UNK0	0.000	
17	   C	-0.546	2.088	-1.842	C.2	1	UNK0	0.000	
18	   C	-1.752	2.062	-2.518	C.2	1	UNK0	0.000	
19	   N	-1.799	1.500	-3.761	N.2	1	UNK0	0.000	
20	   N	-0.743	0.976	-4.352	N.2	1	UNK0	0.000	
21	   C	0.482	0.968	-3.741	C.2	1	UNK0	0.000	
22	   C	0.524	1.530	-2.501	C.2	1	UNK0	0.000	
23	   N	1.570	0.388	-4.430	N.pl3	1	UNK0	0.000	
24	   C	1.403	-0.158	-5.764	C.3	1	UNK0	0.000	
25	   C	2.101	-1.514	-5.878	C.3	1	UNK0	0.000	
26	   O	3.379	-1.474	-5.357	O.3	1	UNK0	0.000	
27	   C	3.282	-1.187	-4.004	C.3	1	UNK0	0.000	
28	   C	2.891	0.295	-3.864	C.3	1	UNK0	0.000	
29	   H	-2.351	-4.809	1.017	 H	1	UNK0	0.000	
30	   H	-2.416	-2.318	0.650	 H	1	UNK0	0.000	
31	   H	-1.291	-1.738	4.717	 H	1	UNK0	0.000	
32	   H	-1.234	-4.139	5.045	 H	1	UNK0	0.000	
33	   H	-2.172	0.061	3.378	 H	1	UNK0	0.000	
34	   H	-2.712	-0.172	1.662	 H	1	UNK0	0.000	
35	   H	1.491	0.989	0.816	 H	1	UNK0	0.000	
36	   H	1.557	2.279	2.050	 H	1	UNK0	0.000	
37	   H	1.635	2.978	-0.609	 H	1	UNK0	0.000	
38	   H	0.711	3.943	0.572	 H	1	UNK0	0.000	
39	   H	-2.575	2.517	-0.117	 H	1	UNK0	0.000	
40	   H	-1.719	4.079	0.284	 H	1	UNK0	0.000	
41	   H	-2.259	2.232	2.214	 H	1	UNK0	0.000	
42	   H	-0.875	3.337	2.241	 H	1	UNK0	0.000	
43	   H	-2.658	2.458	-2.129	 H	1	UNK0	0.000	
44	   H	1.464	1.545	-1.978	 H	1	UNK0	0.000	
45	   H	0.338	-0.319	-6.029	 H	1	UNK0	0.000	
46	   H	1.915	0.507	-6.483	 H	1	UNK0	0.000	
47	   H	2.149	-1.776	-6.943	 H	1	UNK0	0.000	
48	   H	1.520	-2.307	-5.377	 H	1	UNK0	0.000	
49	   H	4.190	-1.413	-3.441	 H	1	UNK0	0.000	
50	   H	2.393	-1.749	-3.602	 H	1	UNK0	0.000	
51	   H	3.000	0.611	-2.834	 H	1	UNK0	0.000	
52	   H	3.581	0.863	-4.548	 H	1	UNK0	0.000	
@<TRIPOS>BOND
1 1 2 1
2 2 3 2
3 2 7 1
4 3 4 1
5 4 5 2
6 5 6 1
7 5 8 1
8 6 7 2
9 8 9 1
10 9 10 2
11 9 11 1
12 11 12 1
13 11 16 1
14 12 13 1
15 13 14 1
16 14 15 1
17 14 17 1
18 15 16 1
19 17 18 2
20 17 22 1
21 18 19 1
22 19 20 2
23 20 21 1
24 21 22 2
25 21 23 1
26 23 24 1
27 23 28 1
28 24 25 1
29 25 26 1
30 26 27 1
31 27 28 1
32 3 29 1
33 4 30 1
34 6 31 1
35 7 32 1
36 8 33 1
37 8 34 1
38 12 35 1
39 12 36 1
40 13 37 1
41 13 38 1
42 15 39 1
43 15 40 1
44 16 41 1
45 16 42 1
46 18 43 1
47 22 44 1
48 24 45 1
49 24 46 1
50 25 47 1
51 25 48 1
52 27 49 1
53 27 50 1
54 28 51 1
55 28 52 1
@<TRIPOS>SUBSTRUCTURE
1	UNK0	1	GROUP	1 ****	UNK
