# created with PyMOL 2.3.2
@<TRIPOS>MOLECULE
1961
52 55 1                 
SMALL
USER_CHARGES
@<TRIPOS>ATOM
1	  Cl	-6.968	4.218	-3.679	Cl	1	UNK0	0.000	
2	   C	-5.333	3.862	-3.183	C.2	1	UNK0	0.000	
3	   C	-5.047	3.547	-1.872	C.2	1	UNK0	0.000	
4	   C	-3.748	3.269	-1.505	C.2	1	UNK0	0.000	
5	   C	-2.703	3.293	-2.407	C.2	1	UNK0	0.000	
6	   C	-3.013	3.611	-3.713	C.2	1	UNK0	0.000	
7	   C	-4.305	3.895	-4.118	C.2	1	UNK0	0.000	
8	   C	-1.298	3.001	-2.042	C.3	1	UNK0	0.000	
9	   C	-0.970	1.577	-2.136	C.2	1	UNK0	0.000	
10	   O	-1.888	0.787	-2.505	O.2	1	UNK0	0.000	
11	   N	0.291	1.019	-1.848	N.pl3	1	UNK0	0.000	
12	   C	1.441	1.791	-1.418	C.3	1	UNK0	0.000	
13	   C	1.708	1.422	0.021	C.3	1	UNK0	0.000	
14	   N	1.228	0.109	0.366	N.pl3	1	UNK0	0.000	
15	   C	0.850	-0.914	-0.579	C.3	1	UNK0	0.000	
16	   C	0.552	-0.419	-1.957	C.3	1	UNK0	0.000	
17	   C	1.127	-0.195	1.768	C.2	1	UNK0	0.000	
18	   N	0.632	-1.390	2.193	N.2	1	UNK0	0.000	
19	   C	0.523	-1.717	3.480	C.2	1	UNK0	0.000	
20	   N	0.928	-0.807	4.396	N.2	1	UNK0	0.000	
21	   C	1.421	0.381	4.055	C.2	1	UNK0	0.000	
22	   C	1.533	0.716	2.713	C.2	1	UNK0	0.000	
23	   N	-0.003	-2.988	3.908	N.pl3	1	UNK0	0.000	
24	   C	-0.408	-3.925	2.878	C.3	1	UNK0	0.000	
25	   C	0.212	-5.264	3.287	C.3	1	UNK0	0.000	
26	   O	-0.401	-5.610	4.495	O.3	1	UNK0	0.000	
27	   C	0.002	-4.818	5.540	C.3	1	UNK0	0.000	
28	   C	-0.133	-3.337	5.285	C.3	1	UNK0	0.000	
29	   H	-5.881	3.533	-1.181	 H	1	UNK0	0.000	
30	   H	-3.554	3.026	-0.473	 H	1	UNK0	0.000	
31	   H	-2.218	3.643	-4.467	 H	1	UNK0	0.000	
32	   H	-4.519	4.143	-5.158	 H	1	UNK0	0.000	
33	   H	-1.126	3.356	-1.001	 H	1	UNK0	0.000	
34	   H	-0.632	3.578	-2.738	 H	1	UNK0	0.000	
35	   H	1.307	2.881	-1.556	 H	1	UNK0	0.000	
36	   H	2.330	1.477	-2.015	 H	1	UNK0	0.000	
37	   H	2.798	1.558	0.277	 H	1	UNK0	0.000	
38	   H	1.190	2.221	0.626	 H	1	UNK0	0.000	
39	   H	1.669	-1.684	-0.572	 H	1	UNK0	0.000	
40	   H	-0.055	-1.435	-0.171	 H	1	UNK0	0.000	
41	   H	-0.251	-0.940	-2.486	 H	1	UNK0	0.000	
42	   H	1.482	-0.490	-2.599	 H	1	UNK0	0.000	
43	   H	1.746	1.110	4.780	 H	1	UNK0	0.000	
44	   H	1.941	1.697	2.437	 H	1	UNK0	0.000	
45	   H	-1.518	-4.067	2.883	 H	1	UNK0	0.000	
46	   H	-0.073	-3.624	1.866	 H	1	UNK0	0.000	
47	   H	1.289	-5.084	3.389	 H	1	UNK0	0.000	
48	   H	-0.018	-6.005	2.522	 H	1	UNK0	0.000	
49	   H	1.048	-5.045	5.870	 H	1	UNK0	0.000	
50	   H	-0.645	-5.069	6.415	 H	1	UNK0	0.000	
51	   H	0.623	-2.797	5.896	 H	1	UNK0	0.000	
52	   H	-1.144	-3.014	5.629	 H	1	UNK0	0.000	
@<TRIPOS>BOND
1 1 2 1
2 2 3 2
3 2 7 1
4 3 4 1
5 4 5 2
6 5 6 1
7 5 8 1
8 6 7 2
9 8 9 1
10 9 10 2
11 9 11 1
12 11 12 1
13 11 16 1
14 12 13 1
15 13 14 1
16 14 15 1
17 14 17 1
18 15 16 1
19 17 18 2
20 17 22 1
21 18 19 1
22 19 20 2
23 19 23 1
24 20 21 1
25 21 22 2
26 23 24 1
27 23 28 1
28 24 25 1
29 25 26 1
30 26 27 1
31 27 28 1
32 3 29 1
33 4 30 1
34 6 31 1
35 7 32 1
36 8 33 1
37 8 34 1
38 12 35 1
39 12 36 1
40 13 37 1
41 13 38 1
42 15 39 1
43 15 40 1
44 16 41 1
45 16 42 1
46 21 43 1
47 22 44 1
48 24 45 1
49 24 46 1
50 25 47 1
51 25 48 1
52 27 49 1
53 27 50 1
54 28 51 1
55 28 52 1
@<TRIPOS>SUBSTRUCTURE
1	UNK0	1	GROUP	1 ****	UNK
