# created with PyMOL 2.3.2
@<TRIPOS>MOLECULE
1967
45 48 1                 
SMALL
USER_CHARGES
@<TRIPOS>ATOM
1	  Br	-5.852	5.416	-0.585	Br	1	UNK0	0.000	
2	   C	-4.549	4.117	-1.128	C.2	1	UNK0	0.000	
3	   C	-3.252	4.160	-0.663	C.2	1	UNK0	0.000	
4	   N	-2.309	3.263	-1.023	N.pl3	1	UNK0	0.000	
5	   C	-2.596	2.263	-1.871	C.2	1	UNK0	0.000	
6	   N	-1.651	1.375	-2.224	N.2	1	UNK0	0.000	
7	   C	-0.382	1.428	-1.761	C.2	1	UNK0	0.000	
8	   C	-0.064	2.434	-0.897	C.2	1	UNK0	0.000	
9	   C	-1.044	3.336	-0.546	C.2	1	UNK0	0.000	
10	   O	-0.783	4.282	0.252	O.2	1	UNK0	0.000	
11	   C	0.587	0.395	-2.215	C.3	1	UNK0	0.000	
12	   O	0.483	-0.676	-1.266	O.3	1	UNK0	0.000	
13	   C	1.251	-1.822	-1.377	C.2	1	UNK0	0.000	
14	   O	2.043	-1.913	-2.323	O.co2	1	UNK0	0.000	
15	   C	1.085	-2.900	-0.344	C.3	1	UNK0	0.000	
16	   N	0.093	-2.523	0.640	N.pl3	1	UNK0	0.000	
17	   C	0.384	-1.852	1.773	C.2	1	UNK0	0.000	
18	   C	-0.789	-1.649	2.498	C.2	1	UNK0	0.000	
19	   N	-1.769	-2.212	1.771	N.2	1	UNK0	0.000	
20	   C	-1.232	-2.744	0.642	C.2	1	UNK0	0.000	
21	   N	-0.684	-0.990	3.664	N.pl3	1	UNK0	0.000	
22	   C	0.480	-0.525	4.156	C.2	1	UNK0	0.000	
23	   O	0.521	0.080	5.244	O.2	1	UNK0	0.000	
24	   N	1.602	-0.717	3.465	N.pl3	1	UNK0	0.000	
25	   C	1.577	-1.378	2.272	C.2	1	UNK0	0.000	
26	   O	2.642	-1.562	1.615	O.2	1	UNK0	0.000	
27	   C	2.906	-0.257	3.906	C.3	1	UNK0	0.000	
28	   C	-1.896	-0.760	4.449	C.3	1	UNK0	0.000	
29	   C	-3.896	2.192	-2.358	C.2	1	UNK0	0.000	
30	   C	-4.871	3.099	-2.001	C.2	1	UNK0	0.000	
31	   H	-2.982	4.946	0.019	 H	1	UNK0	0.000	
32	   H	0.946	2.483	-0.524	 H	1	UNK0	0.000	
33	   H	1.600	0.798	-2.281	 H	1	UNK0	0.000	
34	   H	0.273	0.034	-3.217	 H	1	UNK0	0.000	
35	   H	0.675	-3.777	-0.924	 H	1	UNK0	0.000	
36	   H	2.040	-3.215	0.080	 H	1	UNK0	0.000	
37	   H	-1.792	-3.255	-0.117	 H	1	UNK0	0.000	
38	   H	3.580	-1.134	3.900	 H	1	UNK0	0.000	
39	   H	3.328	0.477	3.178	 H	1	UNK0	0.000	
40	   H	2.810	0.207	4.894	 H	1	UNK0	0.000	
41	   H	-1.635	-0.552	5.519	 H	1	UNK0	0.000	
42	   H	-2.470	0.096	4.087	 H	1	UNK0	0.000	
43	   H	-2.488	-1.688	4.390	 H	1	UNK0	0.000	
44	   H	-4.127	1.389	-3.039	 H	1	UNK0	0.000	
45	   H	-5.887	3.063	-2.366	 H	1	UNK0	0.000	
@<TRIPOS>BOND
1 1 2 1
2 2 3 2
3 2 30 1
4 3 4 1
5 4 5 1
6 4 9 1
7 5 6 2
8 5 29 1
9 6 7 1
10 7 8 2
11 7 11 1
12 8 9 1
13 9 10 2
14 11 12 1
15 12 13 1
16 13 14 2
17 13 15 1
18 15 16 1
19 16 17 1
20 16 20 1
21 17 18 2
22 17 25 1
23 18 19 1
24 18 21 1
25 19 20 2
26 21 22 1
27 21 28 1
28 22 23 2
29 22 24 1
30 24 25 1
31 24 27 1
32 25 26 2
33 29 30 2
34 3 31 1
35 8 32 1
36 11 33 1
37 11 34 1
38 15 35 1
39 15 36 1
40 20 37 1
41 27 38 1
42 27 39 1
43 27 40 1
44 28 41 1
45 28 42 1
46 28 43 1
47 29 44 1
48 30 45 1
@<TRIPOS>SUBSTRUCTURE
1	UNK0	1	GROUP	1 ****	UNK
