# created with PyMOL 2.3.2
@<TRIPOS>MOLECULE
1968
41 44 1                 
SMALL
USER_CHARGES
@<TRIPOS>ATOM
1	  Br	0.881	-4.106	2.112	Br	1	UNK0	0.000	
2	   C	0.537	-2.269	1.737	C.2	1	UNK0	0.000	
3	   C	-0.541	-1.602	2.292	C.2	1	UNK0	0.000	
4	   N	-0.774	-0.306	2.020	N.pl3	1	UNK0	0.000	
5	   C	0.067	0.368	1.182	C.cat	1	UNK0	0.000	
6	   N	1.121	-0.266	0.634	N.pl3	1	UNK0	0.000	
7	   C	1.386	-1.558	0.881	C.2	1	UNK0	0.000	
8	   N	2.415	-2.121	0.327	N.2	1	UNK0	0.000	
9	   C	3.252	-1.355	-0.539	C.2	1	UNK0	0.000	
10	   C	2.963	-1.113	-1.851	C.2	1	UNK0	0.000	
11	   C	3.815	-0.367	-2.628	C.2	1	UNK0	0.000	
12	   C	4.976	0.150	-2.100	C.2	1	UNK0	0.000	
13	   C	5.265	-0.101	-0.761	C.2	1	UNK0	0.000	
14	   C	4.410	-0.846	0.010	C.2	1	UNK0	0.000	
15	   C	1.740	-1.655	-2.414	C.2	1	UNK0	0.000	
16	   O	0.927	-2.345	-1.741	O.co2	1	UNK0	0.000	
17	   O	1.452	-1.408	-3.740	O.3	1	UNK0	0.000	
18	   C	0.306	-1.872	-4.409	C.3	1	UNK0	0.000	
19	   N	-0.209	1.661	0.943	N.pl3	1	UNK0	0.000	
20	   C	-1.256	2.319	1.477	C.2	1	UNK0	0.000	
21	   C	-2.100	1.632	2.323	C.2	1	UNK0	0.000	
22	   C	-3.170	2.309	2.868	C.2	1	UNK0	0.000	
23	   C	-3.396	3.652	2.575	C.2	1	UNK0	0.000	
24	   C	-2.558	4.350	1.731	C.2	1	UNK0	0.000	
25	   C	-1.492	3.662	1.192	C.2	1	UNK0	0.000	
26	   C	-1.834	0.303	2.581	C.2	1	UNK0	0.000	
27	   O	-2.611	-0.309	3.352	O.2	1	UNK0	0.000	
28	   H	-1.190	-2.181	2.958	 H	1	UNK0	0.000	
29	   H	1.749	0.266	-0.002	 H	1	UNK0	0.000	
30	   H	3.617	-0.151	-3.686	 H	1	UNK0	0.000	
31	   H	5.643	0.739	-2.725	 H	1	UNK0	0.000	
32	   H	6.186	0.321	-0.380	 H	1	UNK0	0.000	
33	   H	4.663	-1.025	1.051	 H	1	UNK0	0.000	
34	   H	-0.496	-2.148	-3.695	 H	1	UNK0	0.000	
35	   H	0.587	-2.715	-5.069	 H	1	UNK0	0.000	
36	   H	-0.067	-1.060	-5.047	 H	1	UNK0	0.000	
37	   H	0.413	2.205	0.307	 H	1	UNK0	0.000	
38	   H	-3.832	1.789	3.524	 H	1	UNK0	0.000	
39	   H	-4.238	4.191	3.002	 H	1	UNK0	0.000	
40	   H	-2.746	5.398	1.511	 H	1	UNK0	0.000	
41	   H	-0.835	4.214	0.529	 H	1	UNK0	0.000	
@<TRIPOS>BOND
1 1 2 1
2 2 3 2
3 2 7 1
4 3 4 1
5 4 5 1
6 4 26 1
7 5 6 2
8 5 19 1
9 6 7 1
10 7 8 2
11 8 9 1
12 9 10 2
13 9 14 1
14 10 11 1
15 10 15 1
16 11 12 2
17 12 13 1
18 13 14 2
19 15 16 2
20 15 17 1
21 17 18 1
22 19 20 1
23 20 21 2
24 20 25 1
25 21 22 1
26 21 26 1
27 22 23 2
28 23 24 1
29 24 25 2
30 26 27 2
31 3 28 1
32 6 29 1
33 11 30 1
34 12 31 1
35 13 32 1
36 14 33 1
37 18 34 1
38 18 35 1
39 18 36 1
40 19 37 1
41 22 38 1
42 23 39 1
43 24 40 1
44 25 41 1
@<TRIPOS>SUBSTRUCTURE
1	UNK0	1	GROUP	1 ****	UNK
