# created with PyMOL 2.3.2
@<TRIPOS>MOLECULE
1969
42 45 1                 
SMALL
USER_CHARGES
@<TRIPOS>ATOM
1	  Cl	3.076	1.599	-4.626	Cl	1	UNK0	0.000	
2	   C	3.423	0.248	-3.593	C.2	1	UNK0	0.000	
3	   C	2.487	-0.361	-2.767	C.2	1	UNK0	0.000	
4	   C	2.815	-1.418	-1.991	C.2	1	UNK0	0.000	
5	   C	4.122	-1.856	-2.063	C.2	1	UNK0	0.000	
6	   C	5.077	-1.304	-2.848	C.2	1	UNK0	0.000	
7	   C	4.766	-0.249	-3.634	C.2	1	UNK0	0.000	
8	   N	1.906	-2.102	-1.098	N.pl3	1	UNK0	0.000	
9	   N	2.201	-3.289	-0.613	N.2	1	UNK0	0.000	
10	   N	1.281	-3.581	0.075	N.2	1	UNK0	0.000	
11	   C	0.225	-3.065	0.382	C.2	1	UNK0	0.000	
12	   C	0.731	-1.799	-0.614	C.2	1	UNK0	0.000	
13	   C	-1.037	-2.449	0.751	C.2	1	UNK0	0.000	
14	   O	-1.809	-3.552	1.102	O.2	1	UNK0	0.000	
15	   N	-1.739	-1.299	0.890	N.pl3	1	UNK0	0.000	
16	   C	-1.361	0.076	0.750	C.3	1	UNK0	0.000	
17	   C	-2.298	0.951	1.608	C.3	1	UNK0	0.000	
18	   N	-2.623	0.094	2.757	N.pl3	1	UNK0	0.000	
19	   C	-3.487	-1.022	2.558	C.3	1	UNK0	0.000	
20	   C	-3.199	-1.488	1.167	C.3	1	UNK0	0.000	
21	   C	-1.995	0.317	3.977	C.2	1	UNK0	0.000	
22	   N	-0.617	0.121	4.124	N.2	1	UNK0	0.000	
23	   C	0.065	0.322	5.196	C.2	1	UNK0	0.000	
24	   C	-0.531	0.791	6.377	C.2	1	UNK0	0.000	
25	   C	-1.900	0.982	6.243	C.2	1	UNK0	0.000	
26	   N	-2.524	0.759	5.148	N.2	1	UNK0	0.000	
27	   H	1.489	0.064	-2.718	 H	1	UNK0	0.000	
28	   H	4.351	-2.733	-1.388	 H	1	UNK0	0.000	
29	   H	6.085	-1.710	-2.854	 H	1	UNK0	0.000	
30	   H	5.426	0.244	-4.277	 H	1	UNK0	0.000	
31	   H	0.154	-0.985	-0.759	 H	1	UNK0	0.000	
32	   H	-1.586	0.437	-0.284	 H	1	UNK0	0.000	
33	   H	-0.365	0.319	1.093	 H	1	UNK0	0.000	
34	   H	-1.829	1.870	1.951	 H	1	UNK0	0.000	
35	   H	-3.214	1.166	1.011	 H	1	UNK0	0.000	
36	   H	-4.550	-0.730	2.609	 H	1	UNK0	0.000	
37	   H	-3.300	-1.809	3.363	 H	1	UNK0	0.000	
38	   H	-3.774	-1.018	0.345	 H	1	UNK0	0.000	
39	   H	-3.384	-2.572	1.144	 H	1	UNK0	0.000	
40	   H	1.143	0.114	5.299	 H	1	UNK0	0.000	
41	   H	-0.012	0.972	7.296	 H	1	UNK0	0.000	
42	   H	-2.454	1.328	7.151	 H	1	UNK0	0.000	
@<TRIPOS>BOND
1 1 2 1
2 2 3 2
3 2 7 1
4 3 4 1
5 4 5 2
6 4 8 1
7 5 6 1
8 6 7 2
9 8 9 1
10 8 12 1
11 9 10 2
12 10 11 1
13 11 12 2
14 11 13 1
15 13 14 2
16 13 15 1
17 15 16 1
18 15 20 1
19 16 17 1
20 17 18 1
21 18 19 1
22 18 21 1
23 19 20 1
24 21 22 2
25 21 26 1
26 22 23 1
27 23 24 2
28 24 25 1
29 25 26 2
30 3 27 1
31 5 28 1
32 6 29 1
33 7 30 1
34 12 31 1
35 16 32 1
36 16 33 1
37 17 34 1
38 17 35 1
39 19 36 1
40 19 37 1
41 20 38 1
42 20 39 1
43 23 40 1
44 24 41 1
45 25 42 1
@<TRIPOS>SUBSTRUCTURE
1	UNK0	1	GROUP	1 ****	UNK
