# created with PyMOL 2.3.2
@<TRIPOS>MOLECULE
1970
40 43 1                 
SMALL
USER_CHARGES
@<TRIPOS>ATOM
1	  Cl	-6.186	3.950	2.992	Cl	1	UNK0	0.000	
2	   C	-4.469	3.833	2.657	C.2	1	UNK0	0.000	
3	   C	-4.029	3.204	1.502	C.2	1	UNK0	0.000	
4	   C	-2.685	3.093	1.206	C.2	1	UNK0	0.000	
5	   C	-1.809	3.640	2.121	C.2	1	UNK0	0.000	
6	   C	-2.240	4.267	3.272	C.2	1	UNK0	0.000	
7	   C	-3.584	4.376	3.565	C.2	1	UNK0	0.000	
8	   N	-2.204	2.453	0.026	N.pl3	1	UNK0	0.000	
9	   N	-2.613	2.670	-1.205	N.2	1	UNK0	0.000	
10	   N	-1.957	1.905	-2.072	N.2	1	UNK0	0.000	
11	   C	-1.067	1.138	-1.395	C.2	1	UNK0	0.000	
12	   C	-1.248	1.508	-0.072	C.2	1	UNK0	0.000	
13	   N	-0.471	0.884	0.827	N.2	1	UNK0	0.000	
14	   C	0.428	-0.045	0.454	C.2	1	UNK0	0.000	
15	   N	0.618	-0.420	-0.838	N.pl3	1	UNK0	0.000	
16	   C	-0.142	0.184	-1.766	C.2	1	UNK0	0.000	
17	   O	0.015	-0.144	-2.964	O.2	1	UNK0	0.000	
18	   C	1.606	-1.428	-1.160	C.3	1	UNK0	0.000	
19	   C	1.015	-2.791	-1.136	C.2	1	UNK0	0.000	
20	   O	-0.228	-2.876	-0.846	O.2	1	UNK0	0.000	
21	   N	1.780	-3.955	-1.418	N.pl3	1	UNK0	0.000	
22	   C	1.123	-5.251	-1.372	C.3	1	UNK0	0.000	
23	   C	2.077	-6.348	-1.694	C.2	1	UNK0	0.000	
24	   O	2.356	-6.858	-2.863	O.3	1	UNK0	0.000	
25	   C	3.242	-7.812	-2.791	C.2	1	UNK0	0.000	
26	   C	3.607	-7.977	-1.457	C.2	1	UNK0	0.000	
27	   C	2.854	-7.037	-0.782	C.2	1	UNK0	0.000	
28	   H	-4.730	2.780	0.793	 H	1	UNK0	0.000	
29	   H	-0.738	3.570	1.917	 H	1	UNK0	0.000	
30	   H	-1.519	4.689	3.975	 H	1	UNK0	0.000	
31	   H	-3.908	4.870	4.472	 H	1	UNK0	0.000	
32	   H	1.028	-0.516	1.231	 H	1	UNK0	0.000	
33	   H	2.408	-1.386	-0.386	 H	1	UNK0	0.000	
34	   H	2.023	-1.165	-2.153	 H	1	UNK0	0.000	
35	   H	2.776	-3.837	-1.646	 H	1	UNK0	0.000	
36	   H	0.338	-5.239	-2.158	 H	1	UNK0	0.000	
37	   H	0.685	-5.385	-0.369	 H	1	UNK0	0.000	
38	   H	3.668	-8.415	-3.583	 H	1	UNK0	0.000	
39	   H	4.328	-8.694	-1.059	 H	1	UNK0	0.000	
40	   H	2.897	-6.895	0.293	 H	1	UNK0	0.000	
@<TRIPOS>BOND
1 1 2 1
2 2 3 2
3 2 7 1
4 3 4 1
5 4 5 2
6 4 8 1
7 5 6 1
8 6 7 2
9 8 9 1
10 8 12 1
11 9 10 2
12 10 11 1
13 11 12 2
14 11 16 1
15 12 13 1
16 13 14 2
17 14 15 1
18 15 16 1
19 15 18 1
20 16 17 2
21 18 19 1
22 19 20 2
23 19 21 1
24 21 22 1
25 22 23 1
26 23 24 1
27 23 27 2
28 24 25 1
29 25 26 2
30 26 27 1
31 3 28 1
32 5 29 1
33 6 30 1
34 7 31 1
35 14 32 1
36 18 33 1
37 18 34 1
38 21 35 1
39 22 36 1
40 22 37 1
41 25 38 1
42 26 39 1
43 27 40 1
@<TRIPOS>SUBSTRUCTURE
1	UNK0	1	GROUP	1 ****	UNK
