# created with PyMOL 2.3.2
@<TRIPOS>MOLECULE
1971
33 36 1                 
SMALL
USER_CHARGES
@<TRIPOS>ATOM
1	  Cl	2.416	-0.673	-4.508	Cl	1	UNK0	0.000	
2	   C	1.398	0.429	-3.607	C.2	1	UNK0	0.000	
3	   C	0.662	0.008	-2.520	C.2	1	UNK0	0.000	
4	   C	-0.147	0.871	-1.798	C.2	1	UNK0	0.000	
5	   C	-0.188	2.186	-2.217	C.2	1	UNK0	0.000	
6	   C	0.553	2.611	-3.312	C.2	1	UNK0	0.000	
7	   C	1.357	1.744	-4.024	C.2	1	UNK0	0.000	
8	   N	-0.908	0.438	-0.677	N.pl3	1	UNK0	0.000	
9	   C	-0.872	0.940	0.672	C.2	1	UNK0	0.000	
10	   O	-0.065	1.804	1.089	O.2	1	UNK0	0.000	
11	   C	-1.911	0.291	1.467	C.3	1	UNK0	0.000	
12	   C	-1.422	-0.704	2.467	C.3	1	UNK0	0.000	
13	   O	-2.563	-1.540	2.565	O.3	1	UNK0	0.000	
14	   C	-2.579	-1.951	1.207	C.3	1	UNK0	0.000	
15	   C	-2.687	-0.621	0.503	C.3	1	UNK0	0.000	
16	   C	-1.868	-0.612	-0.711	C.2	1	UNK0	0.000	
17	   O	-1.981	-1.414	-1.670	O.2	1	UNK0	0.000	
18	   C	-1.190	-2.432	1.053	C.2	1	UNK0	0.000	
19	   C	-0.454	-1.660	1.885	C.2	1	UNK0	0.000	
20	   C	-1.031	-0.140	3.787	C.3	1	UNK0	0.000	
21	   O	-0.734	-1.177	4.662	O.3	1	UNK0	0.000	
22	   H	0.690	-1.028	-2.183	 H	1	UNK0	0.000	
23	   H	-0.818	2.880	-1.663	 H	1	UNK0	0.000	
24	   H	0.512	3.650	-3.629	 H	1	UNK0	0.000	
25	   H	1.928	2.096	-4.878	 H	1	UNK0	0.000	
26	   H	-2.597	0.989	1.976	 H	1	UNK0	0.000	
27	   H	-3.358	-2.658	0.984	 H	1	UNK0	0.000	
28	   H	-3.713	-0.279	0.354	 H	1	UNK0	0.000	
29	   H	-0.813	-3.216	0.432	 H	1	UNK0	0.000	
30	   H	0.608	-1.747	2.066	 H	1	UNK0	0.000	
31	   H	-1.928	0.398	4.190	 H	1	UNK0	0.000	
32	   H	-0.221	0.602	3.731	 H	1	UNK0	0.000	
33	   H	-0.878	-2.047	4.223	 H	1	UNK0	0.000	
@<TRIPOS>BOND
1 1 2 1
2 2 3 2
3 2 7 1
4 3 4 1
5 4 5 2
6 4 8 1
7 5 6 1
8 6 7 2
9 8 9 1
10 8 16 1
11 9 10 2
12 9 11 1
13 11 12 1
14 11 15 1
15 12 13 1
16 12 19 1
17 12 20 1
18 13 14 1
19 14 15 1
20 14 18 1
21 15 16 1
22 16 17 2
23 18 19 2
24 20 21 1
25 3 22 1
26 5 23 1
27 6 24 1
28 7 25 1
29 11 26 1
30 14 27 1
31 15 28 1
32 18 29 1
33 19 30 1
34 20 31 1
35 20 32 1
36 21 33 1
@<TRIPOS>SUBSTRUCTURE
1	UNK0	1	GROUP	1 ****	UNK
