# created with PyMOL 2.3.2
@<TRIPOS>MOLECULE
1972
40 43 1                 
SMALL
USER_CHARGES
@<TRIPOS>ATOM
1	  Cl	4.313	4.149	0.180	Cl	1	UNK0	0.000	
2	   C	2.870	3.793	-0.766	C.2	1	UNK0	0.000	
3	   C	1.809	3.110	-0.215	C.2	1	UNK0	0.000	
4	   C	0.665	2.819	-0.945	C.2	1	UNK0	0.000	
5	   C	0.608	3.241	-2.278	C.2	1	UNK0	0.000	
6	   N	-0.585	2.840	-2.737	N.pl3	1	UNK0	0.000	
7	   C	-1.274	2.193	-1.764	C.2	1	UNK0	0.000	
8	   C	-0.505	2.170	-0.635	C.2	1	UNK0	0.000	
9	   C	-1.009	1.529	0.577	C.3	1	UNK0	0.000	
10	   N	-1.956	0.505	0.175	N.3	1	UNK0	0.000	
11	   C	-3.089	1.187	-0.423	C.3	1	UNK0	0.000	
12	   C	-2.633	1.581	-1.833	C.3	1	UNK0	0.000	
13	   C	-2.309	-0.391	1.201	C.3	1	UNK0	0.000	
14	   C	-1.350	-1.372	1.650	C.2	1	UNK0	0.000	
15	   O	-1.780	-2.069	2.681	O.2	1	UNK0	0.000	
16	   N	-0.076	-1.725	1.213	N.pl3	1	UNK0	0.000	
17	   C	0.784	-1.326	0.117	C.3	1	UNK0	0.000	
18	   C	2.098	-1.097	0.862	C.3	1	UNK0	0.000	
19	   N	2.145	-2.313	1.679	N.pl3	1	UNK0	0.000	
20	   C	0.775	-2.695	1.895	C.2	1	UNK0	0.000	
21	   O	0.436	-3.697	2.562	O.2	1	UNK0	0.000	
22	   C	1.666	3.920	-2.824	C.2	1	UNK0	0.000	
23	   C	2.816	4.211	-2.085	C.2	1	UNK0	0.000	
24	   H	1.911	2.805	0.823	 H	1	UNK0	0.000	
25	   H	-0.937	3.004	-3.705	 H	1	UNK0	0.000	
26	   H	-0.224	1.149	1.252	 H	1	UNK0	0.000	
27	   H	-1.585	2.319	1.145	 H	1	UNK0	0.000	
28	   H	-3.980	0.559	-0.433	 H	1	UNK0	0.000	
29	   H	-3.306	2.146	0.093	 H	1	UNK0	0.000	
30	   H	-3.315	2.289	-2.310	 H	1	UNK0	0.000	
31	   H	-2.589	0.650	-2.426	 H	1	UNK0	0.000	
32	   H	-3.214	-0.971	0.813	 H	1	UNK0	0.000	
33	   H	-2.713	0.155	2.097	 H	1	UNK0	0.000	
34	   H	0.461	-0.514	-0.503	 H	1	UNK0	0.000	
35	   H	1.016	-2.250	-0.513	 H	1	UNK0	0.000	
36	   H	1.989	-0.249	1.530	 H	1	UNK0	0.000	
37	   H	2.954	-1.056	0.164	 H	1	UNK0	0.000	
38	   H	2.982	-2.814	2.039	 H	1	UNK0	0.000	
39	   H	1.660	4.259	-3.845	 H	1	UNK0	0.000	
40	   H	3.645	4.748	-2.521	 H	1	UNK0	0.000	
@<TRIPOS>BOND
1 1 2 1
2 2 3 2
3 2 23 1
4 3 4 1
5 4 5 2
6 4 8 1
7 5 6 1
8 5 22 1
9 6 7 1
10 7 8 2
11 7 12 1
12 8 9 1
13 9 10 1
14 10 11 1
15 10 13 1
16 11 12 1
17 13 14 1
18 14 15 2
19 14 16 1
20 16 17 1
21 16 20 1
22 17 18 1
23 18 19 1
24 19 20 1
25 20 21 2
26 22 23 2
27 3 24 1
28 6 25 1
29 9 26 1
30 9 27 1
31 11 28 1
32 11 29 1
33 12 30 1
34 12 31 1
35 13 32 1
36 13 33 1
37 17 34 1
38 17 35 1
39 18 36 1
40 18 37 1
41 19 38 1
42 22 39 1
43 23 40 1
@<TRIPOS>SUBSTRUCTURE
1	UNK0	1	GROUP	1 ****	UNK
