# created with PyMOL 2.3.2
@<TRIPOS>MOLECULE
1973
42 45 1                 
SMALL
USER_CHARGES
@<TRIPOS>ATOM
1	  Cl	4.827	5.287	-3.746	Cl	1	UNK0	0.000	
2	   C	3.616	4.736	-2.589	C.2	1	UNK0	0.000	
3	   C	3.747	3.545	-1.905	C.2	1	UNK0	0.000	
4	   N	2.828	3.105	-1.012	N.pl3	1	UNK0	0.000	
5	   C	1.717	3.813	-0.736	C.2	1	UNK0	0.000	
6	   N	0.784	3.388	0.156	N.2	1	UNK0	0.000	
7	   C	0.904	2.228	0.827	C.2	1	UNK0	0.000	
8	   C	2.047	1.484	0.553	C.2	1	UNK0	0.000	
9	   C	2.181	0.202	1.293	C.3	1	UNK0	0.000	
10	   N	0.861	-0.433	1.205	N.pl3	1	UNK0	0.000	
11	   C	-0.249	0.257	1.799	C.3	1	UNK0	0.000	
12	   C	-0.107	1.753	1.806	C.3	1	UNK0	0.000	
13	   C	0.702	-1.674	0.550	C.2	1	UNK0	0.000	
14	   O	1.750	-2.198	0.041	O.2	1	UNK0	0.000	
15	   C	-0.602	-2.365	0.441	C.3	1	UNK0	0.000	
16	   C	-1.139	-2.790	1.790	C.3	1	UNK0	0.000	
17	   C	0.057	-3.339	2.557	C.3	1	UNK0	0.000	
18	   O	0.890	-4.055	1.699	O.3	1	UNK0	0.000	
19	   C	0.161	-4.670	0.672	C.3	1	UNK0	0.000	
20	   C	-0.373	-3.670	-0.336	C.3	1	UNK0	0.000	
21	   C	2.976	1.940	-0.356	C.2	1	UNK0	0.000	
22	   O	4.014	1.240	-0.589	O.2	1	UNK0	0.000	
23	   C	1.566	5.012	-1.413	C.2	1	UNK0	0.000	
24	   C	2.487	5.482	-2.326	C.2	1	UNK0	0.000	
25	   H	4.630	2.940	-2.096	 H	1	UNK0	0.000	
26	   H	2.473	0.420	2.325	 H	1	UNK0	0.000	
27	   H	2.934	-0.465	0.850	 H	1	UNK0	0.000	
28	   H	-1.196	0.038	1.254	 H	1	UNK0	0.000	
29	   H	-0.335	-0.139	2.853	 H	1	UNK0	0.000	
30	   H	0.231	2.109	2.823	 H	1	UNK0	0.000	
31	   H	-1.060	2.274	1.576	 H	1	UNK0	0.000	
32	   H	-1.324	-1.717	-0.104	 H	1	UNK0	0.000	
33	   H	-1.797	-3.686	1.605	 H	1	UNK0	0.000	
34	   H	-1.691	-2.027	2.330	 H	1	UNK0	0.000	
35	   H	0.638	-2.475	2.920	 H	1	UNK0	0.000	
36	   H	-0.249	-3.929	3.439	 H	1	UNK0	0.000	
37	   H	0.872	-5.325	0.128	 H	1	UNK0	0.000	
38	   H	-0.635	-5.325	1.071	 H	1	UNK0	0.000	
39	   H	0.295	-3.517	-1.188	 H	1	UNK0	0.000	
40	   H	-1.391	-4.028	-0.615	 H	1	UNK0	0.000	
41	   H	0.667	5.591	-1.194	 H	1	UNK0	0.000	
42	   H	2.362	6.423	-2.852	 H	1	UNK0	0.000	
@<TRIPOS>BOND
1 1 2 1
2 2 3 2
3 2 24 1
4 3 4 1
5 4 5 1
6 4 21 1
7 5 6 2
8 5 23 1
9 6 7 1
10 7 8 2
11 7 12 1
12 8 9 1
13 8 21 1
14 9 10 1
15 10 11 1
16 10 13 1
17 11 12 1
18 13 14 2
19 13 15 1
20 15 16 1
21 15 20 1
22 16 17 1
23 17 18 1
24 18 19 1
25 19 20 1
26 21 22 2
27 23 24 2
28 3 25 1
29 9 26 1
30 9 27 1
31 11 28 1
32 11 29 1
33 12 30 1
34 12 31 1
35 15 32 1
36 16 33 1
37 16 34 1
38 17 35 1
39 17 36 1
40 19 37 1
41 19 38 1
42 20 39 1
43 20 40 1
44 23 41 1
45 24 42 1
@<TRIPOS>SUBSTRUCTURE
1	UNK0	1	GROUP	1 ****	UNK
