# created with PyMOL 2.3.2
@<TRIPOS>MOLECULE
1975
39 42 1                 
SMALL
USER_CHARGES
@<TRIPOS>ATOM
1	   I	7.278	-0.145	1.422	 I	1	UNK0	0.000	
2	   C	5.179	-0.388	1.276	C.2	1	UNK0	0.000	
3	   C	4.644	-1.649	1.255	C.2	1	UNK0	0.000	
4	   C	3.286	-1.841	1.161	C.2	1	UNK0	0.000	
5	   C	2.454	-0.757	1.089	C.2	1	UNK0	0.000	
6	   C	2.948	0.517	1.107	C.2	1	UNK0	0.000	
7	   C	4.327	0.677	1.203	C.2	1	UNK0	0.000	
8	   C	2.080	1.727	1.030	C.3	1	UNK0	0.000	
9	   N	0.930	1.611	1.906	N.pl3	1	UNK0	0.000	
10	   C	-0.341	1.097	1.432	C.2	1	UNK0	0.000	
11	   S	-1.760	0.508	2.192	S.3	1	UNK0	0.000	
12	   C	-2.685	0.147	0.815	C.2	1	UNK0	0.000	
13	   C	-1.855	0.498	-0.219	C.2	1	UNK0	0.000	
14	   C	-0.646	0.989	0.106	C.2	1	UNK0	0.000	
15	   C	0.423	1.438	-0.828	C.2	1	UNK0	0.000	
16	   O	0.262	1.387	-2.084	O.2	1	UNK0	0.000	
17	   N	1.635	1.928	-0.321	N.pl3	1	UNK0	0.000	
18	   C	-2.522	0.242	-1.572	C.3	1	UNK0	0.000	
19	   C	-2.894	-1.245	-1.504	C.3	1	UNK0	0.000	
20	   N	-3.906	-1.484	-0.511	N.4	1	UNK0	0.000	
21	   C	-4.035	-0.400	0.438	C.3	1	UNK0	0.000	
22	   C	-3.583	-2.716	0.202	C.3	1	UNK0	0.000	
23	   O	5.504	-2.761	1.330	O.2	1	UNK0	0.000	
24	   H	2.880	-2.850	1.145	 H	1	UNK0	0.000	
25	   H	1.373	-0.882	1.014	 H	1	UNK0	0.000	
26	   H	4.754	1.676	1.220	 H	1	UNK0	0.000	
27	   H	2.683	2.618	1.344	 H	1	UNK0	0.000	
28	   H	0.968	1.888	2.896	 H	1	UNK0	0.000	
29	   H	2.263	2.479	-0.969	 H	1	UNK0	0.000	
30	   H	-3.431	0.862	-1.598	 H	1	UNK0	0.000	
31	   H	-1.834	0.407	-2.393	 H	1	UNK0	0.000	
32	   H	-3.206	-1.571	-2.531	 H	1	UNK0	0.000	
33	   H	-1.971	-1.789	-1.214	 H	1	UNK0	0.000	
34	   H	-4.823	-1.603	-0.995	 H	1	UNK0	0.000	
35	   H	-4.486	-0.799	1.357	 H	1	UNK0	0.000	
36	   H	-4.644	0.388	-0.027	 H	1	UNK0	0.000	
37	   H	-4.435	-3.399	0.201	 H	1	UNK0	0.000	
38	   H	-2.675	-3.197	-0.251	 H	1	UNK0	0.000	
39	   H	-3.309	-2.460	1.247	 H	1	UNK0	0.000	
@<TRIPOS>BOND
1 1 2 1
2 2 3 2
3 2 7 1
4 3 4 1
5 3 23 1
6 4 5 2
7 5 6 1
8 6 7 2
9 6 8 1
10 8 9 1
11 8 17 1
12 9 10 1
13 10 11 1
14 10 14 2
15 11 12 1
16 12 13 2
17 12 21 1
18 13 14 1
19 13 18 1
20 14 15 1
21 15 16 2
22 15 17 1
23 18 19 1
24 19 20 1
25 20 21 1
26 20 22 1
27 4 24 1
28 5 25 1
29 7 26 1
30 8 27 1
31 9 28 1
32 17 29 1
33 18 30 1
34 18 31 1
35 19 32 1
36 19 33 1
37 20 34 1
38 21 35 1
39 21 36 1
40 22 37 1
41 22 38 1
42 22 39 1
@<TRIPOS>SUBSTRUCTURE
1	UNK0	1	GROUP	1 ****	UNK
