# created with PyMOL 2.3.2
@<TRIPOS>MOLECULE
1976
41 44 1                 
SMALL
USER_CHARGES
@<TRIPOS>ATOM
1	  Cl	3.561	0.358	-1.499	Cl	1	UNK0	0.000	
2	   C	2.840	1.422	-0.321	C.2	1	UNK0	0.000	
3	   C	3.292	2.720	-0.143	C.2	1	UNK0	0.000	
4	   C	2.732	3.576	0.787	C.2	1	UNK0	0.000	
5	   C	1.685	3.096	1.551	C.2	1	UNK0	0.000	
6	   C	1.247	1.799	1.360	C.2	1	UNK0	0.000	
7	   C	1.795	0.928	0.435	C.2	1	UNK0	0.000	
8	   C	1.273	-0.463	0.273	C.3	1	UNK0	0.000	
9	   C	0.424	-0.559	-0.958	C.2	1	UNK0	0.000	
10	   O	0.287	0.504	-1.658	O.2	1	UNK0	0.000	
11	   N	-0.198	-1.781	-1.326	N.pl3	1	UNK0	0.000	
12	   C	-0.007	-2.930	-0.513	C.3	1	UNK0	0.000	
13	   C	0.373	-4.101	-1.428	C.3	1	UNK0	0.000	
14	   C	-0.869	-4.275	-2.276	C.2	1	UNK0	0.000	
15	   C	-1.516	-3.159	-2.765	C.2	1	UNK0	0.000	
16	   N	-2.640	-3.338	-3.516	N.2	1	UNK0	0.000	
17	   C	-3.139	-4.552	-3.797	C.2	1	UNK0	0.000	
18	   N	-2.496	-5.629	-3.312	N.2	1	UNK0	0.000	
19	   C	-1.365	-5.516	-2.554	C.2	1	UNK0	0.000	
20	   O	-0.702	-6.622	-2.054	O.3	1	UNK0	0.000	
21	   C	-1.005	-1.800	-2.499	C.3	1	UNK0	0.000	
22	   O	1.126	3.951	2.478	O.3	1	UNK0	0.000	
23	   C	1.257	5.358	2.464	C.3	1	UNK0	0.000	
24	   C	2.369	5.864	1.615	C.3	1	UNK0	0.000	
25	   O	3.142	4.868	1.002	O.3	1	UNK0	0.000	
26	   H	4.105	3.115	-0.726	 H	1	UNK0	0.000	
27	   H	0.422	1.430	1.967	 H	1	UNK0	0.000	
28	   H	0.667	-0.678	1.180	 H	1	UNK0	0.000	
29	   H	2.068	-1.209	0.240	 H	1	UNK0	0.000	
30	   H	-0.953	-3.235	0.022	 H	1	UNK0	0.000	
31	   H	0.744	-2.802	0.290	 H	1	UNK0	0.000	
32	   H	0.606	-5.007	-0.868	 H	1	UNK0	0.000	
33	   H	1.230	-3.760	-2.040	 H	1	UNK0	0.000	
34	   H	-4.039	-4.678	-4.399	 H	1	UNK0	0.000	
35	   H	0.223	-6.825	-2.414	 H	1	UNK0	0.000	
36	   H	-0.441	-1.399	-3.387	 H	1	UNK0	0.000	
37	   H	-1.903	-1.139	-2.420	 H	1	UNK0	0.000	
38	   H	0.295	5.751	2.020	 H	1	UNK0	0.000	
39	   H	1.265	5.752	3.499	 H	1	UNK0	0.000	
40	   H	2.017	6.544	0.799	 H	1	UNK0	0.000	
41	   H	3.027	6.510	2.262	 H	1	UNK0	0.000	
@<TRIPOS>BOND
1 1 2 1
2 2 3 2
3 2 7 1
4 3 4 1
5 4 5 2
6 4 25 1
7 5 6 1
8 5 22 1
9 6 7 2
10 7 8 1
11 8 9 1
12 9 10 2
13 9 11 1
14 11 12 1
15 11 21 1
16 12 13 1
17 13 14 1
18 14 15 2
19 14 19 1
20 15 16 1
21 15 21 1
22 16 17 2
23 17 18 1
24 18 19 2
25 19 20 1
26 22 23 1
27 23 24 1
28 24 25 1
29 3 26 1
30 6 27 1
31 8 28 1
32 8 29 1
33 12 30 1
34 12 31 1
35 13 32 1
36 13 33 1
37 17 34 1
38 20 35 1
39 21 36 1
40 21 37 1
41 23 38 1
42 23 39 1
43 24 40 1
44 24 41 1
@<TRIPOS>SUBSTRUCTURE
1	UNK0	1	GROUP	1 ****	UNK
