# created with PyMOL 2.3.2
@<TRIPOS>MOLECULE
1981
43 46 1                 
SMALL
USER_CHARGES
@<TRIPOS>ATOM
1	  Cl	-2.863	-2.771	1.028	Cl	1	UNK0	0.000	
2	   C	-2.629	-1.129	1.555	C.2	1	UNK0	0.000	
3	   C	-1.835	-0.869	2.686	C.2	1	UNK0	0.000	
4	   C	-1.736	0.431	3.086	C.2	1	UNK0	0.000	
5	   C	-2.388	1.445	2.428	C.2	1	UNK0	0.000	
6	   C	-3.174	1.193	1.306	C.2	1	UNK0	0.000	
7	   C	-3.276	-0.104	0.875	C.2	1	UNK0	0.000	
8	   C	-3.964	-0.497	-0.415	C.3	1	UNK0	0.000	
9	   N	-3.179	-0.054	-1.529	N.3	1	UNK0	0.000	
10	   C	-2.813	1.222	-1.821	C.3	1	UNK0	0.000	
11	   C	-1.441	1.368	-2.471	C.3	1	UNK0	0.000	
12	   C	-0.546	0.177	-2.310	C.3	1	UNK0	0.000	
13	   N	0.590	0.308	-3.252	N.3	1	UNK0	0.000	
14	   C	1.854	0.484	-2.559	C.3	1	UNK0	0.000	
15	   C	2.209	-0.713	-1.659	C.3	1	UNK0	0.000	
16	   N	1.113	-0.745	-0.698	N.pl3	1	UNK0	0.000	
17	   C	-0.000	0.152	-0.942	C.2	1	UNK0	0.000	
18	   O	-0.450	0.855	-0.010	O.2	1	UNK0	0.000	
19	   C	-1.311	-1.015	-2.772	C.3	1	UNK0	0.000	
20	   C	-2.715	-1.142	-2.335	C.3	1	UNK0	0.000	
21	   O	-2.060	2.617	3.136	O.3	1	UNK0	0.000	
22	   C	-0.737	2.360	3.704	C.3	1	UNK0	0.000	
23	   O	-1.008	1.014	4.162	O.3	1	UNK0	0.000	
24	   H	-1.354	-1.715	3.163	 H	1	UNK0	0.000	
25	   H	-3.712	2.000	0.844	 H	1	UNK0	0.000	
26	   H	-4.288	-1.519	-0.420	 H	1	UNK0	0.000	
27	   H	-4.890	0.218	-0.427	 H	1	UNK0	0.000	
28	   H	-3.546	1.755	-2.535	 H	1	UNK0	0.000	
29	   H	-2.781	1.901	-0.947	 H	1	UNK0	0.000	
30	   H	-0.879	2.236	-2.014	 H	1	UNK0	0.000	
31	   H	-1.588	1.618	-3.547	 H	1	UNK0	0.000	
32	   H	0.682	-0.508	-3.874	 H	1	UNK0	0.000	
33	   H	1.839	1.374	-1.895	 H	1	UNK0	0.000	
34	   H	2.634	0.649	-3.305	 H	1	UNK0	0.000	
35	   H	2.354	-1.639	-2.182	 H	1	UNK0	0.000	
36	   H	3.088	-0.368	-1.072	 H	1	UNK0	0.000	
37	   H	1.087	-1.340	0.145	 H	1	UNK0	0.000	
38	   H	-1.372	-0.881	-3.911	 H	1	UNK0	0.000	
39	   H	-0.741	-1.983	-2.703	 H	1	UNK0	0.000	
40	   H	-3.463	-1.269	-3.174	 H	1	UNK0	0.000	
41	   H	-2.798	-2.082	-1.729	 H	1	UNK0	0.000	
42	   H	-0.062	2.268	2.820	 H	1	UNK0	0.000	
43	   H	-0.456	3.048	4.465	 H	1	UNK0	0.000	
@<TRIPOS>BOND
1 1 2 1
2 2 3 2
3 2 7 1
4 3 4 1
5 4 5 2
6 4 23 1
7 5 6 1
8 5 21 1
9 6 7 2
10 7 8 1
11 8 9 1
12 9 10 1
13 9 20 1
14 10 11 1
15 11 12 1
16 12 13 1
17 12 17 1
18 12 19 1
19 13 14 1
20 14 15 1
21 15 16 1
22 16 17 1
23 17 18 2
24 19 20 1
25 21 22 1
26 22 23 1
27 3 24 1
28 6 25 1
29 8 26 1
30 8 27 1
31 10 28 1
32 10 29 1
33 11 30 1
34 11 31 1
35 13 32 1
36 14 33 1
37 14 34 1
38 15 35 1
39 15 36 1
40 16 37 1
41 19 38 1
42 19 39 1
43 20 40 1
44 20 41 1
45 22 42 1
46 22 43 1
@<TRIPOS>SUBSTRUCTURE
1	UNK0	1	GROUP	1 ****	UNK
