# created with PyMOL 2.3.2
@<TRIPOS>MOLECULE
1982
36 39 1                 
SMALL
USER_CHARGES
@<TRIPOS>ATOM
1	  Cl	2.892	4.327	1.869	Cl	1	UNK0	0.000	
2	   C	1.442	3.346	1.863	C.2	1	UNK0	0.000	
3	   C	1.324	2.195	1.112	C.2	1	UNK0	0.000	
4	   C	0.187	1.413	1.097	C.2	1	UNK0	0.000	
5	   C	-0.877	1.818	1.880	C.2	1	UNK0	0.000	
6	   C	-0.771	2.967	2.636	C.2	1	UNK0	0.000	
7	   C	0.366	3.749	2.650	C.2	1	UNK0	0.000	
8	   C	-2.106	0.995	1.881	C.2	1	UNK0	0.000	
9	   N	-3.203	1.139	2.497	N.2	1	UNK0	0.000	
10	   C	-4.166	0.095	2.217	C.3	1	UNK0	0.000	
11	   C	-3.475	-0.815	1.255	C.3	1	UNK0	0.000	
12	   N	-2.180	-0.183	1.090	N.pl3	1	UNK0	0.000	
13	   C	-1.036	-0.531	0.310	C.2	1	UNK0	0.000	
14	   N	-0.821	-1.569	-0.518	N.2	1	UNK0	0.000	
15	   N	0.390	-1.510	-1.045	N.pl3	1	UNK0	0.000	
16	   C	0.947	-0.390	-0.522	C.2	1	UNK0	0.000	
17	   O	2.105	-0.009	-0.799	O.2	1	UNK0	0.000	
18	   N	0.092	0.226	0.311	N.pl3	1	UNK0	0.000	
19	   C	0.989	-2.443	-1.980	C.3	1	UNK0	0.000	
20	   C	1.718	-3.544	-1.197	C.3	1	UNK0	0.000	
21	   C	2.340	-4.511	-2.136	C.2	1	UNK0	0.000	
22	   O	2.272	-4.428	-3.388	O.2	1	UNK0	0.000	
23	   N	3.059	-5.602	-1.584	N.pl3	1	UNK0	0.000	
24	   H	2.176	1.909	0.512	 H	1	UNK0	0.000	
25	   H	-1.620	3.256	3.237	 H	1	UNK0	0.000	
26	   H	0.452	4.654	3.243	 H	1	UNK0	0.000	
27	   H	-5.108	0.506	1.802	 H	1	UNK0	0.000	
28	   H	-4.366	-0.411	3.195	 H	1	UNK0	0.000	
29	   H	-4.017	-0.942	0.299	 H	1	UNK0	0.000	
30	   H	-3.343	-1.831	1.727	 H	1	UNK0	0.000	
31	   H	0.173	-2.970	-2.526	 H	1	UNK0	0.000	
32	   H	1.685	-1.958	-2.664	 H	1	UNK0	0.000	
33	   H	1.016	-4.074	-0.527	 H	1	UNK0	0.000	
34	   H	2.546	-3.110	-0.584	 H	1	UNK0	0.000	
35	   H	2.767	-6.106	-0.727	 H	1	UNK0	0.000	
36	   H	3.927	-5.907	-2.071	 H	1	UNK0	0.000	
@<TRIPOS>BOND
1 1 2 1
2 2 3 2
3 2 7 1
4 3 4 1
5 4 5 2
6 4 18 1
7 5 6 1
8 5 8 1
9 6 7 2
10 8 9 2
11 8 12 1
12 9 10 1
13 10 11 1
14 11 12 1
15 12 13 1
16 13 14 2
17 13 18 1
18 14 15 1
19 15 16 1
20 15 19 1
21 16 17 2
22 16 18 1
23 19 20 1
24 20 21 1
25 21 22 2
26 21 23 1
27 3 24 1
28 6 25 1
29 7 26 1
30 10 27 1
31 10 28 1
32 11 29 1
33 11 30 1
34 19 31 1
35 19 32 1
36 20 33 1
37 20 34 1
38 23 35 1
39 23 36 1
@<TRIPOS>SUBSTRUCTURE
1	UNK0	1	GROUP	1 ****	UNK
