# created with PyMOL 2.3.2
@<TRIPOS>MOLECULE
1983
58 61 1                 
SMALL
USER_CHARGES
@<TRIPOS>ATOM
1	  Cl	-2.680	6.382	-5.821	Cl	1	UNK0	0.000	
2	   C	-2.712	5.780	-4.181	C.2	1	UNK0	0.000	
3	   C	-1.561	5.550	-3.471	C.2	1	UNK0	0.000	
4	   C	-1.575	5.070	-2.159	C.2	1	UNK0	0.000	
5	   N	-0.641	4.767	-1.264	N.2	1	UNK0	0.000	
6	   C	-1.223	4.341	-0.140	C.2	1	UNK0	0.000	
7	   N	-2.546	4.376	-0.327	N.pl3	1	UNK0	0.000	
8	   C	-2.786	4.820	-1.559	C.2	1	UNK0	0.000	
9	   C	-3.950	5.060	-2.296	C.2	1	UNK0	0.000	
10	   C	-3.940	5.532	-3.585	C.2	1	UNK0	0.000	
11	   C	-3.584	4.003	0.623	C.3	1	UNK0	0.000	
12	   C	-0.539	3.899	1.125	C.3	1	UNK0	0.000	
13	   C	-0.303	2.406	1.018	C.3	1	UNK0	0.000	
14	   C	0.370	1.872	2.228	C.2	1	UNK0	0.000	
15	   O	0.662	2.723	3.141	O.2	1	UNK0	0.000	
16	   N	0.677	0.516	2.384	N.pl3	1	UNK0	0.000	
17	   C	0.323	-0.372	1.317	C.3	1	UNK0	0.000	
18	   C	1.549	-0.948	0.751	C.3	1	UNK0	0.000	
19	   C	2.365	-1.930	1.438	C.3	1	UNK0	0.000	
20	   C	2.529	-1.944	2.899	C.3	1	UNK0	0.000	
21	   C	1.436	-1.373	3.738	C.3	1	UNK0	0.000	
22	   C	1.314	0.129	3.609	C.3	1	UNK0	0.000	
23	   O	3.711	-1.288	3.339	O.3	1	UNK0	0.000	
24	   N	2.168	-3.281	0.941	N.3	1	UNK0	0.000	
25	   C	0.935	-3.892	1.064	C.3	1	UNK0	0.000	
26	   C	0.649	-4.676	-0.228	C.3	1	UNK0	0.000	
27	   O	1.652	-5.574	-0.500	O.3	1	UNK0	0.000	
28	   C	2.923	-5.032	-0.468	C.3	1	UNK0	0.000	
29	   C	2.856	-3.527	-0.303	C.3	1	UNK0	0.000	
30	   H	-0.599	5.736	-3.912	 H	1	UNK0	0.000	
31	   H	-4.913	4.858	-1.807	 H	1	UNK0	0.000	
32	   H	-4.861	5.710	-4.136	 H	1	UNK0	0.000	
33	   H	-3.743	2.900	0.597	 H	1	UNK0	0.000	
34	   H	-3.260	4.257	1.648	 H	1	UNK0	0.000	
35	   H	-4.538	4.513	0.377	 H	1	UNK0	0.000	
36	   H	-1.097	4.186	2.013	 H	1	UNK0	0.000	
37	   H	0.438	4.424	1.138	 H	1	UNK0	0.000	
38	   H	-1.269	1.871	0.789	 H	1	UNK0	0.000	
39	   H	0.335	2.250	0.122	 H	1	UNK0	0.000	
40	   H	-0.418	-1.074	1.741	 H	1	UNK0	0.000	
41	   H	-0.246	0.150	0.500	 H	1	UNK0	0.000	
42	   H	1.260	-1.400	-0.253	 H	1	UNK0	0.000	
43	   H	2.154	-0.049	0.398	 H	1	UNK0	0.000	
44	   H	3.436	-1.747	1.056	 H	1	UNK0	0.000	
45	   H	2.672	-2.990	3.245	 H	1	UNK0	0.000	
46	   H	1.680	-1.578	4.799	 H	1	UNK0	0.000	
47	   H	0.472	-1.892	3.545	 H	1	UNK0	0.000	
48	   H	0.836	0.573	4.507	 H	1	UNK0	0.000	
49	   H	2.354	0.531	3.589	 H	1	UNK0	0.000	
50	   H	4.471	-1.891	3.091	 H	1	UNK0	0.000	
51	   H	0.035	-3.345	1.274	 H	1	UNK0	0.000	
52	   H	0.997	-4.705	1.849	 H	1	UNK0	0.000	
53	   H	0.448	-3.993	-1.077	 H	1	UNK0	0.000	
54	   H	-0.297	-5.265	-0.081	 H	1	UNK0	0.000	
55	   H	3.448	-5.463	0.414	 H	1	UNK0	0.000	
56	   H	3.527	-5.295	-1.360	 H	1	UNK0	0.000	
57	   H	2.301	-3.142	-1.193	 H	1	UNK0	0.000	
58	   H	3.875	-3.114	-0.219	 H	1	UNK0	0.000	
@<TRIPOS>BOND
1 1 2 1
2 2 3 2
3 2 10 1
4 3 4 1
5 4 5 1
6 4 8 2
7 5 6 2
8 6 7 1
9 6 12 1
10 7 8 1
11 7 11 1
12 8 9 1
13 9 10 2
14 12 13 1
15 13 14 1
16 14 15 2
17 14 16 1
18 16 17 1
19 16 22 1
20 17 18 1
21 18 19 1
22 19 20 1
23 19 24 1
24 20 21 1
25 20 23 1
26 21 22 1
27 24 25 1
28 24 29 1
29 25 26 1
30 26 27 1
31 27 28 1
32 28 29 1
33 3 30 1
34 9 31 1
35 10 32 1
36 11 33 1
37 11 34 1
38 11 35 1
39 12 36 1
40 12 37 1
41 13 38 1
42 13 39 1
43 17 40 1
44 17 41 1
45 18 42 1
46 18 43 1
47 19 44 1
48 20 45 1
49 21 46 1
50 21 47 1
51 22 48 1
52 22 49 1
53 23 50 1
54 25 51 1
55 25 52 1
56 26 53 1
57 26 54 1
58 28 55 1
59 28 56 1
60 29 57 1
61 29 58 1
@<TRIPOS>SUBSTRUCTURE
1	UNK0	1	GROUP	1 ****	UNK
