# created with PyMOL 2.3.2
@<TRIPOS>MOLECULE
1984
51 54 1                 
SMALL
USER_CHARGES
@<TRIPOS>ATOM
1	  Cl	1.713	-2.174	-3.197	Cl	1	UNK0	0.000	
2	   C	2.825	-0.845	-3.383	C.2	1	UNK0	0.000	
3	   C	3.127	-0.083	-2.275	C.2	1	UNK0	0.000	
4	   N	2.618	-0.302	-1.061	N.2	1	UNK0	0.000	
5	   C	2.887	0.415	0.040	C.2	1	UNK0	0.000	
6	   C	3.780	1.471	-0.144	C.2	1	UNK0	0.000	
7	   C	4.339	1.750	-1.367	C.2	1	UNK0	0.000	
8	   C	4.017	0.967	-2.464	C.2	1	UNK0	0.000	
9	   C	4.559	1.219	-3.704	C.2	1	UNK0	0.000	
10	   C	4.235	0.438	-4.788	C.2	1	UNK0	0.000	
11	   C	3.366	-0.596	-4.627	C.2	1	UNK0	0.000	
12	   C	2.313	0.146	1.337	C.2	1	UNK0	0.000	
13	   O	2.678	0.933	2.282	O.2	1	UNK0	0.000	
14	   N	1.411	-0.869	1.676	N.pl3	1	UNK0	0.000	
15	   C	0.935	-0.959	3.085	C.3	1	UNK0	0.000	
16	   C	-0.554	-1.210	2.944	C.3	1	UNK0	0.000	
17	   C	-1.085	-0.680	1.632	C.3	1	UNK0	0.000	
18	   C	-0.625	-1.578	0.517	C.3	1	UNK0	0.000	
19	   C	0.851	-1.878	0.823	C.3	1	UNK0	0.000	
20	   N	-2.471	-0.475	1.733	N.3	1	UNK0	0.000	
21	   C	-3.306	-1.580	1.977	C.3	1	UNK0	0.000	
22	   C	-4.110	-1.955	0.735	C.3	1	UNK0	0.000	
23	   C	-4.866	-0.812	0.149	C.3	1	UNK0	0.000	
24	   C	-4.477	0.522	0.762	C.3	1	UNK0	0.000	
25	   C	-2.965	0.521	0.843	C.3	1	UNK0	0.000	
26	   O	-6.249	-0.952	0.247	O.3	1	UNK0	0.000	
27	   O	-1.192	-0.503	3.965	O.3	1	UNK0	0.000	
28	   H	4.030	2.078	0.703	 H	1	UNK0	0.000	
29	   H	5.037	2.580	-1.498	 H	1	UNK0	0.000	
30	   H	5.240	2.033	-3.819	 H	1	UNK0	0.000	
31	   H	4.666	0.645	-5.756	 H	1	UNK0	0.000	
32	   H	3.116	-1.209	-5.497	 H	1	UNK0	0.000	
33	   H	1.392	-1.859	3.496	 H	1	UNK0	0.000	
34	   H	1.156	-0.019	3.625	 H	1	UNK0	0.000	
35	   H	-0.820	-2.279	3.059	 H	1	UNK0	0.000	
36	   H	-0.603	0.321	1.446	 H	1	UNK0	0.000	
37	   H	-0.649	-1.110	-0.472	 H	1	UNK0	0.000	
38	   H	-1.161	-2.555	0.561	 H	1	UNK0	0.000	
39	   H	1.465	-2.001	-0.065	 H	1	UNK0	0.000	
40	   H	0.914	-2.872	1.369	 H	1	UNK0	0.000	
41	   H	-4.083	-1.298	2.745	 H	1	UNK0	0.000	
42	   H	-2.821	-2.488	2.341	 H	1	UNK0	0.000	
43	   H	-4.880	-2.727	1.035	 H	1	UNK0	0.000	
44	   H	-3.479	-2.438	-0.030	 H	1	UNK0	0.000	
45	   H	-4.616	-0.734	-0.928	 H	1	UNK0	0.000	
46	   H	-4.962	0.708	1.730	 H	1	UNK0	0.000	
47	   H	-4.751	1.368	0.095	 H	1	UNK0	0.000	
48	   H	-2.604	0.351	-0.209	 H	1	UNK0	0.000	
49	   H	-2.559	1.513	1.128	 H	1	UNK0	0.000	
50	   H	-6.446	-1.884	-0.087	 H	1	UNK0	0.000	
51	   H	-0.814	0.415	4.078	 H	1	UNK0	0.000	
@<TRIPOS>BOND
1 1 2 1
2 2 3 2
3 2 11 1
4 3 4 1
5 3 8 1
6 4 5 2
7 5 6 1
8 5 12 1
9 6 7 2
10 7 8 1
11 8 9 2
12 9 10 1
13 10 11 2
14 12 13 2
15 12 14 1
16 14 15 1
17 14 19 1
18 15 16 1
19 16 17 1
20 16 27 1
21 17 18 1
22 17 20 1
23 18 19 1
24 20 21 1
25 20 25 1
26 21 22 1
27 22 23 1
28 23 24 1
29 23 26 1
30 24 25 1
31 6 28 1
32 7 29 1
33 9 30 1
34 10 31 1
35 11 32 1
36 15 33 1
37 15 34 1
38 16 35 1
39 17 36 1
40 18 37 1
41 18 38 1
42 19 39 1
43 19 40 1
44 21 41 1
45 21 42 1
46 22 43 1
47 22 44 1
48 23 45 1
49 24 46 1
50 24 47 1
51 25 48 1
52 25 49 1
53 26 50 1
54 27 51 1
@<TRIPOS>SUBSTRUCTURE
1	UNK0	1	GROUP	1 ****	UNK
