# created with PyMOL 2.3.2
@<TRIPOS>MOLECULE
1985
57 60 1                 
SMALL
USER_CHARGES
@<TRIPOS>ATOM
1	  Cl	-3.150	1.965	0.604	Cl	1	UNK0	0.000	
2	   C	-2.563	0.661	1.612	C.2	1	UNK0	0.000	
3	   C	-2.064	-0.474	1.024	C.2	1	UNK0	0.000	
4	   C	-1.646	-1.477	1.917	C.2	1	UNK0	0.000	
5	   N	-1.738	-1.313	3.240	N.2	1	UNK0	0.000	
6	   N	-2.215	-0.226	3.816	N.pl3	1	UNK0	0.000	
7	   C	-2.627	0.759	3.007	C.2	1	UNK0	0.000	
8	   O	-3.093	1.827	3.470	O.2	1	UNK0	0.000	
9	   C	-2.275	-0.136	5.236	C.2	1	UNK0	0.000	
10	   C	-1.148	-0.178	6.032	C.2	1	UNK0	0.000	
11	   C	-1.233	-0.087	7.412	C.2	1	UNK0	0.000	
12	   C	-2.450	0.049	8.046	C.2	1	UNK0	0.000	
13	   C	-3.580	0.093	7.257	C.2	1	UNK0	0.000	
14	   C	-3.489	0.002	5.882	C.2	1	UNK0	0.000	
15	   N	-1.927	-0.660	-0.371	N.pl3	1	UNK0	0.000	
16	   C	-2.297	-1.959	-0.970	C.3	1	UNK0	0.000	
17	   C	-1.306	-2.261	-2.079	C.3	1	UNK0	0.000	
18	   N	-0.029	-1.578	-1.778	N.pl3	1	UNK0	0.000	
19	   C	-0.013	-0.144	-1.726	C.3	1	UNK0	0.000	
20	   C	-1.414	0.333	-1.257	C.3	1	UNK0	0.000	
21	   C	1.089	-2.372	-1.506	C.2	1	UNK0	0.000	
22	   O	0.829	-3.657	-1.498	O.2	1	UNK0	0.000	
23	   C	2.477	-2.058	-1.227	C.3	1	UNK0	0.000	
24	   N	2.940	-0.725	-1.298	N.pl3	1	UNK0	0.000	
25	   C	2.970	-0.021	-2.526	C.2	1	UNK0	0.000	
26	   O	2.582	-0.602	-3.588	O.2	1	UNK0	0.000	
27	   C	3.450	1.388	-2.591	C.3	1	UNK0	0.000	
28	   C	3.372	1.866	-3.975	C.2	1	UNK0	0.000	
29	   C	2.229	2.479	-4.469	C.2	1	UNK0	0.000	
30	   C	2.144	2.931	-5.756	C.2	1	UNK0	0.000	
31	   C	3.234	2.767	-6.577	C.2	1	UNK0	0.000	
32	   C	4.374	2.161	-6.098	C.2	1	UNK0	0.000	
33	   C	4.472	1.700	-4.801	C.2	1	UNK0	0.000	
34	   H	-1.253	-2.375	1.469	 H	1	UNK0	0.000	
35	   H	-0.186	-0.288	5.513	 H	1	UNK0	0.000	
36	   H	-0.344	-0.123	8.009	 H	1	UNK0	0.000	
37	   H	-2.497	0.119	9.128	 H	1	UNK0	0.000	
38	   H	-4.535	0.201	7.752	 H	1	UNK0	0.000	
39	   H	-4.381	0.035	5.243	 H	1	UNK0	0.000	
40	   H	-2.351	-2.754	-0.205	 H	1	UNK0	0.000	
41	   H	-3.305	-1.808	-1.407	 H	1	UNK0	0.000	
42	   H	-1.156	-3.348	-2.105	 H	1	UNK0	0.000	
43	   H	-1.658	-1.923	-3.067	 H	1	UNK0	0.000	
44	   H	0.183	0.287	-2.718	 H	1	UNK0	0.000	
45	   H	0.664	0.246	-0.947	 H	1	UNK0	0.000	
46	   H	-1.249	1.311	-0.769	 H	1	UNK0	0.000	
47	   H	-2.048	0.482	-2.160	 H	1	UNK0	0.000	
48	   H	3.098	-2.706	-1.938	 H	1	UNK0	0.000	
49	   H	2.689	-2.513	-0.195	 H	1	UNK0	0.000	
50	   H	3.270	-0.231	-0.441	 H	1	UNK0	0.000	
51	   H	4.491	1.417	-2.179	 H	1	UNK0	0.000	
52	   H	2.767	2.025	-1.960	 H	1	UNK0	0.000	
53	   H	1.373	2.609	-3.827	 H	1	UNK0	0.000	
54	   H	1.226	3.410	-6.112	 H	1	UNK0	0.000	
55	   H	3.196	3.121	-7.617	 H	1	UNK0	0.000	
56	   H	5.220	2.041	-6.756	 H	1	UNK0	0.000	
57	   H	5.364	1.232	-4.449	 H	1	UNK0	0.000	
@<TRIPOS>BOND
1 1 2 1
2 2 3 2
3 2 7 1
4 3 4 1
5 3 15 1
6 4 5 2
7 5 6 1
8 6 7 1
9 6 9 1
10 7 8 2
11 9 10 2
12 9 14 1
13 10 11 1
14 11 12 2
15 12 13 1
16 13 14 2
17 15 16 1
18 15 20 1
19 16 17 1
20 17 18 1
21 18 19 1
22 18 21 1
23 19 20 1
24 21 22 2
25 21 23 1
26 23 24 1
27 24 25 1
28 25 26 2
29 25 27 1
30 27 28 1
31 28 29 2
32 28 33 1
33 29 30 1
34 30 31 2
35 31 32 1
36 32 33 2
37 4 34 1
38 10 35 1
39 11 36 1
40 12 37 1
41 13 38 1
42 14 39 1
43 16 40 1
44 16 41 1
45 17 42 1
46 17 43 1
47 19 44 1
48 19 45 1
49 20 46 1
50 20 47 1
51 23 48 1
52 23 49 1
53 24 50 1
54 27 51 1
55 27 52 1
56 29 53 1
57 30 54 1
58 31 55 1
59 32 56 1
60 33 57 1
@<TRIPOS>SUBSTRUCTURE
1	UNK0	1	GROUP	1 ****	UNK
