# created with PyMOL 2.3.2
@<TRIPOS>MOLECULE
1986
51 53 1                 
SMALL
USER_CHARGES
@<TRIPOS>ATOM
1	  Cl	-2.367	4.508	-2.364	Cl	1	UNK0	0.000	
2	   C	-1.107	3.346	-1.987	C.2	1	UNK0	0.000	
3	   C	-1.000	2.799	-0.724	C.2	1	UNK0	0.000	
4	   C	0.006	1.872	-0.422	C.2	1	UNK0	0.000	
5	   C	0.866	1.543	-1.438	C.2	1	UNK0	0.000	
6	   C	0.754	2.101	-2.719	C.2	1	UNK0	0.000	
7	   C	-0.239	3.012	-3.006	C.2	1	UNK0	0.000	
8	   O	1.874	0.623	-1.164	O.3	1	UNK0	0.000	
9	   C	2.046	0.032	0.076	C.2	1	UNK0	0.000	
10	   C	1.176	0.366	1.102	C.2	1	UNK0	0.000	
11	   C	0.074	1.322	0.946	C.3	1	UNK0	0.000	
12	   C	-1.223	0.637	1.258	C.2	1	UNK0	0.000	
13	   C	-1.554	-0.557	0.656	C.2	1	UNK0	0.000	
14	   N	-2.735	-1.168	0.946	N.pl3	1	UNK0	0.000	
15	   C	-3.600	-0.609	1.829	C.2	1	UNK0	0.000	
16	   O	-4.687	-1.204	2.073	O.2	1	UNK0	0.000	
17	   N	-3.305	0.554	2.431	N.pl3	1	UNK0	0.000	
18	   C	-2.138	1.163	2.148	C.2	1	UNK0	0.000	
19	   O	-1.880	2.236	2.712	O.2	1	UNK0	0.000	
20	   C	-4.259	1.128	3.375	C.3	1	UNK0	0.000	
21	   C	-3.026	-2.432	0.277	C.3	1	UNK0	0.000	
22	   O	-0.685	-1.124	-0.234	O.2	1	UNK0	0.000	
23	   C	1.387	-0.251	2.319	C.2	1	UNK0	0.000	
24	   O	0.620	0.016	3.298	O.2	1	UNK0	0.000	
25	   N	2.367	-1.136	2.560	N.pl3	1	UNK0	0.000	
26	   C	3.193	-1.432	1.527	C.2	1	UNK0	0.000	
27	   O	4.106	-2.265	1.775	O.2	1	UNK0	0.000	
28	   N	3.025	-0.855	0.323	N.pl3	1	UNK0	0.000	
29	   C	3.950	-1.223	-0.730	C.3	1	UNK0	0.000	
30	   C	2.545	-1.763	3.870	C.3	1	UNK0	0.000	
31	   N	0.578	-1.385	1.808	N.4	1	UNK0	0.000	
32	   H	-1.695	3.074	0.069	 H	1	UNK0	0.000	
33	   H	1.472	1.791	-3.474	 H	1	UNK0	0.000	
34	   H	-0.309	3.431	-4.000	 H	1	UNK0	0.000	
35	   H	0.197	2.119	1.712	 H	1	UNK0	0.000	
36	   H	-4.098	2.191	3.550	 H	1	UNK0	0.000	
37	   H	-4.110	0.554	4.330	 H	1	UNK0	0.000	
38	   H	-5.286	0.874	3.030	 H	1	UNK0	0.000	
39	   H	-2.521	-2.418	-0.714	 H	1	UNK0	0.000	
40	   H	-2.567	-3.263	0.888	 H	1	UNK0	0.000	
41	   H	-4.116	-2.585	0.188	 H	1	UNK0	0.000	
42	   H	3.594	-2.178	-1.191	 H	1	UNK0	0.000	
43	   H	4.008	-0.458	-1.520	 H	1	UNK0	0.000	
44	   H	4.979	-1.360	-0.322	 H	1	UNK0	0.000	
45	   H	2.116	-2.798	3.748	 H	1	UNK0	0.000	
46	   H	3.583	-1.776	4.195	 H	1	UNK0	0.000	
47	   H	1.906	-1.256	4.596	 H	1	UNK0	0.000	
48	   H	0.451	-1.409	2.848	 H	1	UNK0	0.000	
49	   H	1.432	-1.923	1.518	 H	1	UNK0	0.000	
50	   H	-0.235	-1.784	1.302	 H	1	UNK0	0.000	
51	   H	0.712	-0.417	1.442	 H	1	UNK0	0.000	
@<TRIPOS>BOND
1 1 2 1
2 2 3 2
3 2 7 1
4 3 4 1
5 4 5 2
6 4 11 1
7 5 6 1
8 5 8 1
9 6 7 2
10 8 9 1
11 9 10 2
12 9 28 1
13 10 11 1
14 10 23 1
15 11 12 1
16 12 13 2
17 12 18 1
18 13 14 1
19 13 22 1
20 14 15 1
21 14 21 1
22 15 16 2
23 15 17 1
24 17 18 1
25 17 20 1
26 18 19 2
27 23 24 2
28 23 25 1
29 25 26 1
30 25 30 1
31 26 27 2
32 26 28 1
33 28 29 1
34 3 32 1
35 6 33 1
36 7 34 1
37 11 35 1
38 20 36 1
39 20 37 1
40 20 38 1
41 21 39 1
42 21 40 1
43 21 41 1
44 29 42 1
45 29 43 1
46 29 44 1
47 30 45 1
48 30 46 1
49 30 47 1
50 31 48 1
51 31 49 1
52 31 50 1
53 31 51 1
@<TRIPOS>SUBSTRUCTURE
1	UNK0	1	GROUP	1 ****	UNK
