# created with PyMOL 2.3.2
@<TRIPOS>MOLECULE
1987
33 36 1                 
SMALL
USER_CHARGES
@<TRIPOS>ATOM
1	  Cl	1.152	0.916	-2.574	Cl	1	UNK0	0.000	
2	   C	0.449	1.977	-1.356	C.2	1	UNK0	0.000	
3	   C	0.173	1.434	-0.124	C.2	1	UNK0	0.000	
4	   C	-0.386	2.320	0.810	C.2	1	UNK0	0.000	
5	   C	-0.641	3.639	0.521	C.2	1	UNK0	0.000	
6	   C	-0.357	4.167	-0.720	C.2	1	UNK0	0.000	
7	   C	0.191	3.306	-1.645	C.2	1	UNK0	0.000	
8	  Cl	-1.344	4.722	1.728	Cl	1	UNK0	0.000	
9	   N	0.422	0.082	0.238	N.pl3	1	UNK0	0.000	
10	   C	1.695	-0.529	0.538	C.2	1	UNK0	0.000	
11	   O	2.781	-0.206	-0.046	O.2	1	UNK0	0.000	
12	   C	1.503	-1.543	1.597	C.3	1	UNK0	0.000	
13	   C	2.197	-2.835	1.377	C.3	1	UNK0	0.000	
14	   O	1.223	-3.805	1.752	O.3	1	UNK0	0.000	
15	   C	0.222	-3.345	0.841	C.3	1	UNK0	0.000	
16	   C	0.040	-1.958	1.353	C.3	1	UNK0	0.000	
17	   C	-0.531	-0.989	0.419	C.2	1	UNK0	0.000	
18	   O	-1.640	-1.056	-0.133	O.2	1	UNK0	0.000	
19	   C	1.010	-3.415	-0.410	C.2	1	UNK0	0.000	
20	   C	2.266	-3.112	-0.077	C.2	1	UNK0	0.000	
21	   C	3.470	-3.009	2.117	C.3	1	UNK0	0.000	
22	   O	3.271	-2.884	3.505	O.3	1	UNK0	0.000	
23	   H	-0.607	1.900	1.788	 H	1	UNK0	0.000	
24	   H	-0.574	5.213	-0.910	 H	1	UNK0	0.000	
25	   H	0.414	3.718	-2.626	 H	1	UNK0	0.000	
26	   H	1.640	-1.115	2.616	 H	1	UNK0	0.000	
27	   H	-0.665	-3.973	0.873	 H	1	UNK0	0.000	
28	   H	-0.489	-2.013	2.320	 H	1	UNK0	0.000	
29	   H	0.631	-3.664	-1.390	 H	1	UNK0	0.000	
30	   H	3.155	-3.063	-0.669	 H	1	UNK0	0.000	
31	   H	4.239	-2.274	1.837	 H	1	UNK0	0.000	
32	   H	3.904	-4.031	1.972	 H	1	UNK0	0.000	
33	   H	3.127	-1.920	3.754	 H	1	UNK0	0.000	
@<TRIPOS>BOND
1 1 2 1
2 2 3 2
3 2 7 1
4 3 4 1
5 3 9 1
6 4 5 2
7 5 6 1
8 5 8 1
9 6 7 2
10 9 10 1
11 9 17 1
12 10 11 2
13 10 12 1
14 12 13 1
15 12 16 1
16 13 14 1
17 13 20 1
18 13 21 1
19 14 15 1
20 15 16 1
21 15 19 1
22 16 17 1
23 17 18 2
24 19 20 2
25 21 22 1
26 4 23 1
27 6 24 1
28 7 25 1
29 12 26 1
30 15 27 1
31 16 28 1
32 19 29 1
33 20 30 1
34 21 31 1
35 21 32 1
36 22 33 1
@<TRIPOS>SUBSTRUCTURE
1	UNK0	1	GROUP	1 ****	UNK
