# created with PyMOL 2.3.2
@<TRIPOS>MOLECULE
1988
47 49 1                 
SMALL
USER_CHARGES
@<TRIPOS>ATOM
1	  Cl	1.943	2.338	2.882	Cl	1	UNK0	0.000	
2	   C	2.434	1.640	1.348	C.2	1	UNK0	0.000	
3	   C	1.666	0.582	0.803	C.2	1	UNK0	0.000	
4	   C	2.093	0.071	-0.400	C.2	1	UNK0	0.000	
5	   C	3.190	0.494	-1.114	C.2	1	UNK0	0.000	
6	   C	3.928	1.551	-0.536	C.2	1	UNK0	0.000	
7	   C	3.533	2.085	0.661	C.2	1	UNK0	0.000	
8	   N	3.566	-0.050	-2.330	N.pl3	1	UNK0	0.000	
9	   C	2.861	-0.935	-3.130	C.2	1	UNK0	0.000	
10	   O	1.727	-1.370	-2.827	O.2	1	UNK0	0.000	
11	   C	3.423	-1.442	-4.440	C.3	1	UNK0	0.000	
12	   O	2.558	-2.307	-5.064	O.3	1	UNK0	0.000	
13	   C	3.020	-2.796	-6.258	C.3	1	UNK0	0.000	
14	   N	0.539	0.125	1.507	N.pl3	1	UNK0	0.000	
15	   C	-0.357	-0.889	1.153	C.2	1	UNK0	0.000	
16	   O	-0.173	-1.511	0.054	O.2	1	UNK0	0.000	
17	   N	-1.476	-1.287	1.935	N.pl3	1	UNK0	0.000	
18	   C	-2.278	-2.368	1.335	C.3	1	UNK0	0.000	
19	   C	-3.655	-1.733	1.127	C.3	1	UNK0	0.000	
20	   N	-4.375	-1.811	2.366	N.pl3	1	UNK0	0.000	
21	   C	-4.239	-0.740	3.286	C.2	1	UNK0	0.000	
22	   O	-5.055	-0.585	4.214	O.2	1	UNK0	0.000	
23	   C	-3.059	0.160	3.047	C.3	1	UNK0	0.000	
24	   C	-1.814	-0.705	3.192	C.3	1	UNK0	0.000	
25	   C	-3.118	0.683	1.638	C.3	1	UNK0	0.000	
26	   C	-3.522	-0.320	0.617	C.3	1	UNK0	0.000	
27	   H	1.507	-0.752	-0.812	 H	1	UNK0	0.000	
28	   H	4.793	1.917	-1.053	 H	1	UNK0	0.000	
29	   H	4.123	2.907	1.093	 H	1	UNK0	0.000	
30	   H	4.528	0.252	-2.700	 H	1	UNK0	0.000	
31	   H	3.555	-0.561	-5.090	 H	1	UNK0	0.000	
32	   H	4.378	-1.929	-4.208	 H	1	UNK0	0.000	
33	   H	3.963	-3.340	-6.067	 H	1	UNK0	0.000	
34	   H	2.309	-3.487	-6.732	 H	1	UNK0	0.000	
35	   H	3.159	-1.952	-6.968	 H	1	UNK0	0.000	
36	   H	0.346	0.631	2.441	 H	1	UNK0	0.000	
37	   H	-1.815	-2.657	0.393	 H	1	UNK0	0.000	
38	   H	-2.328	-3.200	2.050	 H	1	UNK0	0.000	
39	   H	-4.159	-2.332	0.351	 H	1	UNK0	0.000	
40	   H	-4.971	-2.644	2.550	 H	1	UNK0	0.000	
41	   H	-3.051	1.008	3.740	 H	1	UNK0	0.000	
42	   H	-1.000	-0.075	3.566	 H	1	UNK0	0.000	
43	   H	-2.074	-1.493	3.949	 H	1	UNK0	0.000	
44	   H	-2.120	1.144	1.416	 H	1	UNK0	0.000	
45	   H	-3.862	1.524	1.644	 H	1	UNK0	0.000	
46	   H	-4.456	-0.039	0.119	 H	1	UNK0	0.000	
47	   H	-2.742	-0.360	-0.197	 H	1	UNK0	0.000	
@<TRIPOS>BOND
1 1 2 1
2 2 3 2
3 2 7 1
4 3 4 1
5 3 14 1
6 4 5 2
7 5 6 1
8 5 8 1
9 6 7 2
10 8 9 1
11 9 10 2
12 9 11 1
13 11 12 1
14 12 13 1
15 14 15 1
16 15 16 2
17 15 17 1
18 17 18 1
19 17 24 1
20 18 19 1
21 19 20 1
22 19 26 1
23 20 21 1
24 21 22 2
25 21 23 1
26 23 24 1
27 23 25 1
28 25 26 1
29 4 27 1
30 6 28 1
31 7 29 1
32 8 30 1
33 11 31 1
34 11 32 1
35 13 33 1
36 13 34 1
37 13 35 1
38 14 36 1
39 18 37 1
40 18 38 1
41 19 39 1
42 20 40 1
43 23 41 1
44 24 42 1
45 24 43 1
46 25 44 1
47 25 45 1
48 26 46 1
49 26 47 1
@<TRIPOS>SUBSTRUCTURE
1	UNK0	1	GROUP	1 ****	UNK
