# created with PyMOL 2.3.2
@<TRIPOS>MOLECULE
1989
37 40 1                 
SMALL
USER_CHARGES
@<TRIPOS>ATOM
1	  Cl	-1.309	-2.981	-5.038	Cl	1	UNK0	0.000	
2	   C	-0.723	-1.391	-4.590	C.2	1	UNK0	0.000	
3	   C	-1.161	-0.242	-5.208	C.2	1	UNK0	0.000	
4	   C	-0.666	0.995	-4.816	C.2	1	UNK0	0.000	
5	   C	0.269	1.114	-3.808	C.2	1	UNK0	0.000	
6	   C	0.692	-0.046	-3.203	C.2	1	UNK0	0.000	
7	   C	0.206	-1.293	-3.585	C.2	1	UNK0	0.000	
8	   N	0.808	2.349	-3.367	N.pl3	1	UNK0	0.000	
9	   N	1.537	3.185	-4.111	N.2	1	UNK0	0.000	
10	   N	1.885	4.241	-3.409	N.2	1	UNK0	0.000	
11	   N	1.390	4.102	-2.213	N.2	1	UNK0	0.000	
12	   C	0.721	2.940	-2.164	C.2	1	UNK0	0.000	
13	   C	0.011	2.396	-1.003	C.3	1	UNK0	0.000	
14	   N	0.860	1.572	-0.173	N.pl3	1	UNK0	0.000	
15	   C	0.347	0.968	0.981	C.2	1	UNK0	0.000	
16	   O	-0.869	1.163	1.275	O.2	1	UNK0	0.000	
17	   C	1.146	0.119	1.872	C.2	1	UNK0	0.000	
18	   C	2.476	-0.164	1.657	C.2	1	UNK0	0.000	
19	   C	3.229	-0.968	2.503	C.2	1	UNK0	0.000	
20	   C	2.616	-1.510	3.612	C.2	1	UNK0	0.000	
21	   C	1.286	-1.249	3.862	C.2	1	UNK0	0.000	
22	   C	0.573	-0.443	2.995	C.2	1	UNK0	0.000	
23	   O	3.582	-2.261	4.276	O.3	1	UNK0	0.000	
24	   C	4.662	-2.514	3.372	C.3	1	UNK0	0.000	
25	   O	4.555	-1.397	2.507	O.3	1	UNK0	0.000	
26	   H	-1.891	-0.343	-5.994	 H	1	UNK0	0.000	
27	   H	-1.009	1.910	-5.302	 H	1	UNK0	0.000	
28	   H	1.411	-0.003	-2.423	 H	1	UNK0	0.000	
29	   H	0.569	-2.180	-3.080	 H	1	UNK0	0.000	
30	   H	-0.944	1.896	-1.261	 H	1	UNK0	0.000	
31	   H	-0.293	3.268	-0.353	 H	1	UNK0	0.000	
32	   H	1.854	1.425	-0.432	 H	1	UNK0	0.000	
33	   H	2.962	0.255	0.792	 H	1	UNK0	0.000	
34	   H	0.808	-1.672	4.728	 H	1	UNK0	0.000	
35	   H	-0.482	-0.226	3.177	 H	1	UNK0	0.000	
36	   H	4.499	-3.472	2.869	 H	1	UNK0	0.000	
37	   H	5.613	-2.500	3.941	 H	1	UNK0	0.000	
@<TRIPOS>BOND
1 1 2 1
2 2 3 2
3 2 7 1
4 3 4 1
5 4 5 2
6 5 6 1
7 5 8 1
8 6 7 2
9 8 9 1
10 8 12 1
11 9 10 2
12 10 11 1
13 11 12 2
14 12 13 1
15 13 14 1
16 14 15 1
17 15 16 2
18 15 17 1
19 17 18 2
20 17 22 1
21 18 19 1
22 19 20 2
23 19 25 1
24 20 21 1
25 20 23 1
26 21 22 2
27 23 24 1
28 24 25 1
29 3 26 1
30 4 27 1
31 6 28 1
32 7 29 1
33 13 30 1
34 13 31 1
35 14 32 1
36 18 33 1
37 21 34 1
38 22 35 1
39 24 36 1
40 24 37 1
@<TRIPOS>SUBSTRUCTURE
1	UNK0	1	GROUP	1 ****	UNK
