# created with PyMOL 2.3.2
@<TRIPOS>MOLECULE
1990
48 51 1                 
SMALL
USER_CHARGES
@<TRIPOS>ATOM
1	  Cl	-6.273	1.567	-3.326	Cl	1	UNK0	0.000	
2	   C	-4.582	1.062	-3.222	C.2	1	UNK0	0.000	
3	   C	-3.593	1.992	-3.024	C.2	1	UNK0	0.000	
4	   C	-2.257	1.597	-2.942	C.2	1	UNK0	0.000	
5	   C	-1.889	0.278	-3.054	C.2	1	UNK0	0.000	
6	   C	-2.896	-0.641	-3.253	C.2	1	UNK0	0.000	
7	   C	-4.224	-0.260	-3.336	C.2	1	UNK0	0.000	
8	   N	-0.536	-0.115	-2.970	N.pl3	1	UNK0	0.000	
9	   N	0.200	-0.653	-3.953	N.2	1	UNK0	0.000	
10	   N	1.418	-0.891	-3.512	N.2	1	UNK0	0.000	
11	   N	1.445	-0.501	-2.246	N.2	1	UNK0	0.000	
12	   C	0.254	-0.012	-1.868	C.2	1	UNK0	0.000	
13	   C	-0.188	0.532	-0.576	C.3	1	UNK0	0.000	
14	   N	-0.738	-0.490	0.294	N.3	1	UNK0	0.000	
15	   C	0.230	-1.522	0.594	C.3	1	UNK0	0.000	
16	   C	1.502	-0.956	1.194	C.3	1	UNK0	0.000	
17	   N	1.083	0.018	2.186	N.pl3	1	UNK0	0.000	
18	   C	-0.271	-0.112	2.688	C.3	1	UNK0	0.000	
19	   C	-1.207	0.111	1.523	C.3	1	UNK0	0.000	
20	   C	1.947	1.044	2.647	C.2	1	UNK0	0.000	
21	   O	1.510	1.848	3.507	O.2	1	UNK0	0.000	
22	   C	3.305	1.212	2.178	C.2	1	UNK0	0.000	
23	   C	4.453	0.642	2.713	C.2	1	UNK0	0.000	
24	   N	5.465	1.078	1.959	N.2	1	UNK0	0.000	
25	   O	5.055	1.852	1.021	O.3	1	UNK0	0.000	
26	   C	3.753	1.972	1.103	C.2	1	UNK0	0.000	
27	   C	2.930	2.788	0.187	C.3	1	UNK0	0.000	
28	   C	4.510	-0.268	3.892	C.3	1	UNK0	0.000	
29	   H	-3.870	3.038	-2.934	 H	1	UNK0	0.000	
30	   H	-1.522	2.372	-2.785	 H	1	UNK0	0.000	
31	   H	-2.620	-1.698	-3.345	 H	1	UNK0	0.000	
32	   H	-5.002	-0.984	-3.491	 H	1	UNK0	0.000	
33	   H	0.718	0.928	-0.031	 H	1	UNK0	0.000	
34	   H	-0.868	1.403	-0.660	 H	1	UNK0	0.000	
35	   H	0.534	-2.074	-0.316	 H	1	UNK0	0.000	
36	   H	-0.254	-2.238	1.289	 H	1	UNK0	0.000	
37	   H	2.034	-1.758	1.761	 H	1	UNK0	0.000	
38	   H	2.191	-0.564	0.450	 H	1	UNK0	0.000	
39	   H	-0.476	0.565	3.529	 H	1	UNK0	0.000	
40	   H	-0.374	-1.180	3.028	 H	1	UNK0	0.000	
41	   H	-1.457	1.194	1.399	 H	1	UNK0	0.000	
42	   H	-2.200	-0.377	1.748	 H	1	UNK0	0.000	
43	   H	2.946	2.346	-0.824	 H	1	UNK0	0.000	
44	   H	3.414	3.796	0.097	 H	1	UNK0	0.000	
45	   H	1.914	2.975	0.577	 H	1	UNK0	0.000	
46	   H	4.104	-1.265	3.660	 H	1	UNK0	0.000	
47	   H	5.581	-0.402	4.149	 H	1	UNK0	0.000	
48	   H	4.037	0.201	4.784	 H	1	UNK0	0.000	
@<TRIPOS>BOND
1 1 2 1
2 2 3 2
3 2 7 1
4 3 4 1
5 4 5 2
6 5 6 1
7 5 8 1
8 6 7 2
9 8 9 1
10 8 12 1
11 9 10 2
12 10 11 1
13 11 12 2
14 12 13 1
15 13 14 1
16 14 15 1
17 14 19 1
18 15 16 1
19 16 17 1
20 17 18 1
21 17 20 1
22 18 19 1
23 20 21 2
24 20 22 1
25 22 23 1
26 22 26 2
27 23 24 2
28 23 28 1
29 24 25 1
30 25 26 1
31 26 27 1
32 3 29 1
33 4 30 1
34 6 31 1
35 7 32 1
36 13 33 1
37 13 34 1
38 15 35 1
39 15 36 1
40 16 37 1
41 16 38 1
42 18 39 1
43 18 40 1
44 19 41 1
45 19 42 1
46 27 43 1
47 27 44 1
48 27 45 1
49 28 46 1
50 28 47 1
51 28 48 1
@<TRIPOS>SUBSTRUCTURE
1	UNK0	1	GROUP	1 ****	UNK
