# created with PyMOL 2.3.2
@<TRIPOS>MOLECULE
1991
57 60 1                 
SMALL
USER_CHARGES
@<TRIPOS>ATOM
1	  Cl	-2.015	-0.972	-6.797	Cl	1	UNK0	0.000	
2	   C	-0.985	-1.031	-5.387	C.2	1	UNK0	0.000	
3	   C	-1.515	-1.212	-4.129	C.2	1	UNK0	0.000	
4	   C	-0.692	-1.255	-3.034	C.2	1	UNK0	0.000	
5	   C	0.691	-1.115	-3.202	C.2	1	UNK0	0.000	
6	   C	1.233	-0.932	-4.464	C.2	1	UNK0	0.000	
7	   C	0.378	-0.894	-5.531	C.2	1	UNK0	0.000	
8	   O	1.652	-1.135	-2.203	O.3	1	UNK0	0.000	
9	   C	1.560	-1.727	-0.929	C.3	1	UNK0	0.000	
10	   C	0.525	-1.075	-0.071	C.3	1	UNK0	0.000	
11	   N	-0.692	-0.723	-0.738	N.pl3	1	UNK0	0.000	
12	   C	-1.409	-1.456	-1.749	C.3	1	UNK0	0.000	
13	   C	-1.313	0.523	-0.382	C.2	1	UNK0	0.000	
14	   O	-2.382	0.813	-0.974	O.2	1	UNK0	0.000	
15	   C	-0.731	1.413	0.621	C.3	1	UNK0	0.000	
16	   N	-1.423	2.613	0.919	N.3	1	UNK0	0.000	
17	   C	-0.670	3.462	1.846	C.3	1	UNK0	0.000	
18	   C	-0.480	2.714	3.112	C.3	1	UNK0	0.000	
19	   C	-1.683	2.031	3.671	C.3	1	UNK0	0.000	
20	   C	-2.860	1.902	2.787	C.3	1	UNK0	0.000	
21	   C	-2.767	2.468	1.421	C.3	1	UNK0	0.000	
22	   C	-1.334	0.726	4.284	C.2	1	UNK0	0.000	
23	   O	-1.856	-0.317	3.841	O.2	1	UNK0	0.000	
24	   N	-0.421	0.672	5.359	N.pl3	1	UNK0	0.000	
25	   C	1.339	-3.224	-1.079	C.3	1	UNK0	0.000	
26	   C	2.671	-3.953	-1.092	C.3	1	UNK0	0.000	
27	   O	3.327	-3.877	0.121	O.3	1	UNK0	0.000	
28	   C	2.981	-2.715	0.801	C.3	1	UNK0	0.000	
29	   C	2.898	-1.579	-0.200	C.3	1	UNK0	0.000	
30	   H	-2.580	-1.322	-3.987	 H	1	UNK0	0.000	
31	   H	2.304	-0.827	-4.547	 H	1	UNK0	0.000	
32	   H	0.764	-0.752	-6.537	 H	1	UNK0	0.000	
33	   H	0.285	-1.768	0.776	 H	1	UNK0	0.000	
34	   H	1.006	-0.177	0.398	 H	1	UNK0	0.000	
35	   H	-1.541	-2.529	-1.508	 H	1	UNK0	0.000	
36	   H	-2.439	-1.048	-1.888	 H	1	UNK0	0.000	
37	   H	0.282	1.719	0.221	 H	1	UNK0	0.000	
38	   H	-0.476	0.793	1.521	 H	1	UNK0	0.000	
39	   H	0.298	3.706	1.411	 H	1	UNK0	0.000	
40	   H	-1.310	4.351	2.047	 H	1	UNK0	0.000	
41	   H	0.321	1.930	2.994	 H	1	UNK0	0.000	
42	   H	-0.007	3.439	3.841	 H	1	UNK0	0.000	
43	   H	-1.997	2.671	4.556	 H	1	UNK0	0.000	
44	   H	-3.800	2.257	3.310	 H	1	UNK0	0.000	
45	   H	-3.074	0.797	2.654	 H	1	UNK0	0.000	
46	   H	-3.391	2.002	0.653	 H	1	UNK0	0.000	
47	   H	-3.163	3.528	1.490	 H	1	UNK0	0.000	
48	   H	0.546	0.301	5.122	 H	1	UNK0	0.000	
49	   H	-0.602	0.953	6.330	 H	1	UNK0	0.000	
50	   H	0.877	-3.424	-2.078	 H	1	UNK0	0.000	
51	   H	0.740	-3.639	-0.252	 H	1	UNK0	0.000	
52	   H	2.461	-5.026	-1.295	 H	1	UNK0	0.000	
53	   H	3.322	-3.551	-1.889	 H	1	UNK0	0.000	
54	   H	1.991	-2.907	1.277	 H	1	UNK0	0.000	
55	   H	3.694	-2.502	1.618	 H	1	UNK0	0.000	
56	   H	3.720	-1.743	-0.929	 H	1	UNK0	0.000	
57	   H	2.996	-0.590	0.267	 H	1	UNK0	0.000	
@<TRIPOS>BOND
1 1 2 1
2 2 3 2
3 2 7 1
4 3 4 1
5 4 5 2
6 4 12 1
7 5 6 1
8 5 8 1
9 6 7 2
10 8 9 1
11 9 10 1
12 9 25 1
13 9 29 1
14 10 11 1
15 11 12 1
16 11 13 1
17 13 14 2
18 13 15 1
19 15 16 1
20 16 17 1
21 16 21 1
22 17 18 1
23 18 19 1
24 19 20 1
25 19 22 1
26 20 21 1
27 22 23 2
28 22 24 1
29 25 26 1
30 26 27 1
31 27 28 1
32 28 29 1
33 3 30 1
34 6 31 1
35 7 32 1
36 10 33 1
37 10 34 1
38 12 35 1
39 12 36 1
40 15 37 1
41 15 38 1
42 17 39 1
43 17 40 1
44 18 41 1
45 18 42 1
46 19 43 1
47 20 44 1
48 20 45 1
49 21 46 1
50 21 47 1
51 24 48 1
52 24 49 1
53 25 50 1
54 25 51 1
55 26 52 1
56 26 53 1
57 28 54 1
58 28 55 1
59 29 56 1
60 29 57 1
@<TRIPOS>SUBSTRUCTURE
1	UNK0	1	GROUP	1 ****	UNK
