# created with PyMOL 2.3.2
@<TRIPOS>MOLECULE
1996
47 50 1                 
SMALL
USER_CHARGES
@<TRIPOS>ATOM
1	   S	0.728	1.673	2.362	S.O2	1	UNK0	0.000	
2	   O	2.213	1.740	2.519	O.2	1	UNK0	0.000	
3	   O	0.093	2.083	3.658	O.2	1	UNK0	0.000	
4	   N	0.166	0.107	1.946	N.3	1	UNK0	0.000	
5	   C	0.717	-0.322	0.713	C.3	1	UNK0	0.000	
6	   C	1.696	-1.475	1.023	C.3	1	UNK0	0.000	
7	   N	0.846	-2.559	1.385	N.pl3	1	UNK0	0.000	
8	   C	-0.001	-2.277	2.529	C.3	1	UNK0	0.000	
9	   C	0.236	-0.833	2.993	C.3	1	UNK0	0.000	
10	   C	0.794	-3.777	0.733	C.2	1	UNK0	0.000	
11	   O	-0.041	-4.636	1.249	O.2	1	UNK0	0.000	
12	   C	1.510	-4.266	-0.436	C.3	1	UNK0	0.000	
13	   C	3.004	-4.173	-0.466	C.3	1	UNK0	0.000	
14	   C	2.974	-3.509	-1.825	C.3	1	UNK0	0.000	
15	   C	1.457	-3.390	-1.666	C.3	1	UNK0	0.000	
16	   C	0.236	2.879	1.158	C.2	1	UNK0	0.000	
17	   C	-0.549	2.527	0.087	C.2	1	UNK0	0.000	
18	   C	-0.932	3.472	-0.835	C.2	1	UNK0	0.000	
19	   C	-0.562	4.796	-0.743	C.2	1	UNK0	0.000	
20	   C	0.232	5.115	0.352	C.2	1	UNK0	0.000	
21	   C	0.622	4.187	1.278	C.2	1	UNK0	0.000	
22	  Cl	1.624	4.649	2.642	Cl	1	UNK0	0.000	
23	   N	-0.961	5.768	-1.700	N.pl3	1	UNK0	0.000	
24	   C	-1.772	5.329	-2.781	C.2	1	UNK0	0.000	
25	   O	-1.948	6.036	-3.817	O.2	1	UNK0	0.000	
26	   C	-2.439	4.002	-2.702	C.3	1	UNK0	0.000	
27	   O	-1.732	3.079	-1.914	O.3	1	UNK0	0.000	
28	   H	-0.052	-0.752	0.007	 H	1	UNK0	0.000	
29	   H	1.241	0.463	0.129	 H	1	UNK0	0.000	
30	   H	2.381	-1.603	0.201	 H	1	UNK0	0.000	
31	   H	2.244	-1.212	1.988	 H	1	UNK0	0.000	
32	   H	0.202	-2.927	3.389	 H	1	UNK0	0.000	
33	   H	-1.085	-2.402	2.273	 H	1	UNK0	0.000	
34	   H	-0.636	-0.632	3.685	 H	1	UNK0	0.000	
35	   H	1.130	-0.796	3.637	 H	1	UNK0	0.000	
36	   H	1.158	-5.317	-0.706	 H	1	UNK0	0.000	
37	   H	3.458	-5.198	-0.600	 H	1	UNK0	0.000	
38	   H	3.526	-3.670	0.339	 H	1	UNK0	0.000	
39	   H	3.504	-2.543	-1.884	 H	1	UNK0	0.000	
40	   H	3.274	-4.144	-2.682	 H	1	UNK0	0.000	
41	   H	1.069	-2.381	-1.563	 H	1	UNK0	0.000	
42	   H	0.960	-3.917	-2.542	 H	1	UNK0	0.000	
43	   H	-0.886	1.486	-0.042	 H	1	UNK0	0.000	
44	   H	0.532	6.177	0.431	 H	1	UNK0	0.000	
45	   H	-0.674	6.750	-1.614	 H	1	UNK0	0.000	
46	   H	-2.588	3.624	-3.742	 H	1	UNK0	0.000	
47	   H	-3.443	4.199	-2.228	 H	1	UNK0	0.000	
@<TRIPOS>BOND
1 1 2 2
2 1 3 2
3 1 4 1
4 1 16 1
5 4 5 1
6 4 9 1
7 5 6 1
8 6 7 1
9 7 8 1
10 7 10 1
11 8 9 1
12 10 11 2
13 10 12 1
14 12 13 1
15 12 15 1
16 13 14 1
17 14 15 1
18 16 17 2
19 16 21 1
20 17 18 1
21 18 19 2
22 18 27 1
23 19 20 1
24 19 23 1
25 20 21 2
26 21 22 1
27 23 24 1
28 24 25 2
29 24 26 1
30 26 27 1
31 5 28 1
32 5 29 1
33 6 30 1
34 6 31 1
35 8 32 1
36 8 33 1
37 9 34 1
38 9 35 1
39 12 36 1
40 13 37 1
41 13 38 1
42 14 39 1
43 14 40 1
44 15 41 1
45 15 42 1
46 17 43 1
47 20 44 1
48 23 45 1
49 26 46 1
50 26 47 1
@<TRIPOS>SUBSTRUCTURE
1	UNK0	1	GROUP	1 ****	UNK
