# created with PyMOL 2.3.2
@<TRIPOS>MOLECULE
1997
41 44 1                 
SMALL
USER_CHARGES
@<TRIPOS>ATOM
1	  Br	0.587	-4.393	5.927	Br	1	UNK0	0.000	
2	   C	0.420	-4.003	4.051	C.2	1	UNK0	0.000	
3	   C	0.532	-2.715	3.599	C.2	1	UNK0	0.000	
4	   C	0.418	-2.442	2.239	C.2	1	UNK0	0.000	
5	   C	0.193	-3.438	1.325	C.2	1	UNK0	0.000	
6	   C	0.083	-4.728	1.771	C.2	1	UNK0	0.000	
7	   C	0.195	-5.040	3.136	C.2	1	UNK0	0.000	
8	   C	0.097	-3.086	-0.148	C.3	1	UNK0	0.000	
9	   N	0.141	-1.863	-0.416	N.pl3	1	UNK0	0.000	
10	   C	0.194	-0.442	-0.727	C.2	1	UNK0	0.000	
11	   O	1.121	0.342	-0.677	O.2	1	UNK0	0.000	
12	   C	-1.113	0.218	-1.185	C.3	1	UNK0	0.000	
13	   N	-0.933	1.620	-1.440	N.pl3	1	UNK0	0.000	
14	   C	-1.040	2.612	-0.430	C.2	1	UNK0	0.000	
15	   O	-1.361	2.430	0.778	O.2	1	UNK0	0.000	
16	   C	-0.705	3.900	-1.015	C.3	1	UNK0	0.000	
17	   C	-0.817	3.724	-2.544	C.3	1	UNK0	0.000	
18	   C	0.412	4.460	-2.992	C.3	1	UNK0	0.000	
19	   C	1.412	3.809	-2.039	C.3	1	UNK0	0.000	
20	   C	0.707	4.347	-0.776	C.3	1	UNK0	0.000	
21	   C	0.755	5.816	-1.124	C.2	1	UNK0	0.000	
22	   C	0.355	5.839	-2.407	C.2	1	UNK0	0.000	
23	   C	-0.634	2.258	-2.710	C.2	1	UNK0	0.000	
24	   O	-0.290	1.653	-3.737	O.2	1	UNK0	0.000	
25	   H	0.710	-1.927	4.330	 H	1	UNK0	0.000	
26	   H	0.491	-1.419	1.860	 H	1	UNK0	0.000	
27	   H	-0.095	-5.521	1.063	 H	1	UNK0	0.000	
28	   H	0.104	-6.040	3.499	 H	1	UNK0	0.000	
29	   H	-0.809	-3.735	-0.472	 H	1	UNK0	0.000	
30	   H	0.979	-3.724	-0.585	 H	1	UNK0	0.000	
31	   H	1.413	-1.726	0.065	 H	1	UNK0	0.000	
32	   H	-1.374	-0.297	-2.158	 H	1	UNK0	0.000	
33	   H	-1.876	-0.001	-0.440	 H	1	UNK0	0.000	
34	   H	-1.400	4.727	-0.716	 H	1	UNK0	0.000	
35	   H	-1.767	4.113	-2.943	 H	1	UNK0	0.000	
36	   H	0.668	4.411	-4.031	 H	1	UNK0	0.000	
37	   H	1.299	2.731	-2.123	 H	1	UNK0	0.000	
38	   H	2.419	4.191	-2.128	 H	1	UNK0	0.000	
39	   H	1.161	4.058	0.135	 H	1	UNK0	0.000	
40	   H	1.038	6.621	-0.467	 H	1	UNK0	0.000	
41	   H	0.038	6.733	-2.928	 H	1	UNK0	0.000	
@<TRIPOS>BOND
1 1 2 1
2 2 3 2
3 2 7 1
4 3 4 1
5 4 5 2
6 5 6 1
7 5 8 1
8 6 7 2
9 8 9 1
10 9 10 1
11 10 11 2
12 10 12 1
13 12 13 1
14 13 14 1
15 13 23 1
16 14 15 2
17 14 16 1
18 16 17 1
19 16 20 1
20 17 18 1
21 17 23 1
22 18 19 1
23 18 22 1
24 19 20 1
25 20 21 1
26 21 22 2
27 23 24 2
28 3 25 1
29 4 26 1
30 6 27 1
31 7 28 1
32 8 29 1
33 8 30 1
34 9 31 1
35 12 32 1
36 12 33 1
37 16 34 1
38 17 35 1
39 18 36 1
40 19 37 1
41 19 38 1
42 20 39 1
43 21 40 1
44 22 41 1
@<TRIPOS>SUBSTRUCTURE
1	UNK0	1	GROUP	1 ****	UNK
