# created with PyMOL 2.3.2
@<TRIPOS>MOLECULE
1998
41 44 1                 
SMALL
USER_CHARGES
@<TRIPOS>ATOM
1	  Cl	-0.305	4.547	-3.941	Cl	1	UNK0	0.000	
2	   C	-0.713	3.759	-2.415	C.2	1	UNK0	0.000	
3	   C	0.133	3.274	-1.455	C.2	1	UNK0	0.000	
4	   N	-0.624	2.762	-0.470	N.pl3	1	UNK0	0.000	
5	   N	-1.870	2.918	-0.799	N.2	1	UNK0	0.000	
6	   C	-1.993	3.533	-2.003	C.2	1	UNK0	0.000	
7	   C	-0.223	2.047	0.729	C.3	1	UNK0	0.000	
8	   C	-0.791	2.449	2.025	C.3	1	UNK0	0.000	
9	   O	-1.535	1.423	2.670	O.3	1	UNK0	0.000	
10	   C	-0.519	0.451	2.926	C.3	1	UNK0	0.000	
11	   C	-0.084	-0.196	1.686	C.3	1	UNK0	0.000	
12	   C	-0.693	0.587	0.504	C.3	1	UNK0	0.000	
13	   O	-0.262	0.120	-0.705	O.3	1	UNK0	0.000	
14	   N	-0.291	-1.578	1.411	N.3	1	UNK0	0.000	
15	   C	1.015	-2.242	1.200	C.3	1	UNK0	0.000	
16	   C	0.814	-3.483	0.444	C.2	1	UNK0	0.000	
17	   N	1.032	-3.536	-0.920	N.pl3	1	UNK0	0.000	
18	   C	0.747	-4.749	-1.356	C.2	1	UNK0	0.000	
19	   C	0.339	-5.499	-0.270	C.2	1	UNK0	0.000	
20	   N	0.399	-4.668	0.819	N.2	1	UNK0	0.000	
21	   C	1.488	-2.447	-1.778	C.3	1	UNK0	0.000	
22	   C	0.546	1.393	3.491	C.3	1	UNK0	0.000	
23	   O	0.203	2.646	3.018	O.3	1	UNK0	0.000	
24	   H	1.216	3.290	-1.492	 H	1	UNK0	0.000	
25	   H	-2.917	3.769	-2.509	 H	1	UNK0	0.000	
26	   H	0.877	1.989	0.803	 H	1	UNK0	0.000	
27	   H	-1.401	3.362	1.926	 H	1	UNK0	0.000	
28	   H	-0.850	-0.244	3.707	 H	1	UNK0	0.000	
29	   H	1.032	0.010	1.562	 H	1	UNK0	0.000	
30	   H	-1.781	0.637	0.638	 H	1	UNK0	0.000	
31	   H	-1.056	-0.051	-1.263	 H	1	UNK0	0.000	
32	   H	-0.741	-2.053	2.255	 H	1	UNK0	0.000	
33	   H	1.671	-1.499	0.711	 H	1	UNK0	0.000	
34	   H	1.444	-2.396	2.219	 H	1	UNK0	0.000	
35	   H	0.804	-5.153	-2.377	 H	1	UNK0	0.000	
36	   H	0.023	-6.547	-0.267	 H	1	UNK0	0.000	
37	   H	2.176	-2.849	-2.577	 H	1	UNK0	0.000	
38	   H	2.057	-1.680	-1.255	 H	1	UNK0	0.000	
39	   H	0.584	-2.029	-2.313	 H	1	UNK0	0.000	
40	   H	0.565	1.329	4.597	 H	1	UNK0	0.000	
41	   H	1.527	1.136	3.044	 H	1	UNK0	0.000	
@<TRIPOS>BOND
1 1 2 1
2 2 3 2
3 2 6 1
4 3 4 1
5 4 5 1
6 4 7 1
7 5 6 2
8 7 8 1
9 7 12 1
10 8 9 1
11 8 23 1
12 9 10 1
13 10 11 1
14 10 22 1
15 11 12 1
16 11 14 1
17 12 13 1
18 14 15 1
19 15 16 1
20 16 17 1
21 16 20 2
22 17 18 1
23 17 21 1
24 18 19 2
25 19 20 1
26 22 23 1
27 3 24 1
28 6 25 1
29 7 26 1
30 8 27 1
31 10 28 1
32 11 29 1
33 12 30 1
34 13 31 1
35 14 32 1
36 15 33 1
37 15 34 1
38 18 35 1
39 19 36 1
40 21 37 1
41 21 38 1
42 21 39 1
43 22 40 1
44 22 41 1
@<TRIPOS>SUBSTRUCTURE
1	UNK0	1	GROUP	1 ****	UNK
