# created with PyMOL 2.3.2
@<TRIPOS>MOLECULE
1999
40 43 1                 
SMALL
USER_CHARGES
@<TRIPOS>ATOM
1	  Cl	5.057	3.210	2.045	Cl	1	UNK0	0.000	
2	   C	3.333	3.412	1.993	C.2	1	UNK0	0.000	
3	   C	2.379	2.440	1.869	C.2	1	UNK0	0.000	
4	   N	1.136	3.040	1.880	N.pl3	1	UNK0	0.000	
5	   N	1.307	4.320	1.997	N.2	1	UNK0	0.000	
6	   C	2.634	4.606	2.070	C.2	1	UNK0	0.000	
7	   C	-0.111	2.298	1.801	C.3	1	UNK0	0.000	
8	   C	-1.174	3.063	1.109	C.3	1	UNK0	0.000	
9	   O	-1.407	2.592	-0.198	O.3	1	UNK0	0.000	
10	   C	-2.062	1.382	0.046	C.3	1	UNK0	0.000	
11	   C	-1.022	0.397	0.480	C.3	1	UNK0	0.000	
12	   C	0.190	0.976	1.113	C.3	1	UNK0	0.000	
13	   O	0.692	0.069	2.082	O.3	1	UNK0	0.000	
14	   N	-0.661	-0.525	-0.554	N.3	1	UNK0	0.000	
15	   C	-1.792	-1.446	-0.898	C.3	1	UNK0	0.000	
16	   C	-1.244	-2.834	-0.554	C.2	1	UNK0	0.000	
17	   N	-1.951	-3.554	0.331	N.2	1	UNK0	0.000	
18	   C	-1.415	-4.700	0.841	C.2	1	UNK0	0.000	
19	   C	-0.161	-5.082	0.433	C.2	1	UNK0	0.000	
20	   C	0.569	-4.353	-0.477	C.2	1	UNK0	0.000	
21	   C	-0.004	-3.164	-0.998	C.2	1	UNK0	0.000	
22	   C	-2.918	1.772	1.266	C.3	1	UNK0	0.000	
23	   O	-2.390	2.959	1.717	O.3	1	UNK0	0.000	
24	   H	2.509	1.392	1.776	 H	1	UNK0	0.000	
25	   H	3.056	5.563	2.178	 H	1	UNK0	0.000	
26	   H	-0.431	2.088	2.868	 H	1	UNK0	0.000	
27	   H	-0.871	4.136	0.979	 H	1	UNK0	0.000	
28	   H	-2.633	1.056	-0.817	 H	1	UNK0	0.000	
29	   H	-1.530	-0.283	1.322	 H	1	UNK0	0.000	
30	   H	1.000	1.168	0.414	 H	1	UNK0	0.000	
31	   H	0.093	0.012	2.856	 H	1	UNK0	0.000	
32	   H	-0.412	-0.010	-1.450	 H	1	UNK0	0.000	
33	   H	-1.873	-1.422	-1.988	 H	1	UNK0	0.000	
34	   H	-2.664	-1.208	-0.350	 H	1	UNK0	0.000	
35	   H	-1.942	-5.300	1.554	 H	1	UNK0	0.000	
36	   H	0.334	-5.986	0.812	 H	1	UNK0	0.000	
37	   H	1.554	-4.597	-0.843	 H	1	UNK0	0.000	
38	   H	0.532	-2.578	-1.717	 H	1	UNK0	0.000	
39	   H	-2.897	0.942	2.029	 H	1	UNK0	0.000	
40	   H	-3.951	1.897	0.899	 H	1	UNK0	0.000	
@<TRIPOS>BOND
1 1 2 1
2 2 3 2
3 2 6 1
4 3 4 1
5 4 5 1
6 4 7 1
7 5 6 2
8 7 8 1
9 7 12 1
10 8 9 1
11 8 23 1
12 9 10 1
13 10 11 1
14 10 22 1
15 11 12 1
16 11 14 1
17 12 13 1
18 14 15 1
19 15 16 1
20 16 17 2
21 16 21 1
22 17 18 1
23 18 19 2
24 19 20 1
25 20 21 2
26 22 23 1
27 3 24 1
28 6 25 1
29 7 26 1
30 8 27 1
31 10 28 1
32 11 29 1
33 12 30 1
34 13 31 1
35 14 32 1
36 15 33 1
37 15 34 1
38 18 35 1
39 19 36 1
40 20 37 1
41 21 38 1
42 22 39 1
43 22 40 1
@<TRIPOS>SUBSTRUCTURE
1	UNK0	1	GROUP	1 ****	UNK
