# created with PyMOL 2.3.2
@<TRIPOS>MOLECULE
2000
55 57 1                 
SMALL
USER_CHARGES
@<TRIPOS>ATOM
1	  Cl	-3.799	-1.378	2.700	Cl	1	UNK0	0.000	
2	   C	-3.797	-0.422	1.258	C.2	1	UNK0	0.000	
3	   C	-2.663	0.182	0.803	C.2	1	UNK0	0.000	
4	   C	-2.801	0.892	-0.380	C.2	1	UNK0	0.000	
5	   C	-1.665	1.511	-0.881	C.2	1	UNK0	0.000	
6	   C	-0.463	1.429	-0.243	C.2	1	UNK0	0.000	
7	   C	-0.349	0.713	0.940	C.2	1	UNK0	0.000	
8	   C	-1.456	0.075	1.488	C.2	1	UNK0	0.000	
9	   C	-1.395	-0.667	2.769	C.3	1	UNK0	0.000	
10	   C	0.962	0.658	1.548	C.3	1	UNK0	0.000	
11	   C	2.141	0.527	0.561	C.3	1	UNK0	0.000	
12	   C	2.062	1.430	-0.610	C.3	1	UNK0	0.000	
13	   C	2.336	0.855	-1.931	C.2	1	UNK0	0.000	
14	   O	1.886	1.400	-2.937	O.2	1	UNK0	0.000	
15	   C	3.130	-0.352	-2.138	C.3	1	UNK0	0.000	
16	   C	2.833	-1.278	-1.021	C.2	1	UNK0	0.000	
17	   O	2.945	-2.484	-1.247	O.2	1	UNK0	0.000	
18	   C	2.417	-0.906	0.332	C.3	1	UNK0	0.000	
19	   N	1.337	-1.807	0.703	N.3	1	UNK0	0.000	
20	   C	1.911	-3.087	1.132	C.3	1	UNK0	0.000	
21	   C	0.410	-2.104	-0.331	C.3	1	UNK0	0.000	
22	   C	2.641	-1.040	-3.386	C.2	1	UNK0	0.000	
23	   O	3.436	-1.122	-4.349	O.2	1	UNK0	0.000	
24	   N	1.346	-1.589	-3.516	N.pl3	1	UNK0	0.000	
25	   C	0.732	2.078	-0.733	C.2	1	UNK0	0.000	
26	   O	0.632	3.197	-1.263	O.2	1	UNK0	0.000	
27	   O	2.977	2.519	-0.512	O.3	1	UNK0	0.000	
28	   O	-1.807	2.214	-2.058	O.3	1	UNK0	0.000	
29	   C	-4.003	0.987	-1.058	C.2	1	UNK0	0.000	
30	   C	-5.125	0.362	-0.562	C.2	1	UNK0	0.000	
31	   C	-5.041	-0.353	0.604	C.2	1	UNK0	0.000	
32	   O	-4.079	1.714	-2.239	O.3	1	UNK0	0.000	
33	  Cl	-0.929	-1.615	1.585	Cl	1	UNK0	0.000	
34	   H	-0.358	-0.448	3.195	 H	1	UNK0	0.000	
35	   H	-1.365	-1.744	2.710	 H	1	UNK0	0.000	
36	   H	-1.968	-0.189	3.594	 H	1	UNK0	0.000	
37	   H	1.145	-0.160	2.265	 H	1	UNK0	0.000	
38	   H	1.090	1.614	2.140	 H	1	UNK0	0.000	
39	   H	3.001	0.931	1.190	 H	1	UNK0	0.000	
40	   H	4.190	-0.121	-2.236	 H	1	UNK0	0.000	
41	   H	3.276	-1.258	0.993	 H	1	UNK0	0.000	
42	   H	1.558	-3.414	2.109	 H	1	UNK0	0.000	
43	   H	3.027	-2.997	1.202	 H	1	UNK0	0.000	
44	   H	1.689	-3.903	0.390	 H	1	UNK0	0.000	
45	   H	0.684	-2.996	-0.959	 H	1	UNK0	0.000	
46	   H	-0.559	-2.408	0.165	 H	1	UNK0	0.000	
47	   H	0.147	-1.315	-1.028	 H	1	UNK0	0.000	
48	   H	1.195	-2.630	-3.392	 H	1	UNK0	0.000	
49	   H	0.479	-1.046	-3.732	 H	1	UNK0	0.000	
50	   H	3.776	2.150	-0.069	 H	1	UNK0	0.000	
51	   H	-1.051	2.661	-2.500	 H	1	UNK0	0.000	
52	   H	-6.060	0.456	-1.122	 H	1	UNK0	0.000	
53	   H	-5.919	-0.853	1.006	 H	1	UNK0	0.000	
54	   H	-4.948	1.787	-2.735	 H	1	UNK0	0.000	
55	   H	-1.537	-0.391	1.651	 H	1	UNK0	0.000	
@<TRIPOS>BOND
1 1 2 1
2 2 3 2
3 2 31 1
4 3 4 1
5 3 8 1
6 4 5 1
7 4 29 2
8 5 6 2
9 5 28 1
10 6 7 1
11 6 25 1
12 7 8 2
13 7 10 1
14 8 9 1
15 10 11 1
16 11 12 1
17 11 18 1
18 12 13 1
19 12 25 1
20 12 27 1
21 13 14 2
22 13 15 1
23 15 16 1
24 15 22 1
25 16 17 2
26 16 18 1
27 18 19 1
28 19 20 1
29 19 21 1
30 22 23 2
31 22 24 1
32 25 26 2
33 29 30 1
34 29 32 1
35 30 31 2
36 9 34 1
37 9 35 1
38 9 36 1
39 10 37 1
40 10 38 1
41 11 39 1
42 15 40 1
43 18 41 1
44 20 42 1
45 20 43 1
46 20 44 1
47 21 45 1
48 21 46 1
49 21 47 1
50 24 48 1
51 24 49 1
52 27 50 1
53 28 51 1
54 30 52 1
55 31 53 1
56 32 54 1
57 33 55 1
@<TRIPOS>SUBSTRUCTURE
1	UNK0	1	GROUP	1 ****	UNK
