# created with PyMOL 2.3.2
@<TRIPOS>MOLECULE
2001
44 47 1                 
SMALL
USER_CHARGES
@<TRIPOS>ATOM
1	   S	-0.631	0.520	2.430	S.O2	1	UNK0	0.000	
2	   O	-1.518	1.689	2.003	O.2	1	UNK0	0.000	
3	   O	-0.707	0.487	3.938	O.2	1	UNK0	0.000	
4	   N	0.929	0.853	1.867	N.3	1	UNK0	0.000	
5	   C	1.928	0.866	2.885	C.3	1	UNK0	0.000	
6	   C	3.285	0.516	2.271	C.3	1	UNK0	0.000	
7	   N	3.193	1.032	0.859	N.pl3	1	UNK0	0.000	
8	   C	2.551	2.316	0.819	C.3	1	UNK0	0.000	
9	   C	1.042	2.051	1.042	C.3	1	UNK0	0.000	
10	   C	3.728	0.237	-0.105	C.2	1	UNK0	0.000	
11	   O	4.297	-0.868	0.318	O.2	1	UNK0	0.000	
12	   C	3.783	0.393	-1.551	C.2	1	UNK0	0.000	
13	   S	4.590	-0.716	-2.642	S.3	1	UNK0	0.000	
14	   C	4.238	0.034	-4.120	C.2	1	UNK0	0.000	
15	   C	3.505	1.123	-3.746	C.2	1	UNK0	0.000	
16	   C	3.278	1.297	-2.424	C.2	1	UNK0	0.000	
17	   C	-1.359	-0.924	1.811	C.2	1	UNK0	0.000	
18	   C	-2.558	-0.877	1.081	C.2	1	UNK0	0.000	
19	   C	-3.170	-1.991	0.572	C.2	1	UNK0	0.000	
20	   C	-2.570	-3.217	0.793	C.2	1	UNK0	0.000	
21	   C	-1.398	-3.318	1.500	C.2	1	UNK0	0.000	
22	   C	-0.795	-2.154	2.009	C.2	1	UNK0	0.000	
23	  Cl	0.696	-2.316	2.906	Cl	1	UNK0	0.000	
24	   N	-3.184	-4.405	0.273	N.pl3	1	UNK0	0.000	
25	   C	-4.398	-4.255	-0.454	C.2	1	UNK0	0.000	
26	   O	-5.229	-5.181	-0.503	O.2	1	UNK0	0.000	
27	   C	-4.595	-2.934	-1.138	C.3	1	UNK0	0.000	
28	   O	-4.356	-1.946	-0.151	O.3	1	UNK0	0.000	
29	   H	1.687	0.275	3.766	 H	1	UNK0	0.000	
30	   H	2.059	1.942	3.256	 H	1	UNK0	0.000	
31	   H	4.114	1.000	2.784	 H	1	UNK0	0.000	
32	   H	3.327	-0.572	2.193	 H	1	UNK0	0.000	
33	   H	2.657	2.876	-0.088	 H	1	UNK0	0.000	
34	   H	2.903	2.929	1.708	 H	1	UNK0	0.000	
35	   H	0.650	2.902	1.616	 H	1	UNK0	0.000	
36	   H	0.589	1.896	0.056	 H	1	UNK0	0.000	
37	   H	4.516	-0.257	-5.158	 H	1	UNK0	0.000	
38	   H	3.102	1.854	-4.497	 H	1	UNK0	0.000	
39	   H	2.668	2.168	-2.065	 H	1	UNK0	0.000	
40	   H	-3.003	0.101	0.925	 H	1	UNK0	0.000	
41	   H	-0.940	-4.268	1.667	 H	1	UNK0	0.000	
42	   H	-2.762	-5.346	0.420	 H	1	UNK0	0.000	
43	   H	-3.787	-2.853	-1.915	 H	1	UNK0	0.000	
44	   H	-5.580	-2.848	-1.590	 H	1	UNK0	0.000	
@<TRIPOS>BOND
1 1 2 2
2 1 3 2
3 1 4 1
4 1 17 1
5 4 5 1
6 4 9 1
7 5 6 1
8 6 7 1
9 7 8 1
10 7 10 1
11 8 9 1
12 10 11 2
13 10 12 1
14 12 13 1
15 12 16 2
16 13 14 1
17 14 15 2
18 15 16 1
19 17 18 2
20 17 22 1
21 18 19 1
22 19 20 2
23 19 28 1
24 20 21 1
25 20 24 1
26 21 22 2
27 22 23 1
28 24 25 1
29 25 26 2
30 25 27 1
31 27 28 1
32 5 29 1
33 5 30 1
34 6 31 1
35 6 32 1
36 8 33 1
37 8 34 1
38 9 35 1
39 9 36 1
40 14 37 1
41 15 38 1
42 16 39 1
43 18 40 1
44 21 41 1
45 24 42 1
46 27 43 1
47 27 44 1
@<TRIPOS>SUBSTRUCTURE
1	UNK0	1	GROUP	1 ****	UNK
