# created with PyMOL 2.3.2
@<TRIPOS>MOLECULE
2002
47 50 1                 
SMALL
USER_CHARGES
@<TRIPOS>ATOM
1	   S	-2.142	-2.456	3.086	S.O2	1	UNK0	0.000	
2	   O	-2.205	-2.278	4.581	O.2	1	UNK0	0.000	
3	   O	-2.122	-3.970	2.881	O.2	1	UNK0	0.000	
4	   N	-0.693	-1.846	2.455	N.3	1	UNK0	0.000	
5	   C	-0.397	-2.134	1.099	C.3	1	UNK0	0.000	
6	   C	1.107	-1.813	0.904	C.3	1	UNK0	0.000	
7	   N	1.425	-0.608	1.551	N.pl3	1	UNK0	0.000	
8	   C	1.362	-0.754	3.051	C.3	1	UNK0	0.000	
9	   C	0.396	-1.865	3.386	C.3	1	UNK0	0.000	
10	   C	1.719	0.644	1.092	C.2	1	UNK0	0.000	
11	   O	2.059	1.498	2.099	O.2	1	UNK0	0.000	
12	   C	1.767	1.312	-0.192	C.2	1	UNK0	0.000	
13	   S	2.429	2.928	-0.335	S.3	1	UNK0	0.000	
14	   C	2.170	3.202	-1.995	C.2	1	UNK0	0.000	
15	   C	1.580	2.045	-2.396	C.2	1	UNK0	0.000	
16	   C	1.376	1.083	-1.464	C.2	1	UNK0	0.000	
17	  Cl	0.527	-0.455	-1.855	Cl	1	UNK0	0.000	
18	   C	1.248	1.997	-3.769	C.2	1	UNK0	0.000	
19	   C	1.518	3.052	-4.588	C.2	1	UNK0	0.000	
20	   C	2.116	4.216	-4.166	C.2	1	UNK0	0.000	
21	   C	2.446	4.288	-2.849	C.2	1	UNK0	0.000	
22	   N	-3.487	-1.854	2.291	N.3	1	UNK0	0.000	
23	   C	-3.661	-2.122	0.917	C.3	1	UNK0	0.000	
24	   C	-3.742	-0.762	0.207	C.3	1	UNK0	0.000	
25	   O	-4.969	-0.216	0.556	O.3	1	UNK0	0.000	
26	   C	-5.120	-0.057	1.923	C.3	1	UNK0	0.000	
27	   C	-3.961	-0.588	2.717	C.3	1	UNK0	0.000	
28	   H	-0.586	-3.169	0.825	 H	1	UNK0	0.000	
29	   H	-0.977	-1.422	0.474	 H	1	UNK0	0.000	
30	   H	1.641	-2.654	1.543	 H	1	UNK0	0.000	
31	   H	1.493	-2.053	-0.066	 H	1	UNK0	0.000	
32	   H	1.045	0.211	3.460	 H	1	UNK0	0.000	
33	   H	2.396	-0.960	3.350	 H	1	UNK0	0.000	
34	   H	-0.065	-1.669	4.392	 H	1	UNK0	0.000	
35	   H	0.936	-2.824	3.377	 H	1	UNK0	0.000	
36	   H	0.775	1.127	-4.204	 H	1	UNK0	0.000	
37	   H	1.251	2.982	-5.634	 H	1	UNK0	0.000	
38	   H	2.336	5.058	-4.804	 H	1	UNK0	0.000	
39	   H	2.919	5.127	-2.359	 H	1	UNK0	0.000	
40	   H	-4.668	-2.610	0.745	 H	1	UNK0	0.000	
41	   H	-2.902	-2.752	0.451	 H	1	UNK0	0.000	
42	   H	-2.965	-0.089	0.638	 H	1	UNK0	0.000	
43	   H	-3.677	-0.855	-0.875	 H	1	UNK0	0.000	
44	   H	-6.095	-0.464	2.263	 H	1	UNK0	0.000	
45	   H	-5.168	1.042	2.116	 H	1	UNK0	0.000	
46	   H	-4.334	-0.706	3.776	 H	1	UNK0	0.000	
47	   H	-3.120	0.127	2.774	 H	1	UNK0	0.000	
@<TRIPOS>BOND
1 1 2 2
2 1 3 2
3 1 4 1
4 1 22 1
5 4 5 1
6 4 9 1
7 5 6 1
8 6 7 1
9 7 8 1
10 7 10 1
11 8 9 1
12 10 11 2
13 10 12 1
14 12 13 1
15 12 16 2
16 13 14 1
17 14 15 2
18 14 21 1
19 15 16 1
20 15 18 1
21 16 17 1
22 18 19 2
23 19 20 1
24 20 21 2
25 22 23 1
26 22 27 1
27 23 24 1
28 24 25 1
29 25 26 1
30 26 27 1
31 5 28 1
32 5 29 1
33 6 30 1
34 6 31 1
35 8 32 1
36 8 33 1
37 9 34 1
38 9 35 1
39 18 36 1
40 19 37 1
41 20 38 1
42 21 39 1
43 23 40 1
44 23 41 1
45 24 42 1
46 24 43 1
47 26 44 1
48 26 45 1
49 27 46 1
50 27 47 1
@<TRIPOS>SUBSTRUCTURE
1	UNK0	1	GROUP	1 ****	UNK
