# created with PyMOL 2.3.2
@<TRIPOS>MOLECULE
2003
43 46 1                 
SMALL
USER_CHARGES
@<TRIPOS>ATOM
1	   S	-2.205	-1.793	2.604	S.O2	1	UNK0	0.000	
2	   O	-2.461	-3.251	2.626	O.2	1	UNK0	0.000	
3	   O	-1.766	-1.330	3.975	O.2	1	UNK0	0.000	
4	   N	-0.997	-1.399	1.485	N.3	1	UNK0	0.000	
5	   C	-0.648	-0.012	1.447	C.3	1	UNK0	0.000	
6	   C	0.633	0.261	0.704	C.3	1	UNK0	0.000	
7	   N	0.804	-0.610	-0.436	N.pl3	1	UNK0	0.000	
8	   C	-0.162	-1.600	-0.832	C.3	1	UNK0	0.000	
9	   C	-1.102	-2.042	0.224	C.3	1	UNK0	0.000	
10	   C	1.990	-0.479	-1.208	C.2	1	UNK0	0.000	
11	   O	2.200	-1.218	-2.227	O.2	1	UNK0	0.000	
12	   C	3.010	0.509	-0.857	C.2	1	UNK0	0.000	
13	   C	4.063	0.239	-0.006	C.2	1	UNK0	0.000	
14	   N	4.966	1.198	0.271	N.2	1	UNK0	0.000	
15	   C	4.908	2.440	-0.243	C.2	1	UNK0	0.000	
16	   N	3.888	2.719	-1.075	N.pl3	1	UNK0	0.000	
17	   C	3.813	3.958	-1.601	C.2	1	UNK0	0.000	
18	   C	4.742	4.937	-1.312	C.2	1	UNK0	0.000	
19	   C	5.801	4.682	-0.462	C.2	1	UNK0	0.000	
20	   C	5.859	3.404	0.066	C.2	1	UNK0	0.000	
21	   C	2.964	1.787	-1.377	C.2	1	UNK0	0.000	
22	   O	2.012	2.047	-2.153	O.2	1	UNK0	0.000	
23	   C	-3.688	-0.927	2.168	C.2	1	UNK0	0.000	
24	   S	-3.966	0.750	2.042	S.3	1	UNK0	0.000	
25	   C	-5.609	0.718	1.587	C.2	1	UNK0	0.000	
26	   C	-5.893	-0.619	1.547	C.2	1	UNK0	0.000	
27	   C	-4.906	-1.469	1.846	C.2	1	UNK0	0.000	
28	  Cl	-6.716	2.062	1.240	Cl	1	UNK0	0.000	
29	   H	-1.458	0.539	0.926	 H	1	UNK0	0.000	
30	   H	-0.598	0.358	2.490	 H	1	UNK0	0.000	
31	   H	0.725	1.317	0.389	 H	1	UNK0	0.000	
32	   H	1.464	0.054	1.408	 H	1	UNK0	0.000	
33	   H	0.437	-2.500	-1.162	 H	1	UNK0	0.000	
34	   H	-0.690	-1.274	-1.765	 H	1	UNK0	0.000	
35	   H	-2.151	-1.863	-0.154	 H	1	UNK0	0.000	
36	   H	-1.053	-3.156	0.406	 H	1	UNK0	0.000	
37	   H	4.121	-0.757	0.415	 H	1	UNK0	0.000	
38	   H	2.986	4.177	-2.272	 H	1	UNK0	0.000	
39	   H	4.679	5.937	-1.738	 H	1	UNK0	0.000	
40	   H	6.548	5.425	-0.214	 H	1	UNK0	0.000	
41	   H	6.681	3.182	0.734	 H	1	UNK0	0.000	
42	   H	-6.915	-0.956	1.273	 H	1	UNK0	0.000	
43	   H	-5.013	-2.579	1.848	 H	1	UNK0	0.000	
@<TRIPOS>BOND
1 1 2 2
2 1 3 2
3 1 4 1
4 1 23 1
5 4 5 1
6 4 9 1
7 5 6 1
8 6 7 1
9 7 8 1
10 7 10 1
11 8 9 1
12 10 11 2
13 10 12 1
14 12 13 2
15 12 21 1
16 13 14 1
17 14 15 2
18 15 16 1
19 15 20 1
20 16 17 1
21 16 21 1
22 17 18 2
23 18 19 1
24 19 20 2
25 21 22 2
26 23 24 1
27 23 27 2
28 24 25 1
29 25 26 2
30 25 28 1
31 26 27 1
32 5 29 1
33 5 30 1
34 6 31 1
35 6 32 1
36 8 33 1
37 8 34 1
38 9 35 1
39 9 36 1
40 13 37 1
41 17 38 1
42 18 39 1
43 19 40 1
44 20 41 1
45 26 42 1
46 27 43 1
@<TRIPOS>SUBSTRUCTURE
1	UNK0	1	GROUP	1 ****	UNK
