# created with PyMOL 2.3.2
@<TRIPOS>MOLECULE
2004
50 53 1                 
SMALL
USER_CHARGES
@<TRIPOS>ATOM
1	   S	-1.081	-2.143	1.584	S.O2	1	UNK0	0.000	
2	   O	-1.900	-2.524	2.808	O.2	1	UNK0	0.000	
3	   O	-0.157	-3.341	1.372	O.2	1	UNK0	0.000	
4	   N	-0.154	-0.778	1.865	N.3	1	UNK0	0.000	
5	   C	-0.811	0.424	2.138	C.3	1	UNK0	0.000	
6	   C	0.138	1.522	2.640	C.3	1	UNK0	0.000	
7	   N	1.396	1.484	1.956	N.pl3	1	UNK0	0.000	
8	   C	2.024	0.196	1.758	C.3	1	UNK0	0.000	
9	   C	1.016	-0.668	1.026	C.3	1	UNK0	0.000	
10	   C	1.991	2.665	1.497	C.2	1	UNK0	0.000	
11	   O	1.426	3.773	1.680	O.2	1	UNK0	0.000	
12	   C	3.304	2.675	0.778	C.3	1	UNK0	0.000	
13	   C	3.761	4.056	0.371	C.3	1	UNK0	0.000	
14	   C	3.038	3.832	-0.955	C.3	1	UNK0	0.000	
15	   C	3.145	2.329	-0.681	C.3	1	UNK0	0.000	
16	   C	-2.156	-2.092	0.204	C.2	1	UNK0	0.000	
17	   C	-1.791	-2.791	-0.964	C.2	1	UNK0	0.000	
18	   C	-2.565	-2.741	-2.101	C.2	1	UNK0	0.000	
19	   C	-3.731	-2.013	-2.171	C.2	1	UNK0	0.000	
20	   C	-4.092	-1.332	-1.035	C.2	1	UNK0	0.000	
21	   C	-3.318	-1.371	0.134	C.2	1	UNK0	0.000	
22	  Cl	-3.886	-0.538	1.561	Cl	1	UNK0	0.000	
23	   N	-4.480	-2.001	-3.372	N.pl3	1	UNK0	0.000	
24	   C	-4.073	-2.719	-4.530	C.2	1	UNK0	0.000	
25	   O	-4.799	-2.958	-5.514	O.2	1	UNK0	0.000	
26	   C	-2.669	-3.208	-4.536	C.3	1	UNK0	0.000	
27	   O	-2.181	-3.443	-3.244	O.3	1	UNK0	0.000	
28	   C	-1.757	-2.210	-5.213	C.3	1	UNK0	0.000	
29	   H	-1.508	0.284	2.988	 H	1	UNK0	0.000	
30	   H	-1.352	0.828	1.272	 H	1	UNK0	0.000	
31	   H	-0.354	2.491	2.468	 H	1	UNK0	0.000	
32	   H	0.339	1.342	3.714	 H	1	UNK0	0.000	
33	   H	2.985	0.263	1.227	 H	1	UNK0	0.000	
34	   H	2.179	-0.263	2.775	 H	1	UNK0	0.000	
35	   H	0.743	-0.178	0.068	 H	1	UNK0	0.000	
36	   H	1.421	-1.669	0.862	 H	1	UNK0	0.000	
37	   H	4.083	2.085	1.319	 H	1	UNK0	0.000	
38	   H	4.847	4.158	0.248	 H	1	UNK0	0.000	
39	   H	3.309	4.891	0.968	 H	1	UNK0	0.000	
40	   H	1.997	4.194	-0.945	 H	1	UNK0	0.000	
41	   H	3.586	4.182	-1.833	 H	1	UNK0	0.000	
42	   H	4.054	1.862	-1.118	 H	1	UNK0	0.000	
43	   H	2.240	1.766	-0.939	 H	1	UNK0	0.000	
44	   H	-0.882	-3.363	-0.923	 H	1	UNK0	0.000	
45	   H	-4.997	-0.748	-1.041	 H	1	UNK0	0.000	
46	   H	-5.366	-1.446	-3.419	 H	1	UNK0	0.000	
47	   H	-2.643	-4.150	-5.104	 H	1	UNK0	0.000	
48	   H	-2.398	-1.486	-5.793	 H	1	UNK0	0.000	
49	   H	-1.068	-2.742	-5.892	 H	1	UNK0	0.000	
50	   H	-1.207	-1.625	-4.452	 H	1	UNK0	0.000	
@<TRIPOS>BOND
1 1 2 2
2 1 3 2
3 1 4 1
4 1 16 1
5 4 5 1
6 4 9 1
7 5 6 1
8 6 7 1
9 7 8 1
10 7 10 1
11 8 9 1
12 10 11 2
13 10 12 1
14 12 13 1
15 12 15 1
16 13 14 1
17 14 15 1
18 16 17 2
19 16 21 1
20 17 18 1
21 18 19 2
22 18 27 1
23 19 20 1
24 19 23 1
25 20 21 2
26 21 22 1
27 23 24 1
28 24 25 2
29 24 26 1
30 26 27 1
31 26 28 1
32 5 29 1
33 5 30 1
34 6 31 1
35 6 32 1
36 8 33 1
37 8 34 1
38 9 35 1
39 9 36 1
40 12 37 1
41 13 38 1
42 13 39 1
43 14 40 1
44 14 41 1
45 15 42 1
46 15 43 1
47 17 44 1
48 20 45 1
49 23 46 1
50 26 47 1
51 28 48 1
52 28 49 1
53 28 50 1
@<TRIPOS>SUBSTRUCTURE
1	UNK0	1	GROUP	1 ****	UNK
