# created with PyMOL 2.3.2
@<TRIPOS>MOLECULE
2005
50 53 1                 
SMALL
USER_CHARGES
@<TRIPOS>ATOM
1	   S	-2.401	1.280	-0.069	S.O2	1	UNK0	0.000	
2	   O	-3.763	0.719	0.320	O.2	1	UNK0	0.000	
3	   O	-2.670	2.732	-0.404	O.2	1	UNK0	0.000	
4	   N	-1.830	0.513	-1.435	N.3	1	UNK0	0.000	
5	   C	-2.459	-0.629	-1.926	C.3	1	UNK0	0.000	
6	   C	-1.584	-1.633	-2.602	C.3	1	UNK0	0.000	
7	   N	-0.272	-1.620	-1.956	N.pl3	1	UNK0	0.000	
8	   C	0.425	-0.355	-1.961	C.3	1	UNK0	0.000	
9	   C	-0.513	0.796	-1.855	C.3	1	UNK0	0.000	
10	   C	0.268	-2.793	-1.362	C.2	1	UNK0	0.000	
11	   O	-0.373	-3.866	-1.371	O.2	1	UNK0	0.000	
12	   C	1.589	-2.744	-0.736	C.3	1	UNK0	0.000	
13	   C	1.942	-4.088	-0.076	C.3	1	UNK0	0.000	
14	   C	3.412	-3.823	0.272	C.3	1	UNK0	0.000	
15	   C	3.924	-2.939	-0.848	C.3	1	UNK0	0.000	
16	   C	2.728	-2.658	-1.735	C.3	1	UNK0	0.000	
17	   C	-1.329	1.257	1.319	C.2	1	UNK0	0.000	
18	   C	-0.844	2.454	1.857	C.2	1	UNK0	0.000	
19	   C	0.005	2.494	2.941	C.2	1	UNK0	0.000	
20	   C	0.424	1.335	3.558	C.2	1	UNK0	0.000	
21	   C	-0.046	0.149	3.039	C.2	1	UNK0	0.000	
22	   C	-0.906	0.104	1.940	C.2	1	UNK0	0.000	
23	  Cl	-1.465	-1.432	1.342	Cl	1	UNK0	0.000	
24	   N	1.302	1.387	4.677	N.pl3	1	UNK0	0.000	
25	   C	1.760	2.638	5.175	C.2	1	UNK0	0.000	
26	   O	2.354	2.764	6.275	O.2	1	UNK0	0.000	
27	   C	1.524	3.849	4.356	C.3	1	UNK0	0.000	
28	   O	0.469	3.699	3.451	O.3	1	UNK0	0.000	
29	   H	-3.048	-1.134	-1.139	 H	1	UNK0	0.000	
30	   H	-3.245	-0.292	-2.674	 H	1	UNK0	0.000	
31	   H	-2.009	-2.649	-2.625	 H	1	UNK0	0.000	
32	   H	-1.409	-1.294	-3.644	 H	1	UNK0	0.000	
33	   H	1.009	-0.254	-2.922	 H	1	UNK0	0.000	
34	   H	1.176	-0.384	-1.138	 H	1	UNK0	0.000	
35	   H	-0.060	1.539	-1.144	 H	1	UNK0	0.000	
36	   H	-0.571	1.357	-2.832	 H	1	UNK0	0.000	
37	   H	1.737	-1.963	0.012	 H	1	UNK0	0.000	
38	   H	1.913	-4.879	-0.836	 H	1	UNK0	0.000	
39	   H	1.336	-4.270	0.812	 H	1	UNK0	0.000	
40	   H	3.397	-3.227	1.221	 H	1	UNK0	0.000	
41	   H	3.982	-4.742	0.400	 H	1	UNK0	0.000	
42	   H	4.324	-1.983	-0.459	 H	1	UNK0	0.000	
43	   H	4.735	-3.461	-1.391	 H	1	UNK0	0.000	
44	   H	2.789	-1.718	-2.275	 H	1	UNK0	0.000	
45	   H	2.651	-3.545	-2.427	 H	1	UNK0	0.000	
46	   H	-1.169	3.374	1.375	 H	1	UNK0	0.000	
47	   H	0.278	-0.769	3.516	 H	1	UNK0	0.000	
48	   H	1.619	0.509	5.144	 H	1	UNK0	0.000	
49	   H	2.447	4.055	3.773	 H	1	UNK0	0.000	
50	   H	1.383	4.698	5.056	 H	1	UNK0	0.000	
@<TRIPOS>BOND
1 1 2 2
2 1 3 2
3 1 4 1
4 1 17 1
5 4 5 1
6 4 9 1
7 5 6 1
8 6 7 1
9 7 8 1
10 7 10 1
11 8 9 1
12 10 11 2
13 10 12 1
14 12 13 1
15 12 16 1
16 13 14 1
17 14 15 1
18 15 16 1
19 17 18 2
20 17 22 1
21 18 19 1
22 19 20 2
23 19 28 1
24 20 21 1
25 20 24 1
26 21 22 2
27 22 23 1
28 24 25 1
29 25 26 2
30 25 27 1
31 27 28 1
32 5 29 1
33 5 30 1
34 6 31 1
35 6 32 1
36 8 33 1
37 8 34 1
38 9 35 1
39 9 36 1
40 12 37 1
41 13 38 1
42 13 39 1
43 14 40 1
44 14 41 1
45 15 42 1
46 15 43 1
47 16 44 1
48 16 45 1
49 18 46 1
50 21 47 1
51 24 48 1
52 27 49 1
53 27 50 1
@<TRIPOS>SUBSTRUCTURE
1	UNK0	1	GROUP	1 ****	UNK
