# created with PyMOL 2.3.2
@<TRIPOS>MOLECULE
2006
61 65 1                 
SMALL
USER_CHARGES
@<TRIPOS>ATOM
1	  Cl	-2.822	-2.183	8.565	Cl	1	UNK0	0.000	
2	   C	-1.415	-2.099	7.517	C.2	1	UNK0	0.000	
3	   C	-1.352	-1.194	6.467	C.2	1	UNK0	0.000	
4	   C	-0.262	-1.104	5.627	C.2	1	UNK0	0.000	
5	   C	0.801	-1.953	5.851	C.2	1	UNK0	0.000	
6	   C	0.756	-2.858	6.890	C.2	1	UNK0	0.000	
7	   C	-0.340	-2.938	7.723	C.2	1	UNK0	0.000	
8	   C	-0.191	-0.138	4.501	C.3	1	UNK0	0.000	
9	   N	-0.704	-0.692	3.261	N.pl3	1	UNK0	0.000	
10	   C	0.137	-1.382	2.345	C.2	1	UNK0	0.000	
11	   O	1.366	-1.116	2.312	O.2	1	UNK0	0.000	
12	   C	-0.475	-2.388	1.467	C.3	1	UNK0	0.000	
13	   N	-1.867	-2.220	1.217	N.3	1	UNK0	0.000	
14	   C	-2.355	-0.933	1.466	C.3	1	UNK0	0.000	
15	   C	-1.903	0.197	0.570	C.3	1	UNK0	0.000	
16	   N	-3.084	-0.015	-0.206	N.3	1	UNK0	0.000	
17	   C	-3.716	-0.560	0.959	C.3	1	UNK0	0.000	
18	   C	-3.690	1.088	-0.858	C.3	1	UNK0	0.000	
19	   C	-2.712	1.673	-1.804	C.2	1	UNK0	0.000	
20	   C	-1.913	2.711	-1.387	C.2	1	UNK0	0.000	
21	   C	-0.982	3.306	-2.204	C.2	1	UNK0	0.000	
22	   C	-0.806	2.865	-3.531	C.2	1	UNK0	0.000	
23	   C	-1.595	1.839	-3.944	C.2	1	UNK0	0.000	
24	   C	-2.538	1.247	-3.096	C.2	1	UNK0	0.000	
25	   N	0.176	3.528	-4.317	N.pl3	1	UNK0	0.000	
26	   C	0.524	3.268	-5.647	C.2	1	UNK0	0.000	
27	   O	-0.033	2.372	-6.305	O.2	1	UNK0	0.000	
28	   C	1.599	4.080	-6.327	C.3	1	UNK0	0.000	
29	   C	-2.074	-0.579	2.884	C.2	1	UNK0	0.000	
30	   O	-2.927	-0.211	3.706	O.2	1	UNK0	0.000	
31	   C	-2.185	-2.820	-0.033	C.3	1	UNK0	0.000	
32	   C	-0.883	-2.971	-0.794	C.3	1	UNK0	0.000	
33	   C	0.222	-2.534	0.143	C.3	1	UNK0	0.000	
34	   O	-0.631	-4.296	-1.149	O.3	1	UNK0	0.000	
35	   H	-2.195	-0.559	6.332	 H	1	UNK0	0.000	
36	   H	1.698	-1.934	5.221	 H	1	UNK0	0.000	
37	   H	1.581	-3.532	7.080	 H	1	UNK0	0.000	
38	   H	-0.359	-3.657	8.535	 H	1	UNK0	0.000	
39	   H	0.825	0.283	4.386	 H	1	UNK0	0.000	
40	   H	-0.858	0.733	4.746	 H	1	UNK0	0.000	
41	   H	-0.352	-3.381	1.992	 H	1	UNK0	0.000	
42	   H	-0.941	0.074	0.068	 H	1	UNK0	0.000	
43	   H	-1.962	1.177	1.099	 H	1	UNK0	0.000	
44	   H	-4.174	0.207	1.620	 H	1	UNK0	0.000	
45	   H	-4.382	-1.429	0.811	 H	1	UNK0	0.000	
46	   H	-4.022	1.895	-0.172	 H	1	UNK0	0.000	
47	   H	-4.531	0.699	-1.478	 H	1	UNK0	0.000	
48	   H	-2.031	3.070	-0.368	 H	1	UNK0	0.000	
49	   H	-0.371	4.114	-1.854	 H	1	UNK0	0.000	
50	   H	-1.491	1.469	-4.959	 H	1	UNK0	0.000	
51	   H	-3.124	0.447	-3.484	 H	1	UNK0	0.000	
52	   H	0.726	4.323	-3.858	 H	1	UNK0	0.000	
53	   H	2.599	3.753	-6.009	 H	1	UNK0	0.000	
54	   H	1.454	5.162	-6.071	 H	1	UNK0	0.000	
55	   H	1.475	3.999	-7.408	 H	1	UNK0	0.000	
56	   H	-2.535	-3.872	0.187	 H	1	UNK0	0.000	
57	   H	-2.970	-2.355	-0.615	 H	1	UNK0	0.000	
58	   H	-0.909	-2.324	-1.714	 H	1	UNK0	0.000	
59	   H	1.033	-3.317	0.215	 H	1	UNK0	0.000	
60	   H	0.735	-1.622	-0.197	 H	1	UNK0	0.000	
61	   H	-0.275	-4.300	-2.055	 H	1	UNK0	0.000	
@<TRIPOS>BOND
1 1 2 1
2 2 3 2
3 2 7 1
4 3 4 1
5 4 5 2
6 4 8 1
7 5 6 1
8 6 7 2
9 8 9 1
10 9 10 1
11 9 29 1
12 10 11 2
13 10 12 1
14 12 13 1
15 12 33 1
16 13 14 1
17 13 31 1
18 14 15 1
19 14 17 1
20 14 29 1
21 15 16 1
22 16 17 1
23 16 18 1
24 18 19 1
25 19 20 2
26 19 24 1
27 20 21 1
28 21 22 2
29 22 23 1
30 22 25 1
31 23 24 2
32 25 26 1
33 26 27 2
34 26 28 1
35 29 30 2
36 31 32 1
37 32 33 1
38 32 34 1
39 3 35 1
40 5 36 1
41 6 37 1
42 7 38 1
43 8 39 1
44 8 40 1
45 12 41 1
46 15 42 1
47 15 43 1
48 17 44 1
49 17 45 1
50 18 46 1
51 18 47 1
52 20 48 1
53 21 49 1
54 23 50 1
55 24 51 1
56 25 52 1
57 28 53 1
58 28 54 1
59 28 55 1
60 31 56 1
61 31 57 1
62 32 58 1
63 33 59 1
64 33 60 1
65 34 61 1
@<TRIPOS>SUBSTRUCTURE
1	UNK0	1	GROUP	1 ****	UNK
