# created with PyMOL 2.3.2
@<TRIPOS>MOLECULE
2011
44 47 1                 
SMALL
USER_CHARGES
@<TRIPOS>ATOM
1	  Cl	-3.216	0.964	4.089	Cl	1	UNK0	0.000	
2	   C	-2.046	1.919	3.167	C.2	1	UNK0	0.000	
3	   C	-1.849	1.712	1.823	C.2	1	UNK0	0.000	
4	   C	-0.937	2.447	1.075	C.2	1	UNK0	0.000	
5	   C	-0.231	3.407	1.755	C.2	1	UNK0	0.000	
6	   C	-0.421	3.632	3.122	C.2	1	UNK0	0.000	
7	   C	-1.331	2.891	3.849	C.2	1	UNK0	0.000	
8	   N	-0.750	2.207	-0.319	N.pl3	1	UNK0	0.000	
9	   C	0.450	2.180	-1.092	C.2	1	UNK0	0.000	
10	   O	1.424	2.974	-0.825	O.2	1	UNK0	0.000	
11	   C	0.311	1.159	-2.127	C.3	1	UNK0	0.000	
12	   C	0.416	-0.234	-1.605	C.3	1	UNK0	0.000	
13	   O	-0.876	-0.521	-1.101	O.3	1	UNK0	0.000	
14	   C	-1.579	-0.211	-2.295	C.3	1	UNK0	0.000	
15	   C	-1.185	1.242	-2.431	C.3	1	UNK0	0.000	
16	   C	-1.798	1.928	-1.261	C.2	1	UNK0	0.000	
17	   O	-3.024	2.185	-1.179	O.2	1	UNK0	0.000	
18	   C	-0.866	-1.095	-3.232	C.2	1	UNK0	0.000	
19	   C	0.396	-1.134	-2.822	C.2	1	UNK0	0.000	
20	   C	1.497	-0.556	-0.676	C.3	1	UNK0	0.000	
21	   O	1.520	-1.941	-0.307	O.3	1	UNK0	0.000	
22	   C	1.412	-2.416	0.966	C.2	1	UNK0	0.000	
23	   O	1.275	-1.549	1.895	O.co2	1	UNK0	0.000	
24	   C	1.439	-3.849	1.356	C.3	1	UNK0	0.000	
25	   O	2.751	-0.187	-1.215	O.3	1	UNK0	0.000	
26	   C	3.606	0.623	-0.503	C.2	1	UNK0	0.000	
27	   O	3.288	1.046	0.639	O.co2	1	UNK0	0.000	
28	   C	4.939	1.051	-1.020	C.3	1	UNK0	0.000	
29	   H	-2.422	0.952	1.337	 H	1	UNK0	0.000	
30	   H	0.495	4.025	1.259	 H	1	UNK0	0.000	
31	   H	0.134	4.388	3.663	 H	1	UNK0	0.000	
32	   H	-1.480	3.062	4.909	 H	1	UNK0	0.000	
33	   H	0.916	1.346	-3.032	 H	1	UNK0	0.000	
34	   H	-2.648	-0.371	-2.200	 H	1	UNK0	0.000	
35	   H	-1.414	1.695	-3.382	 H	1	UNK0	0.000	
36	   H	-1.218	-1.639	-4.096	 H	1	UNK0	0.000	
37	   H	1.224	-1.668	-3.240	 H	1	UNK0	0.000	
38	   H	1.377	-0.036	0.285	 H	1	UNK0	0.000	
39	   H	0.946	-4.007	2.336	 H	1	UNK0	0.000	
40	   H	1.036	-4.508	0.563	 H	1	UNK0	0.000	
41	   H	2.518	-4.132	1.507	 H	1	UNK0	0.000	
42	   H	5.264	0.317	-1.791	 H	1	UNK0	0.000	
43	   H	5.669	1.036	-0.189	 H	1	UNK0	0.000	
44	   H	4.860	2.048	-1.459	 H	1	UNK0	0.000	
@<TRIPOS>BOND
1 1 2 1
2 2 3 2
3 2 7 1
4 3 4 1
5 4 5 2
6 4 8 1
7 5 6 1
8 6 7 2
9 8 9 1
10 8 16 1
11 9 10 2
12 9 11 1
13 11 12 1
14 11 15 1
15 12 13 1
16 12 19 1
17 12 20 1
18 13 14 1
19 14 15 1
20 14 18 1
21 15 16 1
22 16 17 2
23 18 19 2
24 20 21 1
25 20 25 1
26 21 22 1
27 22 23 2
28 22 24 1
29 25 26 1
30 26 27 2
31 26 28 1
32 3 29 1
33 5 30 1
34 6 31 1
35 7 32 1
36 11 33 1
37 14 34 1
38 15 35 1
39 18 36 1
40 19 37 1
41 20 38 1
42 24 39 1
43 24 40 1
44 24 41 1
45 28 42 1
46 28 43 1
47 28 44 1
@<TRIPOS>SUBSTRUCTURE
1	UNK0	1	GROUP	1 ****	UNK
