# created with PyMOL 2.3.2
@<TRIPOS>MOLECULE
2012
37 40 1                 
SMALL
USER_CHARGES
@<TRIPOS>ATOM
1	  Cl	-4.841	5.088	-1.218	Cl	1	UNK0	0.000	
2	   C	-3.251	4.339	-1.332	C.2	1	UNK0	0.000	
3	   C	-3.132	2.961	-1.491	C.2	1	UNK0	0.000	
4	   C	-1.869	2.424	-1.579	C.2	1	UNK0	0.000	
5	   C	-0.731	3.243	-1.509	C.2	1	UNK0	0.000	
6	   C	-0.855	4.591	-1.353	C.2	1	UNK0	0.000	
7	   C	-2.126	5.134	-1.267	C.2	1	UNK0	0.000	
8	   N	-1.648	1.028	-1.739	N.pl3	1	UNK0	0.000	
9	   C	-2.240	0.080	-2.620	C.2	1	UNK0	0.000	
10	   O	-2.812	0.371	-3.684	O.2	1	UNK0	0.000	
11	   C	-2.064	-1.273	-2.066	C.3	1	UNK0	0.000	
12	   O	-1.847	-2.296	-2.932	O.3	1	UNK0	0.000	
13	   N	-0.969	-3.102	-2.231	N.pl3	1	UNK0	0.000	
14	   C	-0.057	-2.256	-1.526	C.2	1	UNK0	0.000	
15	   C	-0.720	-1.110	-1.419	C.2	1	UNK0	0.000	
16	   C	-0.677	0.273	-0.968	C.2	1	UNK0	0.000	
17	   O	0.089	0.687	-0.061	O.2	1	UNK0	0.000	
18	   C	1.255	-2.575	-0.999	C.2	1	UNK0	0.000	
19	   C	1.605	-2.290	0.324	C.2	1	UNK0	0.000	
20	   N	2.871	-2.672	0.547	N.pl3	1	UNK0	0.000	
21	   N	3.349	-3.192	-0.585	N.2	1	UNK0	0.000	
22	   C	2.380	-3.138	-1.528	C.2	1	UNK0	0.000	
23	   C	2.516	-3.601	-2.932	C.3	1	UNK0	0.000	
24	   C	3.660	-2.572	1.770	C.3	1	UNK0	0.000	
25	   H	-4.012	2.309	-1.549	 H	1	UNK0	0.000	
26	   H	0.253	2.775	-1.583	 H	1	UNK0	0.000	
27	   H	0.055	5.219	-1.298	 H	1	UNK0	0.000	
28	   H	-2.261	6.209	-1.139	 H	1	UNK0	0.000	
29	   H	-2.839	-1.482	-1.296	 H	1	UNK0	0.000	
30	   H	-1.007	-4.134	-2.236	 H	1	UNK0	0.000	
31	   H	0.974	-1.834	1.068	 H	1	UNK0	0.000	
32	   H	2.226	-4.654	-2.999	 H	1	UNK0	0.000	
33	   H	3.591	-3.557	-3.228	 H	1	UNK0	0.000	
34	   H	1.976	-2.950	-3.639	 H	1	UNK0	0.000	
35	   H	4.565	-1.948	1.605	 H	1	UNK0	0.000	
36	   H	3.089	-2.008	2.560	 H	1	UNK0	0.000	
37	   H	3.991	-3.562	2.136	 H	1	UNK0	0.000	
@<TRIPOS>BOND
1 1 2 1
2 2 3 2
3 2 7 1
4 3 4 1
5 4 5 2
6 4 8 1
7 5 6 1
8 6 7 2
9 8 9 1
10 8 16 1
11 9 10 2
12 9 11 1
13 11 12 1
14 11 15 1
15 12 13 1
16 13 14 1
17 14 15 2
18 14 18 1
19 15 16 1
20 16 17 2
21 18 19 2
22 18 22 1
23 19 20 1
24 20 21 1
25 20 24 1
26 21 22 2
27 22 23 1
28 3 25 1
29 5 26 1
30 6 27 1
31 7 28 1
32 11 29 1
33 13 30 1
34 19 31 1
35 23 32 1
36 23 33 1
37 23 34 1
38 24 35 1
39 24 36 1
40 24 37 1
@<TRIPOS>SUBSTRUCTURE
1	UNK0	1	GROUP	1 ****	UNK
