# created with PyMOL 2.3.2
@<TRIPOS>MOLECULE
2016
39 42 1                 
SMALL
USER_CHARGES
@<TRIPOS>ATOM
1	  Cl	2.876	3.206	-0.520	Cl	1	UNK0	0.000	
2	   C	1.456	4.196	-0.261	C.2	1	UNK0	0.000	
3	   C	0.217	3.595	-0.395	C.2	1	UNK0	0.000	
4	   N	0.072	2.301	-0.711	N.2	1	UNK0	0.000	
5	   C	-1.085	1.650	-0.859	C.2	1	UNK0	0.000	
6	   C	-2.228	2.438	-0.653	C.2	1	UNK0	0.000	
7	   C	-2.112	3.770	-0.327	C.2	1	UNK0	0.000	
8	   C	-0.891	4.393	-0.187	C.2	1	UNK0	0.000	
9	   C	-0.750	5.725	0.139	C.2	1	UNK0	0.000	
10	   C	0.491	6.324	0.273	C.2	1	UNK0	0.000	
11	   C	1.598	5.528	0.065	C.2	1	UNK0	0.000	
12	   C	-1.228	0.244	-1.203	C.2	1	UNK0	0.000	
13	   O	-2.449	-0.183	-1.296	O.2	1	UNK0	0.000	
14	   N	-0.211	-0.687	-1.441	N.pl3	1	UNK0	0.000	
15	   C	-0.592	-2.059	-1.779	C.3	1	UNK0	0.000	
16	   C	0.090	-2.497	-3.067	C.3	1	UNK0	0.000	
17	   N	1.455	-2.070	-3.010	N.pl3	1	UNK0	0.000	
18	   C	1.737	-0.682	-2.784	C.3	1	UNK0	0.000	
19	   C	1.182	-0.377	-1.375	C.3	1	UNK0	0.000	
20	   C	2.516	-2.981	-3.169	C.2	1	UNK0	0.000	
21	   N	3.855	-2.720	-3.139	N.2	1	UNK0	0.000	
22	   N	4.532	-3.837	-3.329	N.pl3	1	UNK0	0.000	
23	   C	3.674	-4.856	-3.489	C.2	1	UNK0	0.000	
24	   N	2.460	-4.323	-3.390	N.2	1	UNK0	0.000	
25	   H	-3.187	1.983	-0.754	 H	1	UNK0	0.000	
26	   H	-2.986	4.402	-0.162	 H	1	UNK0	0.000	
27	   H	-1.637	6.334	0.298	 H	1	UNK0	0.000	
28	   H	0.601	7.371	0.529	 H	1	UNK0	0.000	
29	   H	2.591	5.989	0.167	 H	1	UNK0	0.000	
30	   H	-0.264	-2.700	-0.938	 H	1	UNK0	0.000	
31	   H	-1.682	-2.139	-1.910	 H	1	UNK0	0.000	
32	   H	0.048	-3.604	-3.123	 H	1	UNK0	0.000	
33	   H	-0.435	-2.006	-3.909	 H	1	UNK0	0.000	
34	   H	1.160	-0.060	-3.516	 H	1	UNK0	0.000	
35	   H	2.810	-0.443	-2.803	 H	1	UNK0	0.000	
36	   H	1.635	-1.204	-0.734	 H	1	UNK0	0.000	
37	   H	1.469	0.595	-1.032	 H	1	UNK0	0.000	
38	   H	5.570	-3.882	-3.346	 H	1	UNK0	0.000	
39	   H	3.964	-5.885	-3.661	 H	1	UNK0	0.000	
@<TRIPOS>BOND
1 1 2 1
2 2 3 2
3 2 11 1
4 3 4 1
5 3 8 1
6 4 5 2
7 5 6 1
8 5 12 1
9 6 7 2
10 7 8 1
11 8 9 2
12 9 10 1
13 10 11 2
14 12 13 2
15 12 14 1
16 14 15 1
17 14 19 1
18 15 16 1
19 16 17 1
20 17 18 1
21 17 20 1
22 18 19 1
23 20 21 2
24 20 24 1
25 21 22 1
26 22 23 1
27 23 24 2
28 6 25 1
29 7 26 1
30 9 27 1
31 10 28 1
32 11 29 1
33 15 30 1
34 15 31 1
35 16 32 1
36 16 33 1
37 18 34 1
38 18 35 1
39 19 36 1
40 19 37 1
41 22 38 1
42 23 39 1
@<TRIPOS>SUBSTRUCTURE
1	UNK0	1	GROUP	1 ****	UNK
