# created with PyMOL 2.3.2
@<TRIPOS>MOLECULE
2021
51 54 1                 
SMALL
USER_CHARGES
@<TRIPOS>ATOM
1	  Cl	-3.630	4.453	-1.023	Cl	1	UNK0	0.000	
2	   C	-3.010	3.430	0.274	C.2	1	UNK0	0.000	
3	   C	-2.273	2.300	0.018	C.2	1	UNK0	0.000	
4	   C	-1.819	1.544	1.067	C.2	1	UNK0	0.000	
5	   C	-2.139	1.980	2.346	C.2	1	UNK0	0.000	
6	   C	-2.864	3.091	2.625	C.2	1	UNK0	0.000	
7	   C	-3.321	3.851	1.566	C.2	1	UNK0	0.000	
8	   C	-1.059	0.317	0.932	C.3	1	UNK0	0.000	
9	   N	0.166	0.343	0.198	N.pl3	1	UNK0	0.000	
10	   C	1.367	0.664	0.745	C.2	1	UNK0	0.000	
11	   C	2.278	0.549	-0.291	C.2	1	UNK0	0.000	
12	   N	1.614	0.177	-1.380	N.2	1	UNK0	0.000	
13	   C	0.267	0.038	-1.095	C.2	1	UNK0	0.000	
14	   N	-0.612	-0.371	-2.121	N.pl3	1	UNK0	0.000	
15	   C	-0.033	-0.635	-3.491	C.3	1	UNK0	0.000	
16	   C	-0.587	-1.906	-4.028	C.3	1	UNK0	0.000	
17	   N	-1.317	-2.730	-3.159	N.3	1	UNK0	0.000	
18	   C	-2.285	-2.116	-2.322	C.3	1	UNK0	0.000	
19	   C	-2.002	-0.614	-2.118	C.3	1	UNK0	0.000	
20	   C	-0.674	-3.878	-2.643	C.3	1	UNK0	0.000	
21	   N	3.570	0.813	-0.033	N.pl3	1	UNK0	0.000	
22	   C	3.957	1.179	1.206	C.2	1	UNK0	0.000	
23	   O	5.154	1.422	1.436	O.2	1	UNK0	0.000	
24	   N	3.063	1.291	2.218	N.pl3	1	UNK0	0.000	
25	   C	1.763	1.038	2.010	C.2	1	UNK0	0.000	
26	   O	0.918	1.130	2.915	O.2	1	UNK0	0.000	
27	   C	3.510	1.687	3.542	C.3	1	UNK0	0.000	
28	   C	4.562	0.704	-1.098	C.3	1	UNK0	0.000	
29	   H	-2.050	2.030	-1.003	 H	1	UNK0	0.000	
30	   H	-1.789	1.390	3.214	 H	1	UNK0	0.000	
31	   H	-3.074	3.368	3.664	 H	1	UNK0	0.000	
32	   H	-3.904	4.744	1.753	 H	1	UNK0	0.000	
33	   H	-1.715	-0.463	0.540	 H	1	UNK0	0.000	
34	   H	-0.784	-0.072	1.952	 H	1	UNK0	0.000	
35	   H	1.061	-0.626	-3.420	 H	1	UNK0	0.000	
36	   H	-0.376	0.242	-4.081	 H	1	UNK0	0.000	
37	   H	-1.221	-1.687	-4.934	 H	1	UNK0	0.000	
38	   H	0.276	-2.500	-4.437	 H	1	UNK0	0.000	
39	   H	-3.293	-2.284	-2.745	 H	1	UNK0	0.000	
40	   H	-2.264	-2.599	-1.326	 H	1	UNK0	0.000	
41	   H	-2.654	-0.176	-1.393	 H	1	UNK0	0.000	
42	   H	-2.405	-0.180	-3.110	 H	1	UNK0	0.000	
43	   H	0.411	-3.795	-2.805	 H	1	UNK0	0.000	
44	   H	-1.023	-4.772	-3.237	 H	1	UNK0	0.000	
45	   H	-0.854	-4.111	-1.596	 H	1	UNK0	0.000	
46	   H	2.661	2.140	4.081	 H	1	UNK0	0.000	
47	   H	4.366	2.383	3.399	 H	1	UNK0	0.000	
48	   H	3.808	0.771	4.087	 H	1	UNK0	0.000	
49	   H	4.480	-0.257	-1.637	 H	1	UNK0	0.000	
50	   H	5.575	0.757	-0.654	 H	1	UNK0	0.000	
51	   H	4.388	1.559	-1.786	 H	1	UNK0	0.000	
@<TRIPOS>BOND
1 1 2 1
2 2 3 2
3 2 7 1
4 3 4 1
5 4 5 2
6 4 8 1
7 5 6 1
8 6 7 2
9 8 9 1
10 9 10 1
11 9 13 1
12 10 11 2
13 10 25 1
14 11 12 1
15 11 21 1
16 12 13 2
17 13 14 1
18 14 15 1
19 14 19 1
20 15 16 1
21 16 17 1
22 17 18 1
23 17 20 1
24 18 19 1
25 21 22 1
26 21 28 1
27 22 23 2
28 22 24 1
29 24 25 1
30 24 27 1
31 25 26 2
32 3 29 1
33 5 30 1
34 6 31 1
35 7 32 1
36 8 33 1
37 8 34 1
38 15 35 1
39 15 36 1
40 16 37 1
41 16 38 1
42 18 39 1
43 18 40 1
44 19 41 1
45 19 42 1
46 20 43 1
47 20 44 1
48 20 45 1
49 27 46 1
50 27 47 1
51 27 48 1
52 28 49 1
53 28 50 1
54 28 51 1
@<TRIPOS>SUBSTRUCTURE
1	UNK0	1	GROUP	1 ****	UNK
