# created with PyMOL 2.3.2
@<TRIPOS>MOLECULE
2026
56 60 1                 
SMALL
USER_CHARGES
@<TRIPOS>ATOM
1	  Cl	-1.391	-5.782	-0.175	Cl	1	UNK0	0.000	
2	   C	-1.698	-4.230	0.549	C.2	1	UNK0	0.000	
3	   C	-0.742	-3.220	0.487	C.2	1	UNK0	0.000	
4	   C	-0.983	-1.995	1.057	C.2	1	UNK0	0.000	
5	   C	-2.184	-1.793	1.687	C.2	1	UNK0	0.000	
6	   C	-3.149	-2.805	1.753	C.2	1	UNK0	0.000	
7	   C	-2.900	-4.015	1.184	C.2	1	UNK0	0.000	
8	   C	-4.421	-2.505	2.452	C.3	1	UNK0	0.000	
9	   C	0.186	-1.145	0.831	C.3	1	UNK0	0.000	
10	   N	0.825	-0.721	2.054	N.3	1	UNK0	0.000	
11	   C	1.087	0.687	1.955	C.3	1	UNK0	0.000	
12	   C	0.737	1.139	0.586	C.3	1	UNK0	0.000	
13	   C	-0.220	0.107	0.078	C.3	1	UNK0	0.000	
14	   C	0.052	0.016	-1.352	C.2	1	UNK0	0.000	
15	   O	-0.748	-0.546	-2.170	O.2	1	UNK0	0.000	
16	   N	1.294	0.633	-1.631	N.pl3	1	UNK0	0.000	
17	   C	1.861	1.043	-0.389	C.2	1	UNK0	0.000	
18	   O	3.078	1.273	-0.180	O.2	1	UNK0	0.000	
19	   C	1.827	0.789	-2.966	C.3	1	UNK0	0.000	
20	   C	2.107	2.234	-3.304	C.3	1	UNK0	0.000	
21	   C	3.567	2.511	-3.545	C.3	1	UNK0	0.000	
22	   C	4.134	1.638	-4.644	C.3	1	UNK0	0.000	
23	   C	3.576	0.230	-4.573	C.3	1	UNK0	0.000	
24	   C	3.146	0.040	-3.113	C.3	1	UNK0	0.000	
25	   C	0.247	1.375	2.999	C.3	1	UNK0	0.000	
26	   C	0.401	2.833	3.040	C.2	1	UNK0	0.000	
27	   O	1.189	3.425	2.273	O.2	1	UNK0	0.000	
28	   N	-0.348	3.605	3.960	N.pl3	1	UNK0	0.000	
29	   C	1.157	-1.972	0.090	C.2	1	UNK0	0.000	
30	   O	2.309	-1.707	-0.326	O.2	1	UNK0	0.000	
31	   N	0.546	-3.238	-0.108	N.pl3	1	UNK0	0.000	
32	   H	-2.374	-0.828	2.136	 H	1	UNK0	0.000	
33	   H	-3.622	-4.808	1.219	 H	1	UNK0	0.000	
34	   H	-5.225	-3.096	1.949	 H	1	UNK0	0.000	
35	   H	-4.608	-1.408	2.395	 H	1	UNK0	0.000	
36	   H	-4.297	-2.787	3.511	 H	1	UNK0	0.000	
37	   H	1.669	-1.289	2.274	 H	1	UNK0	0.000	
38	   H	2.172	0.900	2.126	 H	1	UNK0	0.000	
39	   H	0.283	2.158	0.558	 H	1	UNK0	0.000	
40	   H	-1.283	0.368	0.305	 H	1	UNK0	0.000	
41	   H	1.144	0.370	-3.710	 H	1	UNK0	0.000	
42	   H	1.773	2.925	-2.501	 H	1	UNK0	0.000	
43	   H	1.549	2.518	-4.212	 H	1	UNK0	0.000	
44	   H	3.635	3.561	-3.928	 H	1	UNK0	0.000	
45	   H	4.182	2.481	-2.635	 H	1	UNK0	0.000	
46	   H	5.228	1.564	-4.471	 H	1	UNK0	0.000	
47	   H	4.000	2.095	-5.648	 H	1	UNK0	0.000	
48	   H	4.313	-0.549	-4.797	 H	1	UNK0	0.000	
49	   H	2.685	0.080	-5.187	 H	1	UNK0	0.000	
50	   H	3.047	-1.036	-2.877	 H	1	UNK0	0.000	
51	   H	3.872	0.476	-2.410	 H	1	UNK0	0.000	
52	   H	0.602	0.969	3.992	 H	1	UNK0	0.000	
53	   H	-0.814	1.050	2.935	 H	1	UNK0	0.000	
54	   H	-1.171	3.197	4.495	 H	1	UNK0	0.000	
55	   H	-0.147	4.609	4.172	 H	1	UNK0	0.000	
56	   H	0.958	-4.057	-0.604	 H	1	UNK0	0.000	
@<TRIPOS>BOND
1 1 2 1
2 2 3 2
3 2 7 1
4 3 4 1
5 3 31 1
6 4 5 2
7 4 9 1
8 5 6 1
9 6 7 2
10 6 8 1
11 9 10 1
12 9 13 1
13 9 29 1
14 10 11 1
15 11 12 1
16 11 25 1
17 12 13 1
18 12 17 1
19 13 14 1
20 14 15 2
21 14 16 1
22 16 17 1
23 16 19 1
24 17 18 2
25 19 20 1
26 19 24 1
27 20 21 1
28 21 22 1
29 22 23 1
30 23 24 1
31 25 26 1
32 26 27 2
33 26 28 1
34 29 30 2
35 29 31 1
36 5 32 1
37 7 33 1
38 8 34 1
39 8 35 1
40 8 36 1
41 10 37 1
42 11 38 1
43 12 39 1
44 13 40 1
45 19 41 1
46 20 42 1
47 20 43 1
48 21 44 1
49 21 45 1
50 22 46 1
51 22 47 1
52 23 48 1
53 23 49 1
54 24 50 1
55 24 51 1
56 25 52 1
57 25 53 1
58 28 54 1
59 28 55 1
60 31 56 1
@<TRIPOS>SUBSTRUCTURE
1	UNK0	1	GROUP	1 ****	UNK
