# created with PyMOL 2.3.2
@<TRIPOS>MOLECULE
2027
52 55 1                 
SMALL
USER_CHARGES
@<TRIPOS>ATOM
1	  Cl	2.249	2.050	5.445	Cl	1	UNK0	0.000	
2	   C	1.786	2.341	3.791	C.2	1	UNK0	0.000	
3	   C	1.659	1.284	2.888	C.2	1	UNK0	0.000	
4	   C	1.296	1.469	1.586	C.2	1	UNK0	0.000	
5	   C	1.066	2.795	1.223	C.2	1	UNK0	0.000	
6	   C	1.183	3.860	2.088	C.2	1	UNK0	0.000	
7	   C	1.547	3.626	3.388	C.2	1	UNK0	0.000	
8	   C	0.914	5.260	1.605	C.3	1	UNK0	0.000	
9	   C	1.180	0.154	0.917	C.3	1	UNK0	0.000	
10	   N	1.891	0.191	-0.345	N.3	1	UNK0	0.000	
11	   C	0.937	0.234	-1.420	C.3	1	UNK0	0.000	
12	   C	-0.396	0.530	-0.810	C.3	1	UNK0	0.000	
13	   C	-0.225	-0.172	0.528	C.3	1	UNK0	0.000	
14	   C	-0.366	-1.566	0.098	C.2	1	UNK0	0.000	
15	   O	0.140	-2.657	0.451	O.2	1	UNK0	0.000	
16	   N	-1.334	-1.560	-0.978	N.pl3	1	UNK0	0.000	
17	   C	-1.503	-0.226	-1.470	C.2	1	UNK0	0.000	
18	   O	-2.382	0.191	-2.269	O.2	1	UNK0	0.000	
19	   C	-2.011	-2.730	-1.464	C.3	1	UNK0	0.000	
20	   C	-2.739	-3.389	-0.312	C.3	1	UNK0	0.000	
21	   C	-3.757	-2.431	0.289	C.3	1	UNK0	0.000	
22	   C	-1.026	-3.768	-1.999	C.3	1	UNK0	0.000	
23	   C	1.323	1.064	-2.587	C.3	1	UNK0	0.000	
24	   O	1.542	2.406	-2.307	O.3	1	UNK0	0.000	
25	   C	0.317	1.015	-3.715	C.3	1	UNK0	0.000	
26	   C	1.768	-0.792	1.869	C.2	1	UNK0	0.000	
27	   O	2.110	-2.011	1.779	O.2	1	UNK0	0.000	
28	   N	1.948	-0.092	3.089	N.pl3	1	UNK0	0.000	
29	   H	0.787	3.027	0.231	 H	1	UNK0	0.000	
30	   H	1.641	4.454	4.075	 H	1	UNK0	0.000	
31	   H	-0.159	5.435	1.452	 H	1	UNK0	0.000	
32	   H	1.525	5.465	0.695	 H	1	UNK0	0.000	
33	   H	1.288	5.956	2.384	 H	1	UNK0	0.000	
34	   H	2.464	1.060	-0.365	 H	1	UNK0	0.000	
35	   H	0.867	-0.838	-1.785	 H	1	UNK0	0.000	
36	   H	-0.720	1.551	-0.772	 H	1	UNK0	0.000	
37	   H	-0.979	0.153	1.265	 H	1	UNK0	0.000	
38	   H	-2.704	-2.484	-2.295	 H	1	UNK0	0.000	
39	   H	-1.990	-3.610	0.474	 H	1	UNK0	0.000	
40	   H	-3.253	-4.321	-0.625	 H	1	UNK0	0.000	
41	   H	-3.251	-1.458	0.445	 H	1	UNK0	0.000	
42	   H	-4.083	-2.870	1.245	 H	1	UNK0	0.000	
43	   H	-4.576	-2.350	-0.462	 H	1	UNK0	0.000	
44	   H	-1.459	-4.348	-2.823	 H	1	UNK0	0.000	
45	   H	-0.075	-3.279	-2.314	 H	1	UNK0	0.000	
46	   H	-0.756	-4.478	-1.184	 H	1	UNK0	0.000	
47	   H	2.285	0.695	-3.038	 H	1	UNK0	0.000	
48	   H	1.934	2.814	-3.118	 H	1	UNK0	0.000	
49	   H	-0.515	1.751	-3.551	 H	1	UNK0	0.000	
50	   H	0.845	1.390	-4.627	 H	1	UNK0	0.000	
51	   H	-0.046	0.009	-3.942	 H	1	UNK0	0.000	
52	   H	2.251	-0.519	4.016	 H	1	UNK0	0.000	
@<TRIPOS>BOND
1 1 2 1
2 2 3 2
3 2 7 1
4 3 4 1
5 3 28 1
6 4 5 2
7 4 9 1
8 5 6 1
9 6 7 2
10 6 8 1
11 9 10 1
12 9 13 1
13 9 26 1
14 10 11 1
15 11 12 1
16 11 23 1
17 12 13 1
18 12 17 1
19 13 14 1
20 14 15 2
21 14 16 1
22 16 17 1
23 16 19 1
24 17 18 2
25 19 20 1
26 19 22 1
27 20 21 1
28 23 24 1
29 23 25 1
30 26 27 2
31 26 28 1
32 5 29 1
33 7 30 1
34 8 31 1
35 8 32 1
36 8 33 1
37 10 34 1
38 11 35 1
39 12 36 1
40 13 37 1
41 19 38 1
42 20 39 1
43 20 40 1
44 21 41 1
45 21 42 1
46 21 43 1
47 22 44 1
48 22 45 1
49 22 46 1
50 23 47 1
51 24 48 1
52 25 49 1
53 25 50 1
54 25 51 1
55 28 52 1
@<TRIPOS>SUBSTRUCTURE
1	UNK0	1	GROUP	1 ****	UNK
