# created with PyMOL 2.3.2
@<TRIPOS>MOLECULE
2028
50 53 1                 
SMALL
USER_CHARGES
@<TRIPOS>ATOM
1	  Cl	-3.911	-2.577	3.880	Cl	1	UNK0	0.000	
2	   C	-2.367	-1.879	3.398	C.2	1	UNK0	0.000	
3	   C	-1.998	-1.961	2.043	C.2	1	UNK0	0.000	
4	   C	-0.805	-1.415	1.673	C.2	1	UNK0	0.000	
5	   C	0.036	-0.800	2.590	C.2	1	UNK0	0.000	
6	   C	-0.351	-0.737	3.909	C.2	1	UNK0	0.000	
7	   C	-1.550	-1.271	4.325	C.2	1	UNK0	0.000	
8	   C	0.580	-0.065	4.882	C.3	1	UNK0	0.000	
9	   C	-0.716	-1.521	0.184	C.3	1	UNK0	0.000	
10	   N	0.569	-1.798	-0.321	N.3	1	UNK0	0.000	
11	   C	1.216	-0.533	-0.525	C.3	1	UNK0	0.000	
12	   C	0.226	0.549	-0.374	C.3	1	UNK0	0.000	
13	   C	-1.091	-0.226	-0.466	C.3	1	UNK0	0.000	
14	   C	-1.256	-0.318	-1.905	C.2	1	UNK0	0.000	
15	   O	-1.683	-1.213	-2.667	O.2	1	UNK0	0.000	
16	   N	-0.789	0.960	-2.412	N.pl3	1	UNK0	0.000	
17	   C	0.105	1.515	-1.459	C.2	1	UNK0	0.000	
18	   O	0.662	2.617	-1.559	O.2	1	UNK0	0.000	
19	   C	-1.144	1.606	-3.648	C.3	1	UNK0	0.000	
20	   C	-2.301	2.532	-3.582	C.3	1	UNK0	0.000	
21	   O	-3.509	2.017	-3.220	O.3	1	UNK0	0.000	
22	   C	-4.027	1.070	-4.079	C.3	1	UNK0	0.000	
23	   C	2.030	-0.505	-1.805	C.3	1	UNK0	0.000	
24	   O	1.318	-0.706	-2.950	O.3	1	UNK0	0.000	
25	   C	2.937	0.681	-1.787	C.3	1	UNK0	0.000	
26	   C	-1.739	-2.511	-0.145	C.2	1	UNK0	0.000	
27	   O	-1.924	-3.208	-1.192	O.2	1	UNK0	0.000	
28	   N	-2.612	-2.638	0.953	N.pl3	1	UNK0	0.000	
29	   H	1.002	-0.364	2.335	 H	1	UNK0	0.000	
30	   H	-1.832	-1.204	5.381	 H	1	UNK0	0.000	
31	   H	0.945	0.875	4.421	 H	1	UNK0	0.000	
32	   H	1.500	-0.699	5.039	 H	1	UNK0	0.000	
33	   H	0.084	0.165	5.828	 H	1	UNK0	0.000	
34	   H	1.132	-2.423	0.305	 H	1	UNK0	0.000	
35	   H	2.010	-0.387	0.275	 H	1	UNK0	0.000	
36	   H	0.196	1.026	0.636	 H	1	UNK0	0.000	
37	   H	-1.903	0.312	0.060	 H	1	UNK0	0.000	
38	   H	-0.269	2.190	-4.017	 H	1	UNK0	0.000	
39	   H	-1.313	0.819	-4.423	 H	1	UNK0	0.000	
40	   H	-2.426	2.970	-4.614	 H	1	UNK0	0.000	
41	   H	-2.058	3.421	-2.951	 H	1	UNK0	0.000	
42	   H	-3.378	0.201	-4.201	 H	1	UNK0	0.000	
43	   H	-4.997	0.730	-3.656	 H	1	UNK0	0.000	
44	   H	-4.187	1.578	-5.067	 H	1	UNK0	0.000	
45	   H	2.695	-1.427	-1.706	 H	1	UNK0	0.000	
46	   H	1.554	-0.098	-3.696	 H	1	UNK0	0.000	
47	   H	4.009	0.328	-1.891	 H	1	UNK0	0.000	
48	   H	2.803	1.347	-2.667	 H	1	UNK0	0.000	
49	   H	2.865	1.184	-0.815	 H	1	UNK0	0.000	
50	   H	-3.543	-3.122	1.019	 H	1	UNK0	0.000	
@<TRIPOS>BOND
1 1 2 1
2 2 3 2
3 2 7 1
4 3 4 1
5 3 28 1
6 4 5 2
7 4 9 1
8 5 6 1
9 6 7 2
10 6 8 1
11 9 10 1
12 9 13 1
13 9 26 1
14 10 11 1
15 11 12 1
16 11 23 1
17 12 13 1
18 12 17 1
19 13 14 1
20 14 15 2
21 14 16 1
22 16 17 1
23 16 19 1
24 17 18 2
25 19 20 1
26 20 21 1
27 21 22 1
28 23 24 1
29 23 25 1
30 26 27 2
31 26 28 1
32 5 29 1
33 7 30 1
34 8 31 1
35 8 32 1
36 8 33 1
37 10 34 1
38 11 35 1
39 12 36 1
40 13 37 1
41 19 38 1
42 19 39 1
43 20 40 1
44 20 41 1
45 22 42 1
46 22 43 1
47 22 44 1
48 23 45 1
49 24 46 1
50 25 47 1
51 25 48 1
52 25 49 1
53 28 50 1
@<TRIPOS>SUBSTRUCTURE
1	UNK0	1	GROUP	1 ****	UNK
