# created with PyMOL 2.3.2
@<TRIPOS>MOLECULE
2029
55 58 1                 
SMALL
USER_CHARGES
@<TRIPOS>ATOM
1	   F	1.464	3.405	0.290	 F	1	UNK0	0.000	
2	   C	1.059	2.132	0.038	C.3	1	UNK0	0.000	
3	   F	1.629	1.641	-1.151	 F	1	UNK0	0.000	
4	   F	1.518	1.255	1.038	 F	1	UNK0	0.000	
5	   C	-0.432	1.965	-0.005	C.2	1	UNK0	0.000	
6	   C	-1.122	2.663	-0.964	C.2	1	UNK0	0.000	
7	   C	-2.515	2.512	-1.030	C.2	1	UNK0	0.000	
8	   O	-3.162	3.130	-1.882	O.2	1	UNK0	0.000	
9	   C	-3.068	1.653	-0.103	C.2	1	UNK0	0.000	
10	   C	-2.301	0.997	0.823	C.2	1	UNK0	0.000	
11	   C	-2.826	0.110	1.769	C.2	1	UNK0	0.000	
12	   C	-4.209	-0.056	1.688	C.2	1	UNK0	0.000	
13	   C	-4.986	0.598	0.758	C.2	1	UNK0	0.000	
14	   C	-4.429	1.461	-0.146	C.2	1	UNK0	0.000	
15	   O	-4.789	-0.936	2.611	O.2	1	UNK0	0.000	
16	   C	-2.056	-0.509	2.837	C.3	1	UNK0	0.000	
17	   N	-0.866	-1.238	2.471	N.4	1	UNK0	0.000	
18	   C	0.143	-0.758	3.423	C.3	1	UNK0	0.000	
19	   C	1.465	-1.422	3.317	C.3	1	UNK0	0.000	
20	   N	1.449	-2.769	2.844	N.3	1	UNK0	0.000	
21	   C	0.200	-3.364	3.136	C.3	1	UNK0	0.000	
22	   C	-1.016	-2.637	2.675	C.3	1	UNK0	0.000	
23	   C	2.072	-3.058	1.621	C.3	1	UNK0	0.000	
24	   C	3.573	-2.968	1.664	C.3	1	UNK0	0.000	
25	   O	4.077	-1.733	2.011	O.3	1	UNK0	0.000	
26	   O	-1.021	1.146	0.875	O.3	1	UNK0	0.000	
27	   C	-0.443	3.514	-1.951	C.2	1	UNK0	0.000	
28	   C	-0.043	4.793	-1.694	C.2	1	UNK0	0.000	
29	   C	0.577	5.586	-2.668	C.2	1	UNK0	0.000	
30	   C	0.781	5.041	-3.903	C.2	1	UNK0	0.000	
31	   C	0.381	3.732	-4.180	C.2	1	UNK0	0.000	
32	   C	-0.222	2.977	-3.224	C.2	1	UNK0	0.000	
33	  Cl	1.554	5.984	-5.169	Cl	1	UNK0	0.000	
34	   H	-6.055	0.447	0.724	 H	1	UNK0	0.000	
35	   H	-4.993	1.988	-0.893	 H	1	UNK0	0.000	
36	   H	-2.753	-1.256	3.351	 H	1	UNK0	0.000	
37	   H	-1.888	0.259	3.651	 H	1	UNK0	0.000	
38	   H	-0.553	-1.094	1.488	 H	1	UNK0	0.000	
39	   H	0.254	0.327	3.376	 H	1	UNK0	0.000	
40	   H	-0.302	-0.973	4.440	 H	1	UNK0	0.000	
41	   H	2.157	-0.826	2.686	 H	1	UNK0	0.000	
42	   H	1.982	-1.447	4.323	 H	1	UNK0	0.000	
43	   H	0.128	-3.490	4.250	 H	1	UNK0	0.000	
44	   H	0.243	-4.424	2.736	 H	1	UNK0	0.000	
45	   H	-1.926	-2.858	3.271	 H	1	UNK0	0.000	
46	   H	-1.260	-3.096	1.658	 H	1	UNK0	0.000	
47	   H	1.761	-4.041	1.189	 H	1	UNK0	0.000	
48	   H	1.757	-2.225	0.903	 H	1	UNK0	0.000	
49	   H	3.981	-3.179	0.629	 H	1	UNK0	0.000	
50	   H	4.003	-3.758	2.321	 H	1	UNK0	0.000	
51	   H	4.912	-1.782	2.540	 H	1	UNK0	0.000	
52	   H	-0.182	5.264	-0.738	 H	1	UNK0	0.000	
53	   H	0.878	6.611	-2.454	 H	1	UNK0	0.000	
54	   H	0.536	3.307	-5.137	 H	1	UNK0	0.000	
55	   H	-0.567	1.943	-3.352	 H	1	UNK0	0.000	
@<TRIPOS>BOND
1 1 2 1
2 2 3 1
3 2 4 1
4 2 5 1
5 5 6 2
6 5 26 1
7 6 7 1
8 6 27 1
9 7 8 2
10 7 9 1
11 9 10 2
12 9 14 1
13 10 11 1
14 10 26 1
15 11 12 2
16 11 16 1
17 12 13 1
18 12 15 1
19 13 14 2
20 16 17 1
21 17 18 1
22 17 22 1
23 18 19 1
24 19 20 1
25 20 21 1
26 20 23 1
27 21 22 1
28 23 24 1
29 24 25 1
30 27 28 2
31 27 32 1
32 28 29 1
33 29 30 2
34 30 31 1
35 30 33 1
36 31 32 2
37 13 34 1
38 14 35 1
39 16 36 1
40 16 37 1
41 17 38 1
42 18 39 1
43 18 40 1
44 19 41 1
45 19 42 1
46 21 43 1
47 21 44 1
48 22 45 1
49 22 46 1
50 23 47 1
51 23 48 1
52 24 49 1
53 24 50 1
54 25 51 1
55 28 52 1
56 29 53 1
57 31 54 1
58 32 55 1
@<TRIPOS>SUBSTRUCTURE
1	UNK0	1	GROUP	1 ****	UNK
