# created with PyMOL 2.3.2
@<TRIPOS>MOLECULE
2030
46 49 1                 
SMALL
USER_CHARGES
@<TRIPOS>ATOM
1	   S	-2.613	-3.026	-1.343	S.O2	1	UNK0	0.000	
2	   O	-3.461	-1.961	-0.683	O.2	1	UNK0	0.000	
3	   O	-3.404	-3.513	-2.526	O.2	1	UNK0	0.000	
4	   N	-1.171	-2.353	-1.839	N.3	1	UNK0	0.000	
5	   C	-0.274	-3.190	-2.550	C.3	1	UNK0	0.000	
6	   C	1.150	-3.158	-2.096	C.3	1	UNK0	0.000	
7	   N	1.604	-1.793	-1.808	N.pl3	1	UNK0	0.000	
8	   C	0.605	-0.779	-1.754	C.3	1	UNK0	0.000	
9	   C	-0.584	-1.369	-0.994	C.3	1	UNK0	0.000	
10	   C	2.984	-1.577	-1.605	C.2	1	UNK0	0.000	
11	   O	3.808	-2.545	-1.662	O.2	1	UNK0	0.000	
12	   C	3.584	-0.257	-1.317	C.3	1	UNK0	0.000	
13	   S	3.743	0.131	0.423	S.3	1	UNK0	0.000	
14	   C	2.184	0.366	1.254	C.2	1	UNK0	0.000	
15	   N	1.513	-0.644	1.832	N.2	1	UNK0	0.000	
16	   C	0.321	-0.443	2.467	C.2	1	UNK0	0.000	
17	   N	-0.222	0.789	2.532	N.2	1	UNK0	0.000	
18	   C	0.383	1.847	1.982	C.2	1	UNK0	0.000	
19	   N	0.060	3.158	1.907	N.pl3	1	UNK0	0.000	
20	   N	1.048	3.727	1.237	N.2	1	UNK0	0.000	
21	   C	1.987	2.849	0.877	C.2	1	UNK0	0.000	
22	   C	1.584	1.620	1.347	C.2	1	UNK0	0.000	
23	   C	-1.114	3.828	2.440	C.3	1	UNK0	0.000	
24	   C	-2.480	-4.369	-0.231	C.2	1	UNK0	0.000	
25	   S	-3.798	-5.226	0.419	S.3	1	UNK0	0.000	
26	   C	-2.953	-6.349	1.383	C.2	1	UNK0	0.000	
27	   C	-1.643	-6.017	1.166	C.2	1	UNK0	0.000	
28	   C	-1.404	-4.987	0.326	C.2	1	UNK0	0.000	
29	  Cl	-3.577	-7.643	2.425	Cl	1	UNK0	0.000	
30	   H	-0.582	-4.261	-2.575	 H	1	UNK0	0.000	
31	   H	-0.286	-2.848	-3.628	 H	1	UNK0	0.000	
32	   H	1.409	-3.826	-1.278	 H	1	UNK0	0.000	
33	   H	1.772	-3.492	-2.978	 H	1	UNK0	0.000	
34	   H	0.218	-0.618	-2.802	 H	1	UNK0	0.000	
35	   H	0.922	0.186	-1.370	 H	1	UNK0	0.000	
36	   H	-1.288	-0.543	-0.804	 H	1	UNK0	0.000	
37	   H	-0.177	-1.810	-0.058	 H	1	UNK0	0.000	
38	   H	2.981	0.537	-1.850	 H	1	UNK0	0.000	
39	   H	4.605	-0.157	-1.772	 H	1	UNK0	0.000	
40	   H	-0.219	-1.263	2.934	 H	1	UNK0	0.000	
41	   H	2.911	2.999	0.325	 H	1	UNK0	0.000	
42	   H	-0.901	4.914	2.473	 H	1	UNK0	0.000	
43	   H	-1.391	3.412	3.418	 H	1	UNK0	0.000	
44	   H	-1.996	3.697	1.763	 H	1	UNK0	0.000	
45	   H	-0.835	-6.596	1.679	 H	1	UNK0	0.000	
46	   H	-0.370	-4.645	0.089	 H	1	UNK0	0.000	
@<TRIPOS>BOND
1 1 2 2
2 1 3 2
3 1 4 1
4 1 24 1
5 4 5 1
6 4 9 1
7 5 6 1
8 6 7 1
9 7 8 1
10 7 10 1
11 8 9 1
12 10 11 2
13 10 12 1
14 12 13 1
15 13 14 1
16 14 15 2
17 14 22 1
18 15 16 1
19 16 17 2
20 17 18 1
21 18 19 1
22 18 22 2
23 19 20 1
24 19 23 1
25 20 21 2
26 21 22 1
27 24 25 1
28 24 28 2
29 25 26 1
30 26 27 2
31 26 29 1
32 27 28 1
33 5 30 1
34 5 31 1
35 6 32 1
36 6 33 1
37 8 34 1
38 8 35 1
39 9 36 1
40 9 37 1
41 12 38 1
42 12 39 1
43 16 40 1
44 21 41 1
45 23 42 1
46 23 43 1
47 23 44 1
48 27 45 1
49 28 46 1
@<TRIPOS>SUBSTRUCTURE
1	UNK0	1	GROUP	1 ****	UNK
