# created with PyMOL 2.3.2
@<TRIPOS>MOLECULE
2031
46 49 1                 
SMALL
USER_CHARGES
@<TRIPOS>ATOM
1	  Br	-3.925	-0.317	1.060	Br	1	UNK0	0.000	
2	   C	-3.708	1.541	0.748	C.2	1	UNK0	0.000	
3	   C	-2.474	2.140	0.789	C.2	1	UNK0	0.000	
4	   C	-2.365	3.488	0.553	C.2	1	UNK0	0.000	
5	   C	-3.493	4.235	0.276	C.2	1	UNK0	0.000	
6	   C	-4.732	3.652	0.232	C.2	1	UNK0	0.000	
7	   C	-4.835	2.303	0.469	C.2	1	UNK0	0.000	
8	   N	-5.868	4.444	-0.056	N.pl3	1	UNK0	0.000	
9	   O	-5.746	5.655	-0.269	O.2	1	UNK0	0.000	
10	   O	-7.096	3.869	-0.100	O.2	1	UNK0	0.000	
11	   N	-1.286	1.401	1.062	N.pl3	1	UNK0	0.000	
12	   C	-0.229	1.096	0.125	C.2	1	UNK0	0.000	
13	   O	-0.233	1.686	-1.006	O.2	1	UNK0	0.000	
14	   C	0.695	0.115	0.685	C.3	1	UNK0	0.000	
15	   C	0.600	-1.234	-0.001	C.3	1	UNK0	0.000	
16	   O	-0.759	-1.500	0.296	O.3	1	UNK0	0.000	
17	   C	-0.605	-1.547	1.704	C.3	1	UNK0	0.000	
18	   C	0.050	-0.225	2.028	C.3	1	UNK0	0.000	
19	   C	-0.933	0.837	2.318	C.2	1	UNK0	0.000	
20	   O	-1.352	1.152	3.462	O.2	1	UNK0	0.000	
21	   C	0.461	-2.588	1.796	C.2	1	UNK0	0.000	
22	   C	1.267	-2.312	0.765	C.2	1	UNK0	0.000	
23	   C	0.924	-1.214	-1.438	C.3	1	UNK0	0.000	
24	   O	2.303	-0.975	-1.587	O.3	1	UNK0	0.000	
25	   C	2.823	0.086	-2.299	C.2	1	UNK0	0.000	
26	   O	2.063	0.892	-2.854	O.co2	1	UNK0	0.000	
27	   C	4.315	0.232	-2.379	C.3	1	UNK0	0.000	
28	   O	0.656	-2.473	-2.066	O.3	1	UNK0	0.000	
29	   C	-0.180	-2.566	-3.168	C.2	1	UNK0	0.000	
30	   O	-0.675	-1.451	-3.559	O.co2	1	UNK0	0.000	
31	   C	-0.503	-3.832	-3.871	C.3	1	UNK0	0.000	
32	   H	-1.408	3.981	0.579	 H	1	UNK0	0.000	
33	   H	-3.356	5.301	0.096	 H	1	UNK0	0.000	
34	   H	-5.824	1.859	0.429	 H	1	UNK0	0.000	
35	   H	1.726	0.464	0.799	 H	1	UNK0	0.000	
36	   H	-1.495	-1.774	2.251	 H	1	UNK0	0.000	
37	   H	0.841	-0.307	2.805	 H	1	UNK0	0.000	
38	   H	0.587	-3.391	2.511	 H	1	UNK0	0.000	
39	   H	2.223	-2.761	0.506	 H	1	UNK0	0.000	
40	   H	0.388	-0.398	-1.950	 H	1	UNK0	0.000	
41	   H	4.553	1.244	-2.733	 H	1	UNK0	0.000	
42	   H	4.757	-0.557	-3.003	 H	1	UNK0	0.000	
43	   H	4.691	0.103	-1.330	 H	1	UNK0	0.000	
44	   H	-0.403	-4.712	-3.233	 H	1	UNK0	0.000	
45	   H	0.067	-3.935	-4.833	 H	1	UNK0	0.000	
46	   H	-1.585	-3.749	-4.179	 H	1	UNK0	0.000	
@<TRIPOS>BOND
1 1 2 1
2 2 3 2
3 2 7 1
4 3 4 1
5 3 11 1
6 4 5 2
7 5 6 1
8 6 7 2
9 6 8 1
10 8 9 2
11 8 10 1
12 11 12 1
13 11 19 1
14 12 13 2
15 12 14 1
16 14 15 1
17 14 18 1
18 15 16 1
19 15 22 1
20 15 23 1
21 16 17 1
22 17 18 1
23 17 21 1
24 18 19 1
25 19 20 2
26 21 22 2
27 23 24 1
28 23 28 1
29 24 25 1
30 25 26 2
31 25 27 1
32 28 29 1
33 29 30 2
34 29 31 1
35 4 32 1
36 5 33 1
37 7 34 1
38 14 35 1
39 17 36 1
40 18 37 1
41 21 38 1
42 22 39 1
43 23 40 1
44 27 41 1
45 27 42 1
46 27 43 1
47 31 44 1
48 31 45 1
49 31 46 1
@<TRIPOS>SUBSTRUCTURE
1	UNK0	1	GROUP	1 ****	UNK
