# created with PyMOL 2.3.2
@<TRIPOS>MOLECULE
2034
38 41 1                 
SMALL
USER_CHARGES
@<TRIPOS>ATOM
1	  Cl	6.801	0.995	0.167	Cl	1	UNK0	0.000	
2	   C	5.537	0.372	-0.873	C.2	1	UNK0	0.000	
3	   N	5.797	0.286	-2.208	N.2	1	UNK0	0.000	
4	   C	4.868	-0.183	-3.051	C.2	1	UNK0	0.000	
5	   N	4.894	-0.356	-4.375	N.pl3	1	UNK0	0.000	
6	   C	3.691	-0.859	-4.707	C.2	1	UNK0	0.000	
7	   N	2.926	-0.995	-3.591	N.2	1	UNK0	0.000	
8	   C	3.633	-0.581	-2.533	C.2	1	UNK0	0.000	
9	   C	3.368	-0.496	-1.186	C.2	1	UNK0	0.000	
10	   N	4.326	-0.020	-0.382	N.2	1	UNK0	0.000	
11	   N	2.097	-0.902	-0.638	N.pl3	1	UNK0	0.000	
12	   C	1.816	-0.815	0.752	C.3	1	UNK0	0.000	
13	   C	0.477	-1.263	1.171	C.2	1	UNK0	0.000	
14	   O	0.211	-1.189	2.425	O.2	1	UNK0	0.000	
15	   N	-0.546	-1.764	0.338	N.pl3	1	UNK0	0.000	
16	   C	-1.827	-2.175	0.849	C.3	1	UNK0	0.000	
17	   C	-2.716	-1.011	1.180	C.2	1	UNK0	0.000	
18	   C	-3.394	-0.342	0.170	C.2	1	UNK0	0.000	
19	   C	-4.227	0.732	0.399	C.2	1	UNK0	0.000	
20	   C	-4.408	1.178	1.692	C.2	1	UNK0	0.000	
21	   C	-3.743	0.526	2.709	C.2	1	UNK0	0.000	
22	   C	-2.909	-0.551	2.465	C.2	1	UNK0	0.000	
23	   O	-5.295	2.272	1.642	O.3	1	UNK0	0.000	
24	   C	-5.247	2.793	0.313	C.3	1	UNK0	0.000	
25	   O	-5.010	1.568	-0.400	O.3	1	UNK0	0.000	
26	   H	5.641	-0.170	-5.079	 H	1	UNK0	0.000	
27	   H	3.319	-1.135	-5.683	 H	1	UNK0	0.000	
28	   H	1.375	-1.269	-1.295	 H	1	UNK0	0.000	
29	   H	1.862	0.282	1.036	 H	1	UNK0	0.000	
30	   H	2.613	-1.271	1.390	 H	1	UNK0	0.000	
31	   H	-0.386	-1.844	-0.677	 H	1	UNK0	0.000	
32	   H	-1.711	-2.788	1.787	 H	1	UNK0	0.000	
33	   H	-2.302	-2.863	0.125	 H	1	UNK0	0.000	
34	   H	-3.254	-0.688	-0.845	 H	1	UNK0	0.000	
35	   H	-3.891	0.883	3.719	 H	1	UNK0	0.000	
36	   H	-2.389	-1.064	3.260	 H	1	UNK0	0.000	
37	   H	-6.164	3.289	0.006	 H	1	UNK0	0.000	
38	   H	-4.326	3.393	0.225	 H	1	UNK0	0.000	
@<TRIPOS>BOND
1 1 2 1
2 2 3 2
3 2 10 1
4 3 4 1
5 4 5 1
6 4 8 2
7 5 6 1
8 6 7 2
9 7 8 1
10 8 9 1
11 9 10 2
12 9 11 1
13 11 12 1
14 12 13 1
15 13 14 2
16 13 15 1
17 15 16 1
18 16 17 1
19 17 18 2
20 17 22 1
21 18 19 1
22 19 20 2
23 19 25 1
24 20 21 1
25 20 23 1
26 21 22 2
27 23 24 1
28 24 25 1
29 5 26 1
30 6 27 1
31 11 28 1
32 12 29 1
33 12 30 1
34 15 31 1
35 16 32 1
36 16 33 1
37 18 34 1
38 21 35 1
39 22 36 1
40 24 37 1
41 24 38 1
@<TRIPOS>SUBSTRUCTURE
1	UNK0	1	GROUP	1 ****	UNK
