# created with PyMOL 2.3.2
@<TRIPOS>MOLECULE
2035
54 57 1                 
SMALL
USER_CHARGES
@<TRIPOS>ATOM
1	   S	-0.538	3.437	0.856	S.O2	1	UNK0	0.000	
2	   O	-1.241	4.482	0.035	O.2	1	UNK0	0.000	
3	   O	-0.227	4.103	2.190	O.2	1	UNK0	0.000	
4	   N	-1.448	2.066	1.156	N.3	1	UNK0	0.000	
5	   C	-1.811	1.256	0.055	C.3	1	UNK0	0.000	
6	   C	-2.190	-0.150	0.531	C.3	1	UNK0	0.000	
7	   N	-3.228	-0.006	1.507	N.pl3	1	UNK0	0.000	
8	   C	-3.617	1.334	1.844	C.3	1	UNK0	0.000	
9	   C	-2.342	2.083	2.252	C.3	1	UNK0	0.000	
10	   C	-3.849	-1.104	2.116	C.2	1	UNK0	0.000	
11	   O	-4.761	-0.891	2.972	O.2	1	UNK0	0.000	
12	   C	-3.526	-2.519	1.841	C.3	1	UNK0	0.000	
13	   O	-2.519	-2.693	0.893	O.3	1	UNK0	0.000	
14	   C	-2.092	-3.945	0.516	C.2	1	UNK0	0.000	
15	   C	-1.079	-4.043	-0.439	C.2	1	UNK0	0.000	
16	   C	-0.607	-5.267	-0.858	C.2	1	UNK0	0.000	
17	   C	-1.117	-6.433	-0.350	C.2	1	UNK0	0.000	
18	   C	-2.116	-6.339	0.593	C.2	1	UNK0	0.000	
19	   C	-2.609	-5.110	1.032	C.2	1	UNK0	0.000	
20	   C	0.996	2.999	0.152	C.2	1	UNK0	0.000	
21	   C	1.297	3.494	-1.098	C.2	1	UNK0	0.000	
22	   C	2.513	3.159	-1.679	C.2	1	UNK0	0.000	
23	   C	3.365	2.345	-0.978	C.2	1	UNK0	0.000	
24	   C	3.081	1.838	0.277	C.2	1	UNK0	0.000	
25	   C	1.870	2.183	0.835	C.2	1	UNK0	0.000	
26	  Cl	1.429	1.587	2.417	Cl	1	UNK0	0.000	
27	   N	4.612	2.012	-1.595	N.pl3	1	UNK0	0.000	
28	   C	4.887	2.543	-2.885	C.2	1	UNK0	0.000	
29	   O	6.080	2.717	-3.279	O.2	1	UNK0	0.000	
30	   C	3.711	2.878	-3.738	C.3	1	UNK0	0.000	
31	   O	2.823	3.657	-2.944	O.3	1	UNK0	0.000	
32	   C	3.005	1.578	-4.113	C.3	1	UNK0	0.000	
33	   H	-2.694	1.681	-0.451	 H	1	UNK0	0.000	
34	   H	-0.994	1.221	-0.678	 H	1	UNK0	0.000	
35	   H	-2.581	-0.721	-0.359	 H	1	UNK0	0.000	
36	   H	-1.304	-0.705	0.881	 H	1	UNK0	0.000	
37	   H	-4.341	1.353	2.709	 H	1	UNK0	0.000	
38	   H	-4.113	1.869	1.003	 H	1	UNK0	0.000	
39	   H	-2.547	3.047	2.712	 H	1	UNK0	0.000	
40	   H	-1.896	1.441	3.068	 H	1	UNK0	0.000	
41	   H	-4.472	-3.054	1.571	 H	1	UNK0	0.000	
42	   H	-3.182	-2.995	2.786	 H	1	UNK0	0.000	
43	   H	-0.627	-3.165	-0.886	 H	1	UNK0	0.000	
44	   H	0.187	-5.352	-1.607	 H	1	UNK0	0.000	
45	   H	-0.729	-7.388	-0.695	 H	1	UNK0	0.000	
46	   H	-2.509	-7.267	0.985	 H	1	UNK0	0.000	
47	   H	-3.381	-5.045	1.760	 H	1	UNK0	0.000	
48	   H	0.603	4.138	-1.630	 H	1	UNK0	0.000	
49	   H	3.779	1.194	0.806	 H	1	UNK0	0.000	
50	   H	5.321	1.395	-1.128	 H	1	UNK0	0.000	
51	   H	4.038	3.396	-4.645	 H	1	UNK0	0.000	
52	   H	2.417	1.230	-3.232	 H	1	UNK0	0.000	
53	   H	2.317	1.852	-4.960	 H	1	UNK0	0.000	
54	   H	3.726	0.837	-4.483	 H	1	UNK0	0.000	
@<TRIPOS>BOND
1 1 2 2
2 1 3 2
3 1 4 1
4 1 20 1
5 4 5 1
6 4 9 1
7 5 6 1
8 6 7 1
9 7 8 1
10 7 10 1
11 8 9 1
12 10 11 2
13 10 12 1
14 12 13 1
15 13 14 1
16 14 15 2
17 14 19 1
18 15 16 1
19 16 17 2
20 17 18 1
21 18 19 2
22 20 21 2
23 20 25 1
24 21 22 1
25 22 23 2
26 22 31 1
27 23 24 1
28 23 27 1
29 24 25 2
30 25 26 1
31 27 28 1
32 28 29 2
33 28 30 1
34 30 31 1
35 30 32 1
36 5 33 1
37 5 34 1
38 6 35 1
39 6 36 1
40 8 37 1
41 8 38 1
42 9 39 1
43 9 40 1
44 12 41 1
45 12 42 1
46 15 43 1
47 16 44 1
48 17 45 1
49 18 46 1
50 19 47 1
51 21 48 1
52 24 49 1
53 27 50 1
54 30 51 1
55 32 52 1
56 32 53 1
57 32 54 1
@<TRIPOS>SUBSTRUCTURE
1	UNK0	1	GROUP	1 ****	UNK
