# created with PyMOL 2.3.2
@<TRIPOS>MOLECULE
2036
51 54 1                 
SMALL
USER_CHARGES
@<TRIPOS>ATOM
1	   S	0.213	1.623	1.289	S.O2	1	UNK0	0.000	
2	   O	0.867	3.003	1.330	O.2	1	UNK0	0.000	
3	   O	-0.168	1.327	2.711	O.2	1	UNK0	0.000	
4	   N	1.241	0.468	0.687	N.3	1	UNK0	0.000	
5	   C	1.819	0.690	-0.598	C.3	1	UNK0	0.000	
6	   C	1.952	-0.643	-1.303	C.3	1	UNK0	0.000	
7	   N	1.977	-1.741	-0.299	N.pl3	1	UNK0	0.000	
8	   C	2.720	-1.377	0.892	C.3	1	UNK0	0.000	
9	   C	2.088	-0.210	1.624	C.3	1	UNK0	0.000	
10	   C	1.370	-2.962	-0.578	C.2	1	UNK0	0.000	
11	   O	0.877	-3.065	-1.777	O.2	1	UNK0	0.000	
12	   C	1.190	-4.149	0.235	C.3	1	UNK0	0.000	
13	   O	1.379	-4.062	1.604	O.3	1	UNK0	0.000	
14	   C	0.589	-3.267	2.437	C.2	1	UNK0	0.000	
15	   C	-0.448	-2.510	1.956	C.2	1	UNK0	0.000	
16	   C	-1.179	-1.751	2.857	C.2	1	UNK0	0.000	
17	   C	-0.898	-1.738	4.196	C.2	1	UNK0	0.000	
18	   C	0.148	-2.501	4.686	C.2	1	UNK0	0.000	
19	   C	0.866	-3.249	3.784	C.2	1	UNK0	0.000	
20	   C	-1.191	1.809	0.272	C.2	1	UNK0	0.000	
21	   C	-1.446	1.027	-0.826	C.2	1	UNK0	0.000	
22	   C	-2.577	1.159	-1.635	C.2	1	UNK0	0.000	
23	   C	-3.491	2.128	-1.317	C.2	1	UNK0	0.000	
24	   C	-3.284	2.940	-0.224	C.2	1	UNK0	0.000	
25	   C	-2.156	2.789	0.561	C.2	1	UNK0	0.000	
26	  Cl	-1.898	3.815	1.937	Cl	1	UNK0	0.000	
27	   N	-4.643	2.244	-2.174	N.pl3	1	UNK0	0.000	
28	   C	-4.796	1.380	-3.290	C.2	1	UNK0	0.000	
29	   O	-5.916	1.212	-3.804	O.2	1	UNK0	0.000	
30	   C	-3.615	0.702	-3.810	C.3	1	UNK0	0.000	
31	   O	-2.785	0.347	-2.727	O.3	1	UNK0	0.000	
32	   H	2.875	1.093	-0.512	 H	1	UNK0	0.000	
33	   H	1.264	1.442	-1.149	 H	1	UNK0	0.000	
34	   H	1.175	-0.787	-2.047	 H	1	UNK0	0.000	
35	   H	2.939	-0.739	-1.824	 H	1	UNK0	0.000	
36	   H	3.713	-0.980	0.463	 H	1	UNK0	0.000	
37	   H	2.992	-2.207	1.538	 H	1	UNK0	0.000	
38	   H	1.525	-0.494	2.508	 H	1	UNK0	0.000	
39	   H	2.905	0.476	2.003	 H	1	UNK0	0.000	
40	   H	1.953	-4.905	-0.136	 H	1	UNK0	0.000	
41	   H	0.216	-4.682	0.018	 H	1	UNK0	0.000	
42	   H	-0.687	-2.503	0.920	 H	1	UNK0	0.000	
43	   H	-2.009	-1.136	2.521	 H	1	UNK0	0.000	
44	   H	-1.478	-1.141	4.883	 H	1	UNK0	0.000	
45	   H	0.368	-2.489	5.747	 H	1	UNK0	0.000	
46	   H	1.682	-3.841	4.189	 H	1	UNK0	0.000	
47	   H	-0.762	0.252	-1.102	 H	1	UNK0	0.000	
48	   H	-4.041	3.692	-0.018	 H	1	UNK0	0.000	
49	   H	-5.344	2.979	-1.938	 H	1	UNK0	0.000	
50	   H	-3.094	1.423	-4.503	 H	1	UNK0	0.000	
51	   H	-3.839	-0.183	-4.432	 H	1	UNK0	0.000	
@<TRIPOS>BOND
1 1 2 2
2 1 3 2
3 1 4 1
4 1 20 1
5 4 5 1
6 4 9 1
7 5 6 1
8 6 7 1
9 7 8 1
10 7 10 1
11 8 9 1
12 10 11 2
13 10 12 1
14 12 13 1
15 13 14 1
16 14 15 2
17 14 19 1
18 15 16 1
19 16 17 2
20 17 18 1
21 18 19 2
22 20 21 2
23 20 25 1
24 21 22 1
25 22 23 2
26 22 31 1
27 23 24 1
28 23 27 1
29 24 25 2
30 25 26 1
31 27 28 1
32 28 29 2
33 28 30 1
34 30 31 1
35 5 32 1
36 5 33 1
37 6 34 1
38 6 35 1
39 8 36 1
40 8 37 1
41 9 38 1
42 9 39 1
43 12 40 1
44 12 41 1
45 15 42 1
46 16 43 1
47 17 44 1
48 18 45 1
49 19 46 1
50 21 47 1
51 24 48 1
52 27 49 1
53 30 50 1
54 30 51 1
@<TRIPOS>SUBSTRUCTURE
1	UNK0	1	GROUP	1 ****	UNK
