# created with PyMOL 2.3.2
@<TRIPOS>MOLECULE
2042
53 56 1                 
SMALL
USER_CHARGES
@<TRIPOS>ATOM
1	   S	-0.944	1.597	-3.408	S.O2	1	UNK0	0.000	
2	   O	-2.232	0.874	-3.066	O.2	1	UNK0	0.000	
3	   O	-1.296	2.534	-4.547	O.2	1	UNK0	0.000	
4	   N	0.229	0.481	-3.786	N.3	1	UNK0	0.000	
5	   C	1.511	0.903	-4.127	C.3	1	UNK0	0.000	
6	   C	2.387	-0.307	-4.412	C.3	1	UNK0	0.000	
7	   N	2.075	-1.344	-3.448	N.pl3	1	UNK0	0.000	
8	   C	0.706	-1.817	-3.388	C.3	1	UNK0	0.000	
9	   C	-0.170	-0.826	-4.150	C.3	1	UNK0	0.000	
10	   C	3.106	-1.834	-2.628	C.2	1	UNK0	0.000	
11	   O	4.281	-1.396	-2.713	O.2	1	UNK0	0.000	
12	   C	2.885	-2.904	-1.602	C.3	1	UNK0	0.000	
13	   C	-0.531	2.560	-2.007	C.2	1	UNK0	0.000	
14	   C	-0.891	2.162	-0.719	C.2	1	UNK0	0.000	
15	   C	-0.576	2.905	0.398	C.2	1	UNK0	0.000	
16	   C	0.123	4.079	0.173	C.2	1	UNK0	0.000	
17	   C	0.483	4.479	-1.101	C.2	1	UNK0	0.000	
18	   C	0.163	3.730	-2.210	C.2	1	UNK0	0.000	
19	   C	-0.930	2.517	1.768	C.2	1	UNK0	0.000	
20	   O	-0.795	3.429	2.626	O.2	1	UNK0	0.000	
21	   N	-1.384	1.223	2.095	N.pl3	1	UNK0	0.000	
22	   N	-1.749	0.717	3.318	N.pl3	1	UNK0	0.000	
23	   C	-1.728	1.423	4.461	C.2	1	UNK0	0.000	
24	   N	-2.103	0.863	5.649	N.2	1	UNK0	0.000	
25	   C	-2.509	-0.406	5.743	C.2	1	UNK0	0.000	
26	   C	-2.528	-1.127	4.565	C.2	1	UNK0	0.000	
27	   C	-2.935	-2.464	4.547	C.2	1	UNK0	0.000	
28	   C	-3.321	-3.070	5.714	C.2	1	UNK0	0.000	
29	   C	-3.297	-2.332	6.897	C.2	1	UNK0	0.000	
30	   C	-2.892	-1.012	6.899	C.2	1	UNK0	0.000	
31	  Cl	-3.835	-4.751	5.701	Cl	1	UNK0	0.000	
32	   C	-2.154	-0.572	3.372	C.2	1	UNK0	0.000	
33	   O	-2.198	-1.301	2.322	O.2	1	UNK0	0.000	
34	   H	1.593	1.560	-5.032	 H	1	UNK0	0.000	
35	   H	1.973	1.470	-3.273	 H	1	UNK0	0.000	
36	   H	3.459	-0.047	-4.396	 H	1	UNK0	0.000	
37	   H	2.099	-0.731	-5.414	 H	1	UNK0	0.000	
38	   H	0.625	-2.787	-3.913	 H	1	UNK0	0.000	
39	   H	0.314	-1.851	-2.357	 H	1	UNK0	0.000	
40	   H	0.008	-0.964	-5.240	 H	1	UNK0	0.000	
41	   H	-1.235	-0.965	-3.947	 H	1	UNK0	0.000	
42	   H	3.662	-2.870	-0.811	 H	1	UNK0	0.000	
43	   H	1.872	-2.839	-1.166	 H	1	UNK0	0.000	
44	   H	3.009	-3.868	-2.137	 H	1	UNK0	0.000	
45	   H	-1.431	1.250	-0.605	 H	1	UNK0	0.000	
46	   H	0.398	4.707	1.028	 H	1	UNK0	0.000	
47	   H	1.029	5.402	-1.247	 H	1	UNK0	0.000	
48	   H	0.450	4.052	-3.201	 H	1	UNK0	0.000	
49	   H	-1.441	0.559	1.259	 H	1	UNK0	0.000	
50	   H	-1.416	2.458	4.496	 H	1	UNK0	0.000	
51	   H	-2.958	-3.044	3.637	 H	1	UNK0	0.000	
52	   H	-3.606	-2.835	7.805	 H	1	UNK0	0.000	
53	   H	-2.876	-0.447	7.816	 H	1	UNK0	0.000	
@<TRIPOS>BOND
1 1 2 2
2 1 3 2
3 1 4 1
4 1 13 1
5 4 5 1
6 4 9 1
7 5 6 1
8 6 7 1
9 7 8 1
10 7 10 1
11 8 9 1
12 10 11 2
13 10 12 1
14 13 14 2
15 13 18 1
16 14 15 1
17 15 16 2
18 15 19 1
19 16 17 1
20 17 18 2
21 19 20 2
22 19 21 1
23 21 22 1
24 22 23 1
25 22 32 1
26 23 24 2
27 24 25 1
28 25 26 2
29 25 30 1
30 26 27 1
31 26 32 1
32 27 28 2
33 28 29 1
34 28 31 1
35 29 30 2
36 32 33 2
37 5 34 1
38 5 35 1
39 6 36 1
40 6 37 1
41 8 38 1
42 8 39 1
43 9 40 1
44 9 41 1
45 12 42 1
46 12 43 1
47 12 44 1
48 14 45 1
49 16 46 1
50 17 47 1
51 18 48 1
52 21 49 1
53 23 50 1
54 27 51 1
55 29 52 1
56 30 53 1
@<TRIPOS>SUBSTRUCTURE
1	UNK0	1	GROUP	1 ****	UNK
