# created with PyMOL 2.3.2
@<TRIPOS>MOLECULE
2044
48 51 1                 
SMALL
USER_CHARGES
@<TRIPOS>ATOM
1	   S	2.647	-0.820	-2.853	S.O2	1	UNK0	0.000	
2	   O	3.898	-0.077	-2.490	O.2	1	UNK0	0.000	
3	   O	2.914	-1.647	-4.090	O.2	1	UNK0	0.000	
4	   N	2.182	-1.803	-1.585	N.3	1	UNK0	0.000	
5	   C	1.077	-2.647	-1.722	C.3	1	UNK0	0.000	
6	   C	0.590	-3.251	-0.423	C.3	1	UNK0	0.000	
7	   N	0.902	-2.382	0.705	N.pl3	1	UNK0	0.000	
8	   C	2.278	-2.009	0.883	C.3	1	UNK0	0.000	
9	   C	2.965	-1.882	-0.429	C.3	1	UNK0	0.000	
10	   C	-0.147	-1.962	1.545	C.2	1	UNK0	0.000	
11	   O	-1.321	-2.333	1.316	O.2	1	UNK0	0.000	
12	   C	0.058	-1.095	2.704	C.2	1	UNK0	0.000	
13	   C	-0.908	-0.701	3.487	C.2	1	UNK0	0.000	
14	   C	-0.665	0.162	4.631	C.2	1	UNK0	0.000	
15	   O	-1.518	0.638	5.500	O.3	1	UNK0	0.000	
16	   C	-0.926	1.386	6.399	C.2	1	UNK0	0.000	
17	   C	0.432	1.430	6.131	C.2	1	UNK0	0.000	
18	   C	0.575	0.637	4.991	C.2	1	UNK0	0.000	
19	   C	1.361	0.315	-3.260	C.2	1	UNK0	0.000	
20	   C	0.781	0.343	-4.509	C.2	1	UNK0	0.000	
21	   C	-0.241	1.257	-4.805	C.2	1	UNK0	0.000	
22	   C	-0.690	2.149	-3.858	C.2	1	UNK0	0.000	
23	   C	-0.107	2.121	-2.604	C.2	1	UNK0	0.000	
24	   C	0.901	1.214	-2.321	C.2	1	UNK0	0.000	
25	  Cl	1.633	1.186	-0.733	Cl	1	UNK0	0.000	
26	   N	-1.727	3.060	-4.195	N.pl3	1	UNK0	0.000	
27	   C	-2.305	3.060	-5.495	C.2	1	UNK0	0.000	
28	   O	-3.073	3.959	-5.914	O.2	1	UNK0	0.000	
29	   C	-1.990	1.936	-6.425	C.3	1	UNK0	0.000	
30	   O	-0.806	1.270	-6.052	O.3	1	UNK0	0.000	
31	   H	0.223	-2.094	-2.164	 H	1	UNK0	0.000	
32	   H	1.321	-3.462	-2.464	 H	1	UNK0	0.000	
33	   H	1.162	-4.190	-0.250	 H	1	UNK0	0.000	
34	   H	-0.469	-3.497	-0.411	 H	1	UNK0	0.000	
35	   H	2.296	-1.005	1.396	 H	1	UNK0	0.000	
36	   H	2.821	-2.697	1.569	 H	1	UNK0	0.000	
37	   H	3.626	-2.797	-0.531	 H	1	UNK0	0.000	
38	   H	3.724	-1.050	-0.333	 H	1	UNK0	0.000	
39	   H	1.060	-0.729	2.971	 H	1	UNK0	0.000	
40	   H	-1.928	-1.016	3.296	 H	1	UNK0	0.000	
41	   H	-1.394	1.898	7.226	 H	1	UNK0	0.000	
42	   H	1.217	1.952	6.667	 H	1	UNK0	0.000	
43	   H	1.546	0.484	4.543	 H	1	UNK0	0.000	
44	   H	1.130	-0.360	-5.265	 H	1	UNK0	0.000	
45	   H	-0.478	2.830	-1.883	 H	1	UNK0	0.000	
46	   H	-2.086	3.755	-3.477	 H	1	UNK0	0.000	
47	   H	-2.804	1.155	-6.383	 H	1	UNK0	0.000	
48	   H	-1.978	2.286	-7.469	 H	1	UNK0	0.000	
@<TRIPOS>BOND
1 1 2 2
2 1 3 2
3 1 4 1
4 1 19 1
5 4 5 1
6 4 9 1
7 5 6 1
8 6 7 1
9 7 8 1
10 7 10 1
11 8 9 1
12 10 11 2
13 10 12 1
14 12 13 2
15 13 14 1
16 14 15 1
17 14 18 2
18 15 16 1
19 16 17 2
20 17 18 1
21 19 20 2
22 19 24 1
23 20 21 1
24 21 22 2
25 21 30 1
26 22 23 1
27 22 26 1
28 23 24 2
29 24 25 1
30 26 27 1
31 27 28 2
32 27 29 1
33 29 30 1
34 5 31 1
35 5 32 1
36 6 33 1
37 6 34 1
38 8 35 1
39 8 36 1
40 9 37 1
41 9 38 1
42 12 39 1
43 13 40 1
44 16 41 1
45 17 42 1
46 18 43 1
47 20 44 1
48 23 45 1
49 26 46 1
50 29 47 1
51 29 48 1
@<TRIPOS>SUBSTRUCTURE
1	UNK0	1	GROUP	1 ****	UNK
