# created with PyMOL 2.3.2
@<TRIPOS>MOLECULE
2045
55 58 1                 
SMALL
USER_CHARGES
@<TRIPOS>ATOM
1	  Cl	3.447	-0.078	-2.652	Cl	1	UNK0	0.000	
2	   C	1.972	-0.398	-1.717	C.2	1	UNK0	0.000	
3	   C	1.822	0.088	-0.468	C.2	1	UNK0	0.000	
4	   C	0.654	-0.220	0.249	C.2	1	UNK0	0.000	
5	   C	-0.351	-0.997	-0.262	C.2	1	UNK0	0.000	
6	   C	-0.163	-1.485	-1.560	C.2	1	UNK0	0.000	
7	   C	0.975	-1.186	-2.260	C.2	1	UNK0	0.000	
8	   C	-1.579	-1.300	0.518	C.3	1	UNK0	0.000	
9	   O	-2.307	-2.221	-0.262	O.3	1	UNK0	0.000	
10	   C	-3.542	-2.180	0.429	C.3	1	UNK0	0.000	
11	   C	-3.355	-3.218	1.526	C.3	1	UNK0	0.000	
12	   C	-2.279	-2.754	2.469	C.3	1	UNK0	0.000	
13	   C	-1.352	-1.717	1.917	C.3	1	UNK0	0.000	
14	   O	-0.044	-2.142	2.155	O.3	1	UNK0	0.000	
15	   O	-2.968	-2.288	3.614	O.3	1	UNK0	0.000	
16	   O	-2.865	-4.369	0.860	O.3	1	UNK0	0.000	
17	   C	-3.686	-0.787	0.944	C.3	1	UNK0	0.000	
18	   O	-2.484	-0.204	0.483	O.3	1	UNK0	0.000	
19	   C	-4.609	-2.586	-0.541	C.3	1	UNK0	0.000	
20	   O	-4.619	-1.704	-1.605	O.3	1	UNK0	0.000	
21	   C	2.800	0.971	0.195	C.3	1	UNK0	0.000	
22	   C	2.570	2.378	-0.189	C.2	1	UNK0	0.000	
23	   C	3.243	3.050	-1.163	C.2	1	UNK0	0.000	
24	   C	2.973	4.391	-1.484	C.2	1	UNK0	0.000	
25	   C	1.999	5.086	-0.810	C.2	1	UNK0	0.000	
26	   C	1.313	4.414	0.178	C.2	1	UNK0	0.000	
27	   C	1.573	3.098	0.498	C.2	1	UNK0	0.000	
28	   O	1.715	6.419	-1.120	O.3	1	UNK0	0.000	
29	   C	2.397	7.081	-2.182	C.3	1	UNK0	0.000	
30	   C	2.006	6.335	-3.464	C.3	1	UNK0	0.000	
31	   H	0.515	0.168	1.270	 H	1	UNK0	0.000	
32	   H	-0.965	-2.103	-1.951	 H	1	UNK0	0.000	
33	   H	1.107	-1.568	-3.250	 H	1	UNK0	0.000	
34	   H	-4.288	-3.486	2.027	 H	1	UNK0	0.000	
35	   H	-1.735	-3.656	2.823	 H	1	UNK0	0.000	
36	   H	-1.488	-0.800	2.570	 H	1	UNK0	0.000	
37	   H	0.097	-2.056	3.148	 H	1	UNK0	0.000	
38	   H	-2.322	-2.122	4.330	 H	1	UNK0	0.000	
39	   H	-2.013	-4.117	0.413	 H	1	UNK0	0.000	
40	   H	-4.574	-0.268	0.506	 H	1	UNK0	0.000	
41	   H	-3.771	-0.712	2.040	 H	1	UNK0	0.000	
42	   H	-5.600	-2.665	-0.024	 H	1	UNK0	0.000	
43	   H	-4.315	-3.588	-0.956	 H	1	UNK0	0.000	
44	   H	-4.092	-0.905	-1.370	 H	1	UNK0	0.000	
45	   H	2.793	0.813	1.284	 H	1	UNK0	0.000	
46	   H	3.832	0.710	-0.199	 H	1	UNK0	0.000	
47	   H	4.041	2.533	-1.703	 H	1	UNK0	0.000	
48	   H	3.566	4.843	-2.259	 H	1	UNK0	0.000	
49	   H	0.530	4.952	0.728	 H	1	UNK0	0.000	
50	   H	1.034	2.572	1.275	 H	1	UNK0	0.000	
51	   H	2.029	8.115	-2.217	 H	1	UNK0	0.000	
52	   H	3.494	7.082	-2.048	 H	1	UNK0	0.000	
53	   H	1.222	6.959	-4.002	 H	1	UNK0	0.000	
54	   H	2.875	6.139	-4.090	 H	1	UNK0	0.000	
55	   H	1.487	5.389	-3.228	 H	1	UNK0	0.000	
@<TRIPOS>BOND
1 1 2 1
2 2 3 2
3 2 7 1
4 3 4 1
5 3 21 1
6 4 5 2
7 5 6 1
8 5 8 1
9 6 7 2
10 8 9 1
11 8 13 1
12 8 18 1
13 9 10 1
14 10 11 1
15 10 17 1
16 10 19 1
17 11 12 1
18 11 16 1
19 12 13 1
20 12 15 1
21 13 14 1
22 17 18 1
23 19 20 1
24 21 22 1
25 22 23 2
26 22 27 1
27 23 24 1
28 24 25 2
29 25 26 1
30 25 28 1
31 26 27 2
32 28 29 1
33 29 30 1
34 4 31 1
35 6 32 1
36 7 33 1
37 11 34 1
38 12 35 1
39 13 36 1
40 14 37 1
41 15 38 1
42 16 39 1
43 17 40 1
44 17 41 1
45 19 42 1
46 19 43 1
47 20 44 1
48 21 45 1
49 21 46 1
50 23 47 1
51 24 48 1
52 26 49 1
53 27 50 1
54 29 51 1
55 29 52 1
56 30 53 1
57 30 54 1
58 30 55 1
@<TRIPOS>SUBSTRUCTURE
1	UNK0	1	GROUP	1 ****	UNK
