# created with PyMOL 2.3.2
@<TRIPOS>MOLECULE
2047
46 49 1                 
SMALL
USER_CHARGES
@<TRIPOS>ATOM
1	  Cl	-2.008	3.503	-0.474	Cl	1	UNK0	0.000	
2	   C	-2.570	1.887	-0.094	C.2	1	UNK0	0.000	
3	   C	-1.856	0.822	-0.638	C.2	1	UNK0	0.000	
4	   C	-2.314	-0.441	-0.328	C.2	1	UNK0	0.000	
5	   C	-3.423	-0.640	0.481	C.2	1	UNK0	0.000	
6	   C	-4.111	0.438	1.006	C.2	1	UNK0	0.000	
7	   C	-3.670	1.701	0.708	C.2	1	UNK0	0.000	
8	   N	-3.866	-1.948	0.780	N.pl3	1	UNK0	0.000	
9	   O	-3.283	-2.958	0.334	O.2	1	UNK0	0.000	
10	   O	-4.959	-2.164	1.576	O.2	1	UNK0	0.000	
11	   N	-0.722	1.077	-1.463	N.pl3	1	UNK0	0.000	
12	   C	0.510	1.666	-0.982	C.2	1	UNK0	0.000	
13	   O	0.667	2.451	-0.026	O.2	1	UNK0	0.000	
14	   C	1.560	1.145	-1.859	C.3	1	UNK0	0.000	
15	   C	1.948	-0.278	-1.656	C.3	1	UNK0	0.000	
16	   O	1.201	-1.028	-2.610	O.3	1	UNK0	0.000	
17	   C	1.536	-0.207	-3.723	C.3	1	UNK0	0.000	
18	   C	0.887	1.047	-3.237	C.3	1	UNK0	0.000	
19	   C	-0.526	0.843	-2.845	C.2	1	UNK0	0.000	
20	   O	-1.429	0.505	-3.639	O.2	1	UNK0	0.000	
21	   C	3.028	-0.199	-3.579	C.2	1	UNK0	0.000	
22	   C	3.286	-0.436	-2.291	C.2	1	UNK0	0.000	
23	   C	1.793	-0.872	-0.331	C.3	1	UNK0	0.000	
24	   O	2.286	-2.224	-0.426	O.3	1	UNK0	0.000	
25	   C	1.481	-3.318	-0.198	C.2	1	UNK0	0.000	
26	   O	0.292	-3.132	0.099	O.co2	1	UNK0	0.000	
27	   C	1.962	-4.721	-0.288	C.3	1	UNK0	0.000	
28	   O	2.488	-0.272	0.710	O.3	1	UNK0	0.000	
29	   C	1.813	0.090	1.866	C.2	1	UNK0	0.000	
30	   O	0.563	-0.130	1.960	O.co2	1	UNK0	0.000	
31	   C	2.487	0.735	3.019	C.3	1	UNK0	0.000	
32	   H	-1.786	-1.299	-0.731	 H	1	UNK0	0.000	
33	   H	-4.983	0.257	1.642	 H	1	UNK0	0.000	
34	   H	-4.204	2.537	1.117	 H	1	UNK0	0.000	
35	   H	2.423	1.832	-1.978	 H	1	UNK0	0.000	
36	   H	1.183	-0.604	-4.654	 H	1	UNK0	0.000	
37	   H	1.061	1.936	-3.846	 H	1	UNK0	0.000	
38	   H	3.794	-0.036	-4.347	 H	1	UNK0	0.000	
39	   H	4.181	-0.682	-1.762	 H	1	UNK0	0.000	
40	   H	0.726	-0.968	-0.061	 H	1	UNK0	0.000	
41	   H	1.160	-5.437	-0.468	 H	1	UNK0	0.000	
42	   H	2.712	-4.829	-1.122	 H	1	UNK0	0.000	
43	   H	2.467	-4.978	0.652	 H	1	UNK0	0.000	
44	   H	2.793	-0.018	3.789	 H	1	UNK0	0.000	
45	   H	3.357	1.328	2.679	 H	1	UNK0	0.000	
46	   H	1.753	1.401	3.509	 H	1	UNK0	0.000	
@<TRIPOS>BOND
1 1 2 1
2 2 3 2
3 2 7 1
4 3 4 1
5 3 11 1
6 4 5 2
7 5 6 1
8 5 8 1
9 6 7 2
10 8 9 2
11 8 10 1
12 11 12 1
13 11 19 1
14 12 13 2
15 12 14 1
16 14 15 1
17 14 18 1
18 15 16 1
19 15 22 1
20 15 23 1
21 16 17 1
22 17 18 1
23 17 21 1
24 18 19 1
25 19 20 2
26 21 22 2
27 23 24 1
28 23 28 1
29 24 25 1
30 25 26 2
31 25 27 1
32 28 29 1
33 29 30 2
34 29 31 1
35 4 32 1
36 6 33 1
37 7 34 1
38 14 35 1
39 17 36 1
40 18 37 1
41 21 38 1
42 22 39 1
43 23 40 1
44 27 41 1
45 27 42 1
46 27 43 1
47 31 44 1
48 31 45 1
49 31 46 1
@<TRIPOS>SUBSTRUCTURE
1	UNK0	1	GROUP	1 ****	UNK
