# created with PyMOL 2.3.2
@<TRIPOS>MOLECULE
2048
46 49 1                 
SMALL
USER_CHARGES
@<TRIPOS>ATOM
1	  Cl	-2.339	2.978	-0.407	Cl	1	UNK0	0.000	
2	   C	-1.042	1.962	-1.025	C.2	1	UNK0	0.000	
3	   C	-0.958	1.657	-2.367	C.2	1	UNK0	0.000	
4	   C	0.067	0.856	-2.847	C.2	1	UNK0	0.000	
5	   C	1.035	0.334	-2.022	C.2	1	UNK0	0.000	
6	   C	0.952	0.638	-0.680	C.2	1	UNK0	0.000	
7	   C	-0.075	1.442	-0.191	C.2	1	UNK0	0.000	
8	   O	2.087	-0.482	-2.488	O.3	1	UNK0	0.000	
9	   C	3.048	-1.008	-1.649	C.3	1	UNK0	0.000	
10	   C	2.653	-1.954	-0.619	C.2	1	UNK0	0.000	
11	   O	3.582	-2.128	0.279	O.2	1	UNK0	0.000	
12	   N	1.488	-2.685	-0.439	N.pl3	1	UNK0	0.000	
13	   C	0.316	-2.785	-1.265	C.3	1	UNK0	0.000	
14	   C	-0.869	-2.261	-0.502	C.3	1	UNK0	0.000	
15	   N	-0.662	-2.109	0.901	N.pl3	1	UNK0	0.000	
16	   C	0.392	-2.764	1.650	C.3	1	UNK0	0.000	
17	   C	1.368	-3.507	0.787	C.3	1	UNK0	0.000	
18	   C	-1.539	-1.268	1.641	C.2	1	UNK0	0.000	
19	   N	-1.356	-1.003	2.944	N.2	1	UNK0	0.000	
20	   N	-2.120	-0.244	3.688	N.pl3	1	UNK0	0.000	
21	   C	-3.208	0.346	3.122	C.2	1	UNK0	0.000	
22	   N	-3.834	1.067	4.065	N.2	1	UNK0	0.000	
23	   N	-3.193	0.960	5.196	N.2	1	UNK0	0.000	
24	   C	-2.125	0.148	4.978	C.2	1	UNK0	0.000	
25	   C	-1.135	-0.238	5.989	C.3	1	UNK0	0.000	
26	   C	-3.491	0.143	1.796	C.2	1	UNK0	0.000	
27	   C	-2.655	-0.663	1.060	C.2	1	UNK0	0.000	
28	   H	-1.721	2.070	-3.013	 H	1	UNK0	0.000	
29	   H	0.115	0.629	-3.900	 H	1	UNK0	0.000	
30	   H	1.710	0.234	-0.008	 H	1	UNK0	0.000	
31	   H	-0.100	1.651	0.854	 H	1	UNK0	0.000	
32	   H	3.868	-1.444	-2.304	 H	1	UNK0	0.000	
33	   H	3.595	-0.153	-1.133	 H	1	UNK0	0.000	
34	   H	0.368	-2.359	-2.254	 H	1	UNK0	0.000	
35	   H	0.159	-3.915	-1.442	 H	1	UNK0	0.000	
36	   H	-1.140	-1.284	-0.943	 H	1	UNK0	0.000	
37	   H	-1.773	-2.912	-0.721	 H	1	UNK0	0.000	
38	   H	-0.122	-3.486	2.346	 H	1	UNK0	0.000	
39	   H	0.926	-2.027	2.285	 H	1	UNK0	0.000	
40	   H	2.349	-3.647	1.252	 H	1	UNK0	0.000	
41	   H	0.924	-4.486	0.522	 H	1	UNK0	0.000	
42	   H	-1.282	0.345	6.924	 H	1	UNK0	0.000	
43	   H	-0.090	-0.104	5.690	 H	1	UNK0	0.000	
44	   H	-1.305	-1.307	6.282	 H	1	UNK0	0.000	
45	   H	-4.344	0.607	1.357	 H	1	UNK0	0.000	
46	   H	-2.853	-0.844	0.011	 H	1	UNK0	0.000	
@<TRIPOS>BOND
1 1 2 1
2 2 3 2
3 2 7 1
4 3 4 1
5 4 5 2
6 5 6 1
7 5 8 1
8 6 7 2
9 8 9 1
10 9 10 1
11 10 11 2
12 10 12 1
13 12 13 1
14 12 17 1
15 13 14 1
16 14 15 1
17 15 16 1
18 15 18 1
19 16 17 1
20 18 19 2
21 18 27 1
22 19 20 1
23 20 21 1
24 20 24 1
25 21 22 2
26 21 26 1
27 22 23 1
28 23 24 2
29 24 25 1
30 26 27 2
31 3 28 1
32 4 29 1
33 6 30 1
34 7 31 1
35 9 32 1
36 9 33 1
37 13 34 1
38 13 35 1
39 14 36 1
40 14 37 1
41 16 38 1
42 16 39 1
43 17 40 1
44 17 41 1
45 25 42 1
46 25 43 1
47 25 44 1
48 26 45 1
49 27 46 1
@<TRIPOS>SUBSTRUCTURE
1	UNK0	1	GROUP	1 ****	UNK
