# created with PyMOL 2.3.2
@<TRIPOS>MOLECULE
2049
56 60 1                 
SMALL
USER_CHARGES
@<TRIPOS>ATOM
1	  Br	-6.146	-5.514	2.882	Br	1	UNK0	0.000	
2	   C	-4.845	-4.096	2.785	C.2	1	UNK0	0.000	
3	   N	-4.638	-3.288	1.739	N.2	1	UNK0	0.000	
4	   N	-3.667	-2.444	2.045	N.pl3	1	UNK0	0.000	
5	   C	-3.254	-2.719	3.296	C.2	1	UNK0	0.000	
6	   N	-3.986	-3.748	3.760	N.2	1	UNK0	0.000	
7	   C	-3.113	-1.393	1.212	C.3	1	UNK0	0.000	
8	   C	-1.608	-1.635	1.163	C.3	1	UNK0	0.000	
9	   C	-0.997	-0.613	0.243	C.3	1	UNK0	0.000	
10	   C	-1.576	-0.810	-1.125	C.3	1	UNK0	0.000	
11	   C	-3.041	-0.465	-1.079	C.3	1	UNK0	0.000	
12	   C	-3.718	-1.475	-0.171	C.3	1	UNK0	0.000	
13	   C	-3.281	0.931	-0.557	C.3	1	UNK0	0.000	
14	   C	-2.788	1.001	0.858	C.3	1	UNK0	0.000	
15	   C	-3.423	-0.019	1.756	C.3	1	UNK0	0.000	
16	   C	-1.282	0.751	0.818	C.3	1	UNK0	0.000	
17	   C	0.494	-0.801	0.259	C.2	1	UNK0	0.000	
18	   O	0.911	-1.716	0.991	O.2	1	UNK0	0.000	
19	   N	1.329	0.005	-0.500	N.pl3	1	UNK0	0.000	
20	   N	2.699	0.053	-0.671	N.pl3	1	UNK0	0.000	
21	   C	3.221	1.000	-1.518	C.2	1	UNK0	0.000	
22	   C	4.555	1.126	-1.751	C.2	1	UNK0	0.000	
23	   C	5.473	0.298	-1.142	C.2	1	UNK0	0.000	
24	   C	4.941	-0.644	-0.299	C.2	1	UNK0	0.000	
25	   C	3.579	-0.754	-0.075	C.2	1	UNK0	0.000	
26	   O	3.210	-1.653	0.717	O.2	1	UNK0	0.000	
27	   C	5.846	-1.579	0.403	C.2	1	UNK0	0.000	
28	   O	7.084	-1.511	0.227	O.2	1	UNK0	0.000	
29	   N	5.345	-2.567	1.281	N.pl3	1	UNK0	0.000	
30	   C	6.932	0.423	-1.387	C.3	1	UNK0	0.000	
31	   C	2.300	1.941	-2.222	C.3	1	UNK0	0.000	
32	   H	-2.453	-2.181	3.829	 H	1	UNK0	0.000	
33	   H	-1.457	-2.638	0.725	 H	1	UNK0	0.000	
34	   H	-1.249	-1.561	2.199	 H	1	UNK0	0.000	
35	   H	-1.029	-0.291	-1.922	 H	1	UNK0	0.000	
36	   H	-1.525	-1.918	-1.337	 H	1	UNK0	0.000	
37	   H	-3.467	-0.533	-2.092	 H	1	UNK0	0.000	
38	   H	-4.783	-1.160	-0.067	 H	1	UNK0	0.000	
39	   H	-3.640	-2.474	-0.624	 H	1	UNK0	0.000	
40	   H	-4.337	1.173	-0.681	 H	1	UNK0	0.000	
41	   H	-2.636	1.630	-1.158	 H	1	UNK0	0.000	
42	   H	-2.932	2.011	1.303	 H	1	UNK0	0.000	
43	   H	-2.929	0.070	2.752	 H	1	UNK0	0.000	
44	   H	-4.507	0.096	1.811	 H	1	UNK0	0.000	
45	   H	-0.959	0.726	1.885	 H	1	UNK0	0.000	
46	   H	-0.825	1.575	0.253	 H	1	UNK0	0.000	
47	   H	0.795	0.753	-1.080	 H	1	UNK0	0.000	
48	   H	4.963	1.888	-2.432	 H	1	UNK0	0.000	
49	   H	5.161	-3.542	1.007	 H	1	UNK0	0.000	
50	   H	5.145	-2.288	2.283	 H	1	UNK0	0.000	
51	   H	7.079	1.285	-2.077	 H	1	UNK0	0.000	
52	   H	7.335	-0.502	-1.851	 H	1	UNK0	0.000	
53	   H	7.453	0.683	-0.444	 H	1	UNK0	0.000	
54	   H	1.767	2.511	-1.429	 H	1	UNK0	0.000	
55	   H	1.604	1.366	-2.858	 H	1	UNK0	0.000	
56	   H	2.877	2.658	-2.799	 H	1	UNK0	0.000	
@<TRIPOS>BOND
1 1 2 1
2 2 3 2
3 2 6 1
4 3 4 1
5 4 5 1
6 4 7 1
7 5 6 2
8 7 8 1
9 7 12 1
10 7 15 1
11 8 9 1
12 9 10 1
13 9 16 1
14 9 17 1
15 10 11 1
16 11 12 1
17 11 13 1
18 13 14 1
19 14 15 1
20 14 16 1
21 17 18 2
22 17 19 1
23 19 20 1
24 20 21 1
25 20 25 1
26 21 22 2
27 21 31 1
28 22 23 1
29 23 24 2
30 23 30 1
31 24 25 1
32 24 27 1
33 25 26 2
34 27 28 2
35 27 29 1
36 5 32 1
37 8 33 1
38 8 34 1
39 10 35 1
40 10 36 1
41 11 37 1
42 12 38 1
43 12 39 1
44 13 40 1
45 13 41 1
46 14 42 1
47 15 43 1
48 15 44 1
49 16 45 1
50 16 46 1
51 19 47 1
52 22 48 1
53 29 49 1
54 29 50 1
55 30 51 1
56 30 52 1
57 30 53 1
58 31 54 1
59 31 55 1
60 31 56 1
@<TRIPOS>SUBSTRUCTURE
1	UNK0	1	GROUP	1 ****	UNK
