# created with PyMOL 2.3.2
@<TRIPOS>MOLECULE
2050
44 47 1                 
SMALL
USER_CHARGES
@<TRIPOS>ATOM
1	  Cl	-3.722	-7.164	-4.072	Cl	1	UNK0	0.000	
2	   C	-3.245	-5.954	-2.874	C.2	1	UNK0	0.000	
3	   C	-3.487	-6.208	-1.541	C.2	1	UNK0	0.000	
4	   N	-3.110	-5.267	-0.674	N.2	1	UNK0	0.000	
5	   C	-2.520	-4.111	-1.029	C.2	1	UNK0	0.000	
6	   C	-2.266	-3.831	-2.354	C.2	1	UNK0	0.000	
7	   C	-2.643	-4.784	-3.281	C.2	1	UNK0	0.000	
8	   C	-1.633	-2.598	-2.777	C.2	1	UNK0	0.000	
9	   O	-1.428	-2.404	-4.015	O.2	1	UNK0	0.000	
10	   N	-1.219	-1.578	-1.886	N.pl3	1	UNK0	0.000	
11	   C	-0.586	-0.358	-2.375	C.3	1	UNK0	0.000	
12	   C	0.680	-0.113	-1.581	C.3	1	UNK0	0.000	
13	   C	-0.201	0.624	-0.590	C.3	1	UNK0	0.000	
14	   C	-1.125	0.907	-1.737	C.3	1	UNK0	0.000	
15	   C	0.429	1.797	0.032	C.2	1	UNK0	0.000	
16	   N	0.490	2.086	1.341	N.pl3	1	UNK0	0.000	
17	   C	1.144	3.237	1.517	C.2	1	UNK0	0.000	
18	   N	1.502	3.684	0.302	N.2	1	UNK0	0.000	
19	   N	1.064	2.804	-0.584	N.2	1	UNK0	0.000	
20	   C	1.416	3.895	2.846	C.3	1	UNK0	0.000	
21	   N	2.686	3.407	3.351	N.pl3	1	UNK0	0.000	
22	   N	2.909	2.347	4.125	N.2	1	UNK0	0.000	
23	   C	4.215	2.214	4.384	C.2	1	UNK0	0.000	
24	   C	4.879	3.223	3.758	C.2	1	UNK0	0.000	
25	   C	3.898	3.971	3.107	C.2	1	UNK0	0.000	
26	   C	-0.076	1.258	2.387	C.3	1	UNK0	0.000	
27	   H	-3.966	-7.143	-1.231	 H	1	UNK0	0.000	
28	   H	-2.250	-3.405	-0.234	 H	1	UNK0	0.000	
29	   H	-2.465	-4.613	-4.350	 H	1	UNK0	0.000	
30	   H	-1.370	-1.702	-0.873	 H	1	UNK0	0.000	
31	   H	-0.467	-0.312	-3.470	 H	1	UNK0	0.000	
32	   H	1.358	0.558	-2.146	 H	1	UNK0	0.000	
33	   H	1.151	-1.028	-1.175	 H	1	UNK0	0.000	
34	   H	-0.667	-0.076	0.132	 H	1	UNK0	0.000	
35	   H	-0.854	1.794	-2.346	 H	1	UNK0	0.000	
36	   H	-2.209	0.821	-1.531	 H	1	UNK0	0.000	
37	   H	1.531	4.983	2.669	 H	1	UNK0	0.000	
38	   H	0.620	3.654	3.576	 H	1	UNK0	0.000	
39	   H	4.678	1.440	4.988	 H	1	UNK0	0.000	
40	   H	5.958	3.408	3.764	 H	1	UNK0	0.000	
41	   H	4.113	4.855	2.512	 H	1	UNK0	0.000	
42	   H	-0.942	0.674	2.010	 H	1	UNK0	0.000	
43	   H	0.699	0.565	2.777	 H	1	UNK0	0.000	
44	   H	-0.491	1.888	3.221	 H	1	UNK0	0.000	
@<TRIPOS>BOND
1 1 2 1
2 2 3 2
3 2 7 1
4 3 4 1
5 4 5 2
6 5 6 1
7 6 7 2
8 6 8 1
9 8 9 2
10 8 10 1
11 10 11 1
12 11 12 1
13 11 14 1
14 12 13 1
15 13 14 1
16 13 15 1
17 15 16 1
18 15 19 2
19 16 17 1
20 16 26 1
21 17 18 2
22 17 20 1
23 18 19 1
24 20 21 1
25 21 22 1
26 21 25 1
27 22 23 2
28 23 24 1
29 24 25 2
30 3 27 1
31 5 28 1
32 7 29 1
33 10 30 1
34 11 31 1
35 12 32 1
36 12 33 1
37 13 34 1
38 14 35 1
39 14 36 1
40 20 37 1
41 20 38 1
42 23 39 1
43 24 40 1
44 25 41 1
45 26 42 1
46 26 43 1
47 26 44 1
@<TRIPOS>SUBSTRUCTURE
1	UNK0	1	GROUP	1 ****	UNK
