# created with PyMOL 2.3.2
@<TRIPOS>MOLECULE
2051
42 45 1                 
SMALL
USER_CHARGES
@<TRIPOS>ATOM
1	  Cl	-2.388	5.681	4.600	Cl	1	UNK0	0.000	
2	   C	-1.688	4.633	3.378	C.2	1	UNK0	0.000	
3	   C	-2.231	4.381	2.145	C.2	1	UNK0	0.000	
4	   N	-1.391	3.524	1.499	N.pl3	1	UNK0	0.000	
5	   C	-0.334	3.215	2.262	C.2	1	UNK0	0.000	
6	   C	-0.528	3.922	3.455	C.2	1	UNK0	0.000	
7	   C	0.793	2.337	1.977	C.2	1	UNK0	0.000	
8	   O	1.690	2.237	2.890	O.2	1	UNK0	0.000	
9	   N	0.929	1.631	0.798	N.pl3	1	UNK0	0.000	
10	   C	2.007	0.722	0.341	C.3	1	UNK0	0.000	
11	   C	0.924	-0.043	-0.370	C.3	1	UNK0	0.000	
12	   C	0.302	1.347	-0.449	C.3	1	UNK0	0.000	
13	   N	1.372	-0.641	-1.566	N.3	1	UNK0	0.000	
14	   C	0.394	-1.556	-2.169	C.3	1	UNK0	0.000	
15	   C	1.186	-2.453	-3.070	C.3	1	UNK0	0.000	
16	   O	2.279	-1.827	-3.575	O.3	1	UNK0	0.000	
17	   C	2.160	-0.474	-3.848	C.3	1	UNK0	0.000	
18	   C	1.664	0.299	-2.633	C.3	1	UNK0	0.000	
19	   C	-0.368	-2.315	-1.146	C.2	1	UNK0	0.000	
20	   N	0.076	-2.954	-0.062	N.2	1	UNK0	0.000	
21	   C	-0.988	-3.492	0.556	C.2	1	UNK0	0.000	
22	   N	-2.088	-3.177	-0.159	N.2	1	UNK0	0.000	
23	   O	-1.669	-2.475	-1.164	O.3	1	UNK0	0.000	
24	   C	-1.047	-4.304	1.805	C.3	1	UNK0	0.000	
25	   H	-3.156	4.789	1.761	 H	1	UNK0	0.000	
26	   H	-1.566	3.173	0.534	 H	1	UNK0	0.000	
27	   H	0.157	3.892	4.298	 H	1	UNK0	0.000	
28	   H	2.499	0.177	1.166	 H	1	UNK0	0.000	
29	   H	2.686	1.318	-0.286	 H	1	UNK0	0.000	
30	   H	0.367	-0.649	0.349	 H	1	UNK0	0.000	
31	   H	0.784	1.937	-1.273	 H	1	UNK0	0.000	
32	   H	-0.796	1.321	-0.517	 H	1	UNK0	0.000	
33	   H	-0.299	-0.973	-2.804	 H	1	UNK0	0.000	
34	   H	0.559	-2.974	-3.823	 H	1	UNK0	0.000	
35	   H	1.567	-3.289	-2.408	 H	1	UNK0	0.000	
36	   H	1.563	-0.248	-4.752	 H	1	UNK0	0.000	
37	   H	3.184	-0.096	-4.052	 H	1	UNK0	0.000	
38	   H	2.389	1.028	-2.273	 H	1	UNK0	0.000	
39	   H	0.751	0.833	-2.965	 H	1	UNK0	0.000	
40	   H	-0.044	-4.428	2.243	 H	1	UNK0	0.000	
41	   H	-1.718	-3.797	2.522	 H	1	UNK0	0.000	
42	   H	-1.479	-5.297	1.539	 H	1	UNK0	0.000	
@<TRIPOS>BOND
1 1 2 1
2 2 3 2
3 2 6 1
4 3 4 1
5 4 5 1
6 5 6 2
7 5 7 1
8 7 8 2
9 7 9 1
10 9 10 1
11 9 12 1
12 10 11 1
13 11 12 1
14 11 13 1
15 13 14 1
16 13 18 1
17 14 15 1
18 14 19 1
19 15 16 1
20 16 17 1
21 17 18 1
22 19 20 2
23 19 23 1
24 20 21 1
25 21 22 2
26 21 24 1
27 22 23 1
28 3 25 1
29 4 26 1
30 6 27 1
31 10 28 1
32 10 29 1
33 11 30 1
34 12 31 1
35 12 32 1
36 14 33 1
37 15 34 1
38 15 35 1
39 17 36 1
40 17 37 1
41 18 38 1
42 18 39 1
43 24 40 1
44 24 41 1
45 24 42 1
@<TRIPOS>SUBSTRUCTURE
1	UNK0	1	GROUP	1 ****	UNK
