# created with PyMOL 2.3.2
@<TRIPOS>MOLECULE
2056
44 47 1                 
SMALL
USER_CHARGES
@<TRIPOS>ATOM
1	  Br	1.051	-3.662	0.985	Br	1	UNK0	0.000	
2	   C	1.887	-1.952	0.813	C.2	1	UNK0	0.000	
3	   C	3.113	-1.679	1.361	C.2	1	UNK0	0.000	
4	   C	3.739	-0.457	1.232	C.2	1	UNK0	0.000	
5	   C	3.092	0.518	0.521	C.2	1	UNK0	0.000	
6	   C	1.837	0.266	-0.049	C.2	1	UNK0	0.000	
7	   C	1.227	-0.946	0.085	C.2	1	UNK0	0.000	
8	   C	-0.126	-1.267	-0.497	C.3	1	UNK0	0.000	
9	   N	-0.848	-1.906	0.565	N.3	1	UNK0	0.000	
10	   C	-2.083	-2.522	0.240	C.3	1	UNK0	0.000	
11	   C	-3.249	-2.152	1.079	C.3	1	UNK0	0.000	
12	   O	-3.004	-1.836	2.386	O.3	1	UNK0	0.000	
13	   C	-1.694	-2.106	2.765	C.3	1	UNK0	0.000	
14	   C	-0.825	-1.247	1.833	C.3	1	UNK0	0.000	
15	   N	-0.697	-0.287	-1.250	N.3	1	UNK0	0.000	
16	   C	-1.076	0.983	-0.837	C.3	1	UNK0	0.000	
17	   C	-2.557	1.199	-1.258	C.3	1	UNK0	0.000	
18	   O	-2.573	1.129	-2.657	O.3	1	UNK0	0.000	
19	   C	-2.253	-0.176	-3.048	C.3	1	UNK0	0.000	
20	   C	-0.823	-0.439	-2.661	C.3	1	UNK0	0.000	
21	   O	3.881	1.657	0.511	O.3	1	UNK0	0.000	
22	   C	4.924	1.508	1.458	C.3	1	UNK0	0.000	
23	   O	4.930	0.098	1.654	O.3	1	UNK0	0.000	
24	   H	3.626	-2.450	1.923	 H	1	UNK0	0.000	
25	   H	1.367	1.066	-0.604	 H	1	UNK0	0.000	
26	   H	0.135	-2.133	-1.201	 H	1	UNK0	0.000	
27	   H	-2.333	-2.372	-0.820	 H	1	UNK0	0.000	
28	   H	-1.992	-3.652	0.326	 H	1	UNK0	0.000	
29	   H	-3.852	-1.294	0.654	 H	1	UNK0	0.000	
30	   H	-4.017	-2.985	1.109	 H	1	UNK0	0.000	
31	   H	-1.439	-3.161	2.742	 H	1	UNK0	0.000	
32	   H	-1.569	-1.654	3.782	 H	1	UNK0	0.000	
33	   H	-1.369	-0.288	1.781	 H	1	UNK0	0.000	
34	   H	0.141	-1.038	2.274	 H	1	UNK0	0.000	
35	   H	-0.588	1.747	-1.536	 H	1	UNK0	0.000	
36	   H	-0.891	1.334	0.156	 H	1	UNK0	0.000	
37	   H	-3.224	0.459	-0.845	 H	1	UNK0	0.000	
38	   H	-2.851	2.206	-0.933	 H	1	UNK0	0.000	
39	   H	-2.908	-0.823	-2.455	 H	1	UNK0	0.000	
40	   H	-2.414	-0.310	-4.147	 H	1	UNK0	0.000	
41	   H	-0.431	-1.388	-3.065	 H	1	UNK0	0.000	
42	   H	-0.213	0.369	-3.141	 H	1	UNK0	0.000	
43	   H	5.897	1.880	1.084	 H	1	UNK0	0.000	
44	   H	4.664	1.974	2.434	 H	1	UNK0	0.000	
@<TRIPOS>BOND
1 1 2 1
2 2 3 2
3 2 7 1
4 3 4 1
5 4 5 2
6 4 23 1
7 5 6 1
8 5 21 1
9 6 7 2
10 7 8 1
11 8 9 1
12 8 15 1
13 9 10 1
14 9 14 1
15 10 11 1
16 11 12 1
17 12 13 1
18 13 14 1
19 15 16 1
20 15 20 1
21 16 17 1
22 17 18 1
23 18 19 1
24 19 20 1
25 21 22 1
26 22 23 1
27 3 24 1
28 6 25 1
29 8 26 1
30 10 27 1
31 10 28 1
32 11 29 1
33 11 30 1
34 13 31 1
35 13 32 1
36 14 33 1
37 14 34 1
38 16 35 1
39 16 36 1
40 17 37 1
41 17 38 1
42 19 39 1
43 19 40 1
44 20 41 1
45 20 42 1
46 22 43 1
47 22 44 1
@<TRIPOS>SUBSTRUCTURE
1	UNK0	1	GROUP	1 ****	UNK
