# created with PyMOL 2.3.2
@<TRIPOS>MOLECULE
2057
60 63 1                 
SMALL
USER_CHARGES
@<TRIPOS>ATOM
1	  Br	-1.609	2.602	-6.912	Br	1	UNK0	0.000	
2	   C	-0.865	2.403	-5.151	C.2	1	UNK0	0.000	
3	   C	-1.479	1.625	-4.195	C.2	1	UNK0	0.000	
4	   C	-0.970	1.455	-2.900	C.2	1	UNK0	0.000	
5	   C	0.188	2.116	-2.637	C.2	1	UNK0	0.000	
6	   C	0.817	2.899	-3.579	C.2	1	UNK0	0.000	
7	   C	0.302	3.058	-4.857	C.2	1	UNK0	0.000	
8	   C	-1.704	0.589	-1.995	C.3	1	UNK0	0.000	
9	   N	-2.221	1.207	-0.790	N.pl3	1	UNK0	0.000	
10	   C	-2.523	0.083	0.082	C.2	1	UNK0	0.000	
11	   O	-3.368	0.095	1.024	O.2	1	UNK0	0.000	
12	   C	-1.679	-1.026	-0.337	C.2	1	UNK0	0.000	
13	   O	-1.668	-2.187	0.197	O.2	1	UNK0	0.000	
14	   C	-0.895	-0.531	-1.451	C.2	1	UNK0	0.000	
15	   C	0.238	-1.025	-1.880	C.2	1	UNK0	0.000	
16	   O	0.869	-0.485	-3.032	O.2	1	UNK0	0.000	
17	   C	0.856	-2.130	-1.166	C.2	1	UNK0	0.000	
18	   C	1.303	-3.285	-1.808	C.2	1	UNK0	0.000	
19	   C	1.920	-4.297	-1.084	C.2	1	UNK0	0.000	
20	   C	2.107	-4.193	0.279	C.2	1	UNK0	0.000	
21	   C	1.666	-3.049	0.927	C.2	1	UNK0	0.000	
22	   C	1.049	-2.039	0.188	C.2	1	UNK0	0.000	
23	   O	2.723	-5.214	0.986	O.3	1	UNK0	0.000	
24	   C	2.946	-5.179	2.365	C.3	1	UNK0	0.000	
25	   C	2.408	-5.544	-1.738	C.3	1	UNK0	0.000	
26	   C	-2.490	2.579	-0.445	C.3	1	UNK0	0.000	
27	   C	-1.419	3.265	0.313	C.3	1	UNK0	0.000	
28	   N	-1.158	2.575	1.587	N.4	1	UNK0	0.000	
29	   C	-2.135	2.973	2.567	C.3	1	UNK0	0.000	
30	   C	-1.679	2.575	3.937	C.3	1	UNK0	0.000	
31	   O	-0.512	1.790	3.900	O.3	1	UNK0	0.000	
32	   C	0.491	2.632	3.424	C.3	1	UNK0	0.000	
33	   C	0.169	3.027	2.021	C.3	1	UNK0	0.000	
34	   H	-2.405	1.119	-4.465	 H	1	UNK0	0.000	
35	   H	0.642	2.014	-1.668	 H	1	UNK0	0.000	
36	   H	1.742	3.433	-3.383	 H	1	UNK0	0.000	
37	   H	0.772	3.665	-5.617	 H	1	UNK0	0.000	
38	   H	-2.541	0.085	-2.555	 H	1	UNK0	0.000	
39	   H	1.162	-3.379	-2.876	 H	1	UNK0	0.000	
40	   H	1.822	-2.988	1.988	 H	1	UNK0	0.000	
41	   H	0.740	-1.164	0.736	 H	1	UNK0	0.000	
42	   H	3.257	-6.189	2.702	 H	1	UNK0	0.000	
43	   H	2.067	-4.789	2.911	 H	1	UNK0	0.000	
44	   H	3.787	-4.461	2.567	 H	1	UNK0	0.000	
45	   H	3.507	-5.471	-1.969	 H	1	UNK0	0.000	
46	   H	1.874	-5.737	-2.684	 H	1	UNK0	0.000	
47	   H	2.321	-6.428	-1.050	 H	1	UNK0	0.000	
48	   H	-2.819	3.178	-1.323	 H	1	UNK0	0.000	
49	   H	-3.404	2.570	0.224	 H	1	UNK0	0.000	
50	   H	-0.459	3.403	-0.181	 H	1	UNK0	0.000	
51	   H	-1.763	4.308	0.569	 H	1	UNK0	0.000	
52	   H	-1.101	1.565	1.454	 H	1	UNK0	0.000	
53	   H	-2.310	4.068	2.475	 H	1	UNK0	0.000	
54	   H	-3.094	2.494	2.322	 H	1	UNK0	0.000	
55	   H	-1.430	3.503	4.487	 H	1	UNK0	0.000	
56	   H	-2.459	2.011	4.481	 H	1	UNK0	0.000	
57	   H	0.493	3.563	4.050	 H	1	UNK0	0.000	
58	   H	1.508	2.183	3.535	 H	1	UNK0	0.000	
59	   H	0.906	2.610	1.318	 H	1	UNK0	0.000	
60	   H	0.159	4.147	1.898	 H	1	UNK0	0.000	
@<TRIPOS>BOND
1 1 2 1
2 2 3 2
3 2 7 1
4 3 4 1
5 4 5 2
6 4 8 1
7 5 6 1
8 6 7 2
9 8 9 1
10 8 14 1
11 9 10 1
12 9 26 1
13 10 11 2
14 10 12 1
15 12 13 2
16 12 14 1
17 14 15 2
18 15 16 1
19 15 17 1
20 17 18 2
21 17 22 1
22 18 19 1
23 19 20 2
24 19 25 1
25 20 21 1
26 20 23 1
27 21 22 2
28 23 24 1
29 26 27 1
30 27 28 1
31 28 29 1
32 28 33 1
33 29 30 1
34 30 31 1
35 31 32 1
36 32 33 1
37 3 34 1
38 5 35 1
39 6 36 1
40 7 37 1
41 8 38 1
42 18 39 1
43 21 40 1
44 22 41 1
45 24 42 1
46 24 43 1
47 24 44 1
48 25 45 1
49 25 46 1
50 25 47 1
51 26 48 1
52 26 49 1
53 27 50 1
54 27 51 1
55 28 52 1
56 29 53 1
57 29 54 1
58 30 55 1
59 30 56 1
60 32 57 1
61 32 58 1
62 33 59 1
63 33 60 1
@<TRIPOS>SUBSTRUCTURE
1	UNK0	1	GROUP	1 ****	UNK
