# created with PyMOL 2.3.2
@<TRIPOS>MOLECULE
2059
56 59 1                 
SMALL
USER_CHARGES
@<TRIPOS>ATOM
1	  Br	6.238	1.808	2.308	Br	1	UNK0	0.000	
2	   C	4.396	2.119	1.946	C.2	1	UNK0	0.000	
3	   C	3.506	1.077	1.676	C.2	1	UNK0	0.000	
4	   C	2.188	1.342	1.421	C.2	1	UNK0	0.000	
5	   C	1.744	2.640	1.433	C.2	1	UNK0	0.000	
6	   C	2.609	3.693	1.699	C.2	1	UNK0	0.000	
7	   C	3.938	3.427	1.956	C.2	1	UNK0	0.000	
8	   C	1.262	0.236	1.137	C.3	1	UNK0	0.000	
9	   N	0.381	0.460	0.029	N.pl3	1	UNK0	0.000	
10	   C	-0.784	1.087	0.523	C.2	1	UNK0	0.000	
11	   O	-1.617	1.775	-0.107	O.2	1	UNK0	0.000	
12	   C	-0.847	0.777	1.968	C.2	1	UNK0	0.000	
13	   O	-1.731	1.141	2.776	O.2	1	UNK0	0.000	
14	   C	0.319	-0.037	2.264	C.2	1	UNK0	0.000	
15	   C	0.472	-0.866	3.276	C.2	1	UNK0	0.000	
16	   O	1.676	-1.597	3.301	O.2	1	UNK0	0.000	
17	   C	-0.513	-1.038	4.326	C.2	1	UNK0	0.000	
18	   C	-1.002	-0.081	5.151	C.2	1	UNK0	0.000	
19	   C	-1.977	-0.414	6.074	C.2	1	UNK0	0.000	
20	   C	-2.491	-1.683	6.209	C.2	1	UNK0	0.000	
21	   C	-1.996	-2.660	5.373	C.2	1	UNK0	0.000	
22	   C	-1.024	-2.339	4.450	C.2	1	UNK0	0.000	
23	  Br	-3.841	-2.063	7.512	Br	1	UNK0	0.000	
24	   C	0.688	0.072	-1.338	C.3	1	UNK0	0.000	
25	   C	0.267	-1.342	-1.592	C.3	1	UNK0	0.000	
26	   C	-1.136	-1.714	-1.460	C.3	1	UNK0	0.000	
27	   N	-2.148	-1.168	-2.294	N.4	1	UNK0	0.000	
28	   C	-1.768	-0.398	-3.421	C.3	1	UNK0	0.000	
29	   C	-2.223	1.023	-3.451	C.3	1	UNK0	0.000	
30	   O	-3.595	1.023	-3.260	O.3	1	UNK0	0.000	
31	   C	-3.996	0.495	-2.061	C.3	1	UNK0	0.000	
32	   C	-3.316	-0.709	-1.570	C.3	1	UNK0	0.000	
33	   H	3.863	0.058	1.669	 H	1	UNK0	0.000	
34	   H	0.716	2.887	1.238	 H	1	UNK0	0.000	
35	   H	2.284	4.723	1.714	 H	1	UNK0	0.000	
36	   H	4.597	4.259	2.161	 H	1	UNK0	0.000	
37	   H	1.883	-0.678	0.922	 H	1	UNK0	0.000	
38	   H	-0.595	0.929	5.091	 H	1	UNK0	0.000	
39	   H	-2.343	0.380	6.715	 H	1	UNK0	0.000	
40	   H	-2.406	-3.653	5.489	 H	1	UNK0	0.000	
41	   H	-0.655	-3.135	3.805	 H	1	UNK0	0.000	
42	   H	1.819	0.083	-1.478	 H	1	UNK0	0.000	
43	   H	0.324	0.835	-2.006	 H	1	UNK0	0.000	
44	   H	0.779	-1.763	-2.501	 H	1	UNK0	0.000	
45	   H	0.822	-1.915	-0.770	 H	1	UNK0	0.000	
46	   H	-1.183	-2.851	-1.362	 H	1	UNK0	0.000	
47	   H	-1.447	-1.415	-0.397	 H	1	UNK0	0.000	
48	   H	-2.547	-2.074	-2.762	 H	1	UNK0	0.000	
49	   H	-2.217	-0.834	-4.382	 H	1	UNK0	0.000	
50	   H	-0.680	-0.514	-3.621	 H	1	UNK0	0.000	
51	   H	-1.686	1.736	-2.839	 H	1	UNK0	0.000	
52	   H	-2.070	1.387	-4.514	 H	1	UNK0	0.000	
53	   H	-4.040	1.333	-1.300	 H	1	UNK0	0.000	
54	   H	-5.100	0.276	-2.210	 H	1	UNK0	0.000	
55	   H	-4.082	-1.534	-1.418	 H	1	UNK0	0.000	
56	   H	-2.976	-0.524	-0.516	 H	1	UNK0	0.000	
@<TRIPOS>BOND
1 1 2 1
2 2 3 2
3 2 7 1
4 3 4 1
5 4 5 2
6 4 8 1
7 5 6 1
8 6 7 2
9 8 9 1
10 8 14 1
11 9 10 1
12 9 24 1
13 10 11 2
14 10 12 1
15 12 13 2
16 12 14 1
17 14 15 2
18 15 16 1
19 15 17 1
20 17 18 2
21 17 22 1
22 18 19 1
23 19 20 2
24 20 21 1
25 20 23 1
26 21 22 2
27 24 25 1
28 25 26 1
29 26 27 1
30 27 28 1
31 27 32 1
32 28 29 1
33 29 30 1
34 30 31 1
35 31 32 1
36 3 33 1
37 5 34 1
38 6 35 1
39 7 36 1
40 8 37 1
41 18 38 1
42 19 39 1
43 21 40 1
44 22 41 1
45 24 42 1
46 24 43 1
47 25 44 1
48 25 45 1
49 26 46 1
50 26 47 1
51 27 48 1
52 28 49 1
53 28 50 1
54 29 51 1
55 29 52 1
56 31 53 1
57 31 54 1
58 32 55 1
59 32 56 1
@<TRIPOS>SUBSTRUCTURE
1	UNK0	1	GROUP	1 ****	UNK
