# created with PyMOL 2.3.2
@<TRIPOS>MOLECULE
2060
53 56 1                 
SMALL
USER_CHARGES
@<TRIPOS>ATOM
1	  Br	2.921	5.610	3.677	Br	1	UNK0	0.000	
2	   C	1.414	5.061	2.645	C.2	1	UNK0	0.000	
3	   C	1.439	3.854	1.979	C.2	1	UNK0	0.000	
4	   C	0.357	3.418	1.215	C.2	1	UNK0	0.000	
5	   C	-0.725	4.271	1.175	C.2	1	UNK0	0.000	
6	   C	-0.757	5.472	1.836	C.2	1	UNK0	0.000	
7	   C	0.320	5.884	2.584	C.2	1	UNK0	0.000	
8	   C	0.335	2.149	0.474	C.3	1	UNK0	0.000	
9	   N	-0.241	2.207	-0.819	N.pl3	1	UNK0	0.000	
10	   C	-1.545	1.647	-0.734	C.2	1	UNK0	0.000	
11	   O	-2.483	1.738	-1.601	O.2	1	UNK0	0.000	
12	   C	-1.695	0.920	0.520	C.2	1	UNK0	0.000	
13	   O	-2.718	0.299	0.938	O.2	1	UNK0	0.000	
14	   C	-0.414	1.061	1.196	C.2	1	UNK0	0.000	
15	   C	0.015	0.402	2.260	C.2	1	UNK0	0.000	
16	   O	1.283	0.725	2.797	O.2	1	UNK0	0.000	
17	   C	-0.776	-0.639	2.881	C.2	1	UNK0	0.000	
18	   C	-1.345	-1.706	2.217	C.2	1	UNK0	0.000	
19	   C	-2.111	-2.656	2.862	C.2	1	UNK0	0.000	
20	   C	-2.347	-2.589	4.218	C.2	1	UNK0	0.000	
21	   C	-1.789	-1.535	4.901	C.2	1	UNK0	0.000	
22	   C	-1.028	-0.590	4.258	C.2	1	UNK0	0.000	
23	  Br	-3.405	-3.899	5.128	Br	1	UNK0	0.000	
24	   C	0.248	2.713	-2.080	C.3	1	UNK0	0.000	
25	   C	0.980	1.773	-2.943	C.3	1	UNK0	0.000	
26	   N	0.297	0.602	-3.381	N.4	1	UNK0	0.000	
27	   C	-0.334	0.798	-4.700	C.3	1	UNK0	0.000	
28	   C	-0.468	-0.584	-5.304	C.3	1	UNK0	0.000	
29	   O	-0.542	-1.588	-4.328	O.3	1	UNK0	0.000	
30	   C	0.692	-1.748	-3.682	C.3	1	UNK0	0.000	
31	   C	1.349	-0.398	-3.647	C.3	1	UNK0	0.000	
32	   H	2.301	3.213	2.033	 H	1	UNK0	0.000	
33	   H	-1.604	3.991	0.598	 H	1	UNK0	0.000	
34	   H	-1.606	6.147	1.808	 H	1	UNK0	0.000	
35	   H	0.283	6.845	3.106	 H	1	UNK0	0.000	
36	   H	1.389	1.775	0.474	 H	1	UNK0	0.000	
37	   H	-1.161	-1.808	1.149	 H	1	UNK0	0.000	
38	   H	-2.556	-3.494	2.319	 H	1	UNK0	0.000	
39	   H	-1.979	-1.491	5.975	 H	1	UNK0	0.000	
40	   H	-0.590	0.240	4.815	 H	1	UNK0	0.000	
41	   H	-0.588	3.179	-2.678	 H	1	UNK0	0.000	
42	   H	0.930	3.569	-1.834	 H	1	UNK0	0.000	
43	   H	1.986	1.565	-2.492	 H	1	UNK0	0.000	
44	   H	1.227	2.346	-3.890	 H	1	UNK0	0.000	
45	   H	-0.435	0.234	-2.767	 H	1	UNK0	0.000	
46	   H	0.384	1.360	-5.358	 H	1	UNK0	0.000	
47	   H	-1.315	1.284	-4.632	 H	1	UNK0	0.000	
48	   H	0.368	-0.824	-5.984	 H	1	UNK0	0.000	
49	   H	-1.433	-0.666	-5.889	 H	1	UNK0	0.000	
50	   H	1.370	-2.402	-4.301	 H	1	UNK0	0.000	
51	   H	0.514	-2.148	-2.679	 H	1	UNK0	0.000	
52	   H	2.117	-0.301	-2.827	 H	1	UNK0	0.000	
53	   H	1.836	-0.141	-4.602	 H	1	UNK0	0.000	
@<TRIPOS>BOND
1 1 2 1
2 2 3 2
3 2 7 1
4 3 4 1
5 4 5 2
6 4 8 1
7 5 6 1
8 6 7 2
9 8 9 1
10 8 14 1
11 9 10 1
12 9 24 1
13 10 11 2
14 10 12 1
15 12 13 2
16 12 14 1
17 14 15 2
18 15 16 1
19 15 17 1
20 17 18 2
21 17 22 1
22 18 19 1
23 19 20 2
24 20 21 1
25 20 23 1
26 21 22 2
27 24 25 1
28 25 26 1
29 26 27 1
30 26 31 1
31 27 28 1
32 28 29 1
33 29 30 1
34 30 31 1
35 3 32 1
36 5 33 1
37 6 34 1
38 7 35 1
39 8 36 1
40 18 37 1
41 19 38 1
42 21 39 1
43 22 40 1
44 24 41 1
45 24 42 1
46 25 43 1
47 25 44 1
48 26 45 1
49 27 46 1
50 27 47 1
51 28 48 1
52 28 49 1
53 30 50 1
54 30 51 1
55 31 52 1
56 31 53 1
@<TRIPOS>SUBSTRUCTURE
1	UNK0	1	GROUP	1 ****	UNK
