# created with PyMOL 2.3.2
@<TRIPOS>MOLECULE
2062
53 56 1                 
SMALL
USER_CHARGES
@<TRIPOS>ATOM
1	  Br	0.497	-3.358	-2.516	Br	1	UNK0	0.000	
2	   C	1.428	-1.691	-2.397	C.2	1	UNK0	0.000	
3	   C	1.118	-0.824	-1.371	C.2	1	UNK0	0.000	
4	   C	1.738	0.391	-1.216	C.2	1	UNK0	0.000	
5	   C	2.712	0.666	-2.197	C.2	1	UNK0	0.000	
6	   C	3.033	-0.174	-3.217	C.2	1	UNK0	0.000	
7	   C	2.381	-1.382	-3.327	C.2	1	UNK0	0.000	
8	   C	1.513	1.359	-0.187	C.3	1	UNK0	0.000	
9	   N	1.700	1.044	1.198	N.pl3	1	UNK0	0.000	
10	   C	1.301	2.307	1.855	C.2	1	UNK0	0.000	
11	   O	1.768	2.680	2.942	O.2	1	UNK0	0.000	
12	   C	0.315	2.942	0.988	C.2	1	UNK0	0.000	
13	   O	-0.280	4.027	1.182	O.2	1	UNK0	0.000	
14	   C	0.169	2.026	-0.165	C.2	1	UNK0	0.000	
15	   C	-0.894	1.893	-0.881	C.2	1	UNK0	0.000	
16	   O	-0.887	0.942	-1.922	O.2	1	UNK0	0.000	
17	   C	-2.095	2.667	-0.687	C.2	1	UNK0	0.000	
18	   C	-3.246	1.923	-0.387	C.2	1	UNK0	0.000	
19	   C	-4.462	2.545	-0.222	C.2	1	UNK0	0.000	
20	   C	-4.606	3.910	-0.343	C.2	1	UNK0	0.000	
21	   C	-3.467	4.628	-0.639	C.2	1	UNK0	0.000	
22	   C	-2.229	4.013	-0.809	C.2	1	UNK0	0.000	
23	  Cl	-6.164	4.690	-0.130	Cl	1	UNK0	0.000	
24	   C	2.241	-0.060	1.923	C.3	1	UNK0	0.000	
25	   C	1.354	-0.951	2.675	C.3	1	UNK0	0.000	
26	   N	0.317	-1.682	2.039	N.4	1	UNK0	0.000	
27	   C	-0.568	-2.128	3.158	C.3	1	UNK0	0.000	
28	   C	-1.707	-2.939	2.616	C.3	1	UNK0	0.000	
29	   O	-1.212	-4.086	1.997	O.3	1	UNK0	0.000	
30	   C	-0.402	-3.676	0.942	C.3	1	UNK0	0.000	
31	   C	0.788	-2.932	1.452	C.3	1	UNK0	0.000	
32	   H	0.348	-1.115	-0.680	 H	1	UNK0	0.000	
33	   H	3.265	1.608	-2.167	 H	1	UNK0	0.000	
34	   H	3.780	0.038	-3.968	 H	1	UNK0	0.000	
35	   H	2.627	-2.060	-4.133	 H	1	UNK0	0.000	
36	   H	2.256	2.224	-0.392	 H	1	UNK0	0.000	
37	   H	-3.192	0.849	-0.281	 H	1	UNK0	0.000	
38	   H	-5.370	1.978	0.012	 H	1	UNK0	0.000	
39	   H	-3.566	5.703	-0.736	 H	1	UNK0	0.000	
40	   H	-1.379	4.628	-1.071	 H	1	UNK0	0.000	
41	   H	2.756	-0.704	1.133	 H	1	UNK0	0.000	
42	   H	3.111	0.301	2.536	 H	1	UNK0	0.000	
43	   H	1.971	-1.727	3.256	 H	1	UNK0	0.000	
44	   H	0.825	-0.342	3.495	 H	1	UNK0	0.000	
45	   H	-0.314	-1.134	1.452	 H	1	UNK0	0.000	
46	   H	-0.963	-1.198	3.610	 H	1	UNK0	0.000	
47	   H	0.082	-2.689	3.830	 H	1	UNK0	0.000	
48	   H	-2.352	-2.339	1.979	 H	1	UNK0	0.000	
49	   H	-2.302	-3.282	3.483	 H	1	UNK0	0.000	
50	   H	-0.071	-4.601	0.418	 H	1	UNK0	0.000	
51	   H	-0.952	-3.058	0.208	 H	1	UNK0	0.000	
52	   H	1.518	-2.814	0.658	 H	1	UNK0	0.000	
53	   H	1.227	-3.505	2.300	 H	1	UNK0	0.000	
@<TRIPOS>BOND
1 1 2 1
2 2 3 2
3 2 7 1
4 3 4 1
5 4 5 2
6 4 8 1
7 5 6 1
8 6 7 2
9 8 9 1
10 8 14 1
11 9 10 1
12 9 24 1
13 10 11 2
14 10 12 1
15 12 13 2
16 12 14 1
17 14 15 2
18 15 16 1
19 15 17 1
20 17 18 2
21 17 22 1
22 18 19 1
23 19 20 2
24 20 21 1
25 20 23 1
26 21 22 2
27 24 25 1
28 25 26 1
29 26 27 1
30 26 31 1
31 27 28 1
32 28 29 1
33 29 30 1
34 30 31 1
35 3 32 1
36 5 33 1
37 6 34 1
38 7 35 1
39 8 36 1
40 18 37 1
41 19 38 1
42 21 39 1
43 22 40 1
44 24 41 1
45 24 42 1
46 25 43 1
47 25 44 1
48 26 45 1
49 27 46 1
50 27 47 1
51 28 48 1
52 28 49 1
53 30 50 1
54 30 51 1
55 31 52 1
56 31 53 1
@<TRIPOS>SUBSTRUCTURE
1	UNK0	1	GROUP	1 ****	UNK
