# created with PyMOL 2.3.2
@<TRIPOS>MOLECULE
2064
58 61 1                 
SMALL
USER_CHARGES
@<TRIPOS>ATOM
1	  Cl	-1.820	6.922	0.720	Cl	1	UNK0	0.000	
2	   C	-1.167	5.412	0.131	C.2	1	UNK0	0.000	
3	   C	-0.767	4.435	1.015	C.2	1	UNK0	0.000	
4	   C	-0.246	3.229	0.565	C.2	1	UNK0	0.000	
5	   C	-0.140	3.036	-0.809	C.2	1	UNK0	0.000	
6	   C	-0.545	4.025	-1.682	C.2	1	UNK0	0.000	
7	   C	-1.066	5.234	-1.230	C.2	1	UNK0	0.000	
8	   C	0.422	1.744	-1.253	C.3	1	UNK0	0.000	
9	   N	-0.391	1.156	-2.324	N.pl3	1	UNK0	0.000	
10	   C	-1.604	0.764	-1.658	C.2	1	UNK0	0.000	
11	   O	-2.747	0.706	-2.171	O.2	1	UNK0	0.000	
12	   C	-1.258	0.447	-0.278	C.2	1	UNK0	0.000	
13	   O	-1.942	0.067	0.685	O.2	1	UNK0	0.000	
14	   C	0.195	0.678	-0.203	C.2	1	UNK0	0.000	
15	   C	1.070	0.105	0.609	C.2	1	UNK0	0.000	
16	   O	2.410	0.512	0.527	O.2	1	UNK0	0.000	
17	   C	0.642	-0.916	1.550	C.2	1	UNK0	0.000	
18	   C	0.969	-1.041	2.878	C.2	1	UNK0	0.000	
19	   N	0.375	-2.162	3.380	N.pl3	1	UNK0	0.000	
20	   N	-0.292	-2.693	2.373	N.2	1	UNK0	0.000	
21	   C	-0.168	-1.988	1.253	C.2	1	UNK0	0.000	
22	   C	0.479	-2.631	4.716	C.2	1	UNK0	0.000	
23	   C	-0.556	-2.439	5.598	C.2	1	UNK0	0.000	
24	   C	-0.500	-2.880	6.902	C.2	1	UNK0	0.000	
25	   C	0.609	-3.538	7.380	C.2	1	UNK0	0.000	
26	   C	1.660	-3.741	6.508	C.2	1	UNK0	0.000	
27	   C	1.588	-3.288	5.190	C.2	1	UNK0	0.000	
28	   C	1.830	-0.116	3.656	C.3	1	UNK0	0.000	
29	   C	-0.069	0.992	-3.728	C.3	1	UNK0	0.000	
30	   C	0.617	-0.338	-3.980	C.3	1	UNK0	0.000	
31	   N	0.958	-0.569	-5.345	N.4	1	UNK0	0.000	
32	   C	1.100	-2.010	-5.525	C.3	1	UNK0	0.000	
33	   C	2.219	0.023	-5.680	C.3	1	UNK0	0.000	
34	   H	-0.878	4.655	2.069	 H	1	UNK0	0.000	
35	   H	0.067	2.461	1.260	 H	1	UNK0	0.000	
36	   H	-0.437	3.818	-2.734	 H	1	UNK0	0.000	
37	   H	-1.372	5.984	-1.949	 H	1	UNK0	0.000	
38	   H	1.467	1.805	-1.553	 H	1	UNK0	0.000	
39	   H	-0.614	-2.219	0.264	 H	1	UNK0	0.000	
40	   H	-1.436	-1.913	5.210	 H	1	UNK0	0.000	
41	   H	-1.325	-2.713	7.563	 H	1	UNK0	0.000	
42	   H	0.660	-3.893	8.418	 H	1	UNK0	0.000	
43	   H	2.548	-4.265	6.878	 H	1	UNK0	0.000	
44	   H	2.412	-3.451	4.521	 H	1	UNK0	0.000	
45	   H	1.627	-0.233	4.746	 H	1	UNK0	0.000	
46	   H	2.905	-0.324	3.530	 H	1	UNK0	0.000	
47	   H	1.612	0.948	3.417	 H	1	UNK0	0.000	
48	   H	0.544	1.820	-4.097	 H	1	UNK0	0.000	
49	   H	-1.033	1.016	-4.293	 H	1	UNK0	0.000	
50	   H	0.067	-1.180	-3.528	 H	1	UNK0	0.000	
51	   H	1.587	-0.279	-3.404	 H	1	UNK0	0.000	
52	   H	0.220	-0.265	-6.027	 H	1	UNK0	0.000	
53	   H	1.492	-2.459	-4.568	 H	1	UNK0	0.000	
54	   H	0.169	-2.504	-5.811	 H	1	UNK0	0.000	
55	   H	1.869	-2.230	-6.295	 H	1	UNK0	0.000	
56	   H	2.886	-0.671	-6.233	 H	1	UNK0	0.000	
57	   H	2.755	0.382	-4.790	 H	1	UNK0	0.000	
58	   H	2.024	0.900	-6.341	 H	1	UNK0	0.000	
@<TRIPOS>BOND
1 1 2 1
2 2 3 2
3 2 7 1
4 3 4 1
5 4 5 2
6 5 6 1
7 5 8 1
8 6 7 2
9 8 9 1
10 8 14 1
11 9 10 1
12 9 29 1
13 10 11 2
14 10 12 1
15 12 13 2
16 12 14 1
17 14 15 2
18 15 16 1
19 15 17 1
20 17 18 2
21 17 21 1
22 18 19 1
23 18 28 1
24 19 20 1
25 19 22 1
26 20 21 2
27 22 23 2
28 22 27 1
29 23 24 1
30 24 25 2
31 25 26 1
32 26 27 2
33 29 30 1
34 30 31 1
35 31 32 1
36 31 33 1
37 3 34 1
38 4 35 1
39 6 36 1
40 7 37 1
41 8 38 1
42 21 39 1
43 23 40 1
44 24 41 1
45 25 42 1
46 26 43 1
47 27 44 1
48 28 45 1
49 28 46 1
50 28 47 1
51 29 48 1
52 29 49 1
53 30 50 1
54 30 51 1
55 31 52 1
56 32 53 1
57 32 54 1
58 32 55 1
59 33 56 1
60 33 57 1
61 33 58 1
@<TRIPOS>SUBSTRUCTURE
1	UNK0	1	GROUP	1 ****	UNK
