# created with PyMOL 2.3.2
@<TRIPOS>MOLECULE
2065
63 66 1                 
SMALL
USER_CHARGES
@<TRIPOS>ATOM
1	  Cl	3.142	5.289	3.507	Cl	1	UNK0	0.000	
2	   C	2.603	3.862	2.627	C.2	1	UNK0	0.000	
3	   C	3.356	2.735	2.564	C.2	1	UNK0	0.000	
4	   C	2.915	1.648	1.876	C.2	1	UNK0	0.000	
5	   C	1.684	1.606	1.197	C.2	1	UNK0	0.000	
6	   C	0.963	2.776	1.296	C.2	1	UNK0	0.000	
7	   C	1.388	3.889	1.986	C.2	1	UNK0	0.000	
8	   C	1.325	0.416	0.521	C.3	1	UNK0	0.000	
9	   N	0.893	0.437	-0.842	N.pl3	1	UNK0	0.000	
10	   C	0.405	-0.885	-1.067	C.2	1	UNK0	0.000	
11	   O	0.338	-1.577	-2.136	O.2	1	UNK0	0.000	
12	   C	-0.067	-1.420	0.220	C.2	1	UNK0	0.000	
13	   O	-0.568	-2.530	0.517	O.2	1	UNK0	0.000	
14	   C	0.178	-0.334	1.165	C.2	1	UNK0	0.000	
15	   C	-0.403	-0.086	2.312	C.2	1	UNK0	0.000	
16	   O	0.006	0.963	3.120	O.2	1	UNK0	0.000	
17	   C	-1.506	-0.919	2.756	C.2	1	UNK0	0.000	
18	   C	-1.656	-1.596	3.951	C.2	1	UNK0	0.000	
19	   N	-2.866	-2.210	3.962	N.pl3	1	UNK0	0.000	
20	   C	-3.510	-1.954	2.813	C.2	1	UNK0	0.000	
21	   C	-2.670	-1.154	2.064	C.2	1	UNK0	0.000	
22	   C	-3.070	-0.642	0.729	C.3	1	UNK0	0.000	
23	   C	-4.829	-2.448	2.475	C.2	1	UNK0	0.000	
24	   O	-5.470	-3.183	3.295	O.co2	1	UNK0	0.000	
25	   O	-5.465	-2.168	1.281	O.3	1	UNK0	0.000	
26	   C	-6.774	-2.699	1.025	C.3	1	UNK0	0.000	
27	   C	-0.634	-1.623	5.023	C.3	1	UNK0	0.000	
28	   C	0.910	1.446	-1.856	C.3	1	UNK0	0.000	
29	   C	2.157	1.569	-2.663	C.3	1	UNK0	0.000	
30	   N	2.560	0.419	-3.416	N.4	1	UNK0	0.000	
31	   C	1.696	0.136	-4.533	C.3	1	UNK0	0.000	
32	   C	1.947	1.013	-5.735	C.3	1	UNK0	0.000	
33	   O	3.157	0.638	-6.313	O.3	1	UNK0	0.000	
34	   C	4.031	0.097	-5.369	C.3	1	UNK0	0.000	
35	   C	3.862	0.775	-4.024	C.3	1	UNK0	0.000	
36	   H	4.316	2.717	3.072	 H	1	UNK0	0.000	
37	   H	3.567	0.771	1.863	 H	1	UNK0	0.000	
38	   H	0.023	2.801	0.814	 H	1	UNK0	0.000	
39	   H	0.803	4.807	2.052	 H	1	UNK0	0.000	
40	   H	2.162	-0.314	0.564	 H	1	UNK0	0.000	
41	   H	-3.213	-2.785	4.757	 H	1	UNK0	0.000	
42	   H	-4.112	-0.247	0.746	 H	1	UNK0	0.000	
43	   H	-2.447	0.214	0.391	 H	1	UNK0	0.000	
44	   H	-3.050	-1.483	0.007	 H	1	UNK0	0.000	
45	   H	-6.716	-3.797	1.199	 H	1	UNK0	0.000	
46	   H	-7.495	-2.211	1.713	 H	1	UNK0	0.000	
47	   H	-7.042	-2.568	-0.040	 H	1	UNK0	0.000	
48	   H	0.405	-1.659	4.593	 H	1	UNK0	0.000	
49	   H	-0.757	-2.527	5.648	 H	1	UNK0	0.000	
50	   H	-0.760	-0.747	5.696	 H	1	UNK0	0.000	
51	   H	0.104	1.280	-2.639	 H	1	UNK0	0.000	
52	   H	0.757	2.450	-1.381	 H	1	UNK0	0.000	
53	   H	1.915	2.356	-3.447	 H	1	UNK0	0.000	
54	   H	2.998	2.044	-2.113	 H	1	UNK0	0.000	
55	   H	2.653	-0.454	-2.879	 H	1	UNK0	0.000	
56	   H	1.900	-0.909	-4.853	 H	1	UNK0	0.000	
57	   H	0.623	0.141	-4.238	 H	1	UNK0	0.000	
58	   H	1.160	0.753	-6.480	 H	1	UNK0	0.000	
59	   H	1.856	2.072	-5.508	 H	1	UNK0	0.000	
60	   H	5.054	0.277	-5.726	 H	1	UNK0	0.000	
61	   H	3.878	-0.988	-5.328	 H	1	UNK0	0.000	
62	   H	3.996	1.849	-4.125	 H	1	UNK0	0.000	
63	   H	4.649	0.372	-3.369	 H	1	UNK0	0.000	
@<TRIPOS>BOND
1 1 2 1
2 2 3 2
3 2 7 1
4 3 4 1
5 4 5 2
6 5 6 1
7 5 8 1
8 6 7 2
9 8 9 1
10 8 14 1
11 9 10 1
12 9 28 1
13 10 11 2
14 10 12 1
15 12 13 2
16 12 14 1
17 14 15 2
18 15 16 1
19 15 17 1
20 17 18 2
21 17 21 1
22 18 19 1
23 18 27 1
24 19 20 1
25 20 21 2
26 20 23 1
27 21 22 1
28 23 24 2
29 23 25 1
30 25 26 1
31 28 29 1
32 29 30 1
33 30 31 1
34 30 35 1
35 31 32 1
36 32 33 1
37 33 34 1
38 34 35 1
39 3 36 1
40 4 37 1
41 6 38 1
42 7 39 1
43 8 40 1
44 19 41 1
45 22 42 1
46 22 43 1
47 22 44 1
48 26 45 1
49 26 46 1
50 26 47 1
51 27 48 1
52 27 49 1
53 27 50 1
54 28 51 1
55 28 52 1
56 29 53 1
57 29 54 1
58 30 55 1
59 31 56 1
60 31 57 1
61 32 58 1
62 32 59 1
63 34 60 1
64 34 61 1
65 35 62 1
66 35 63 1
@<TRIPOS>SUBSTRUCTURE
1	UNK0	1	GROUP	1 ****	UNK
