# created with PyMOL 2.3.2
@<TRIPOS>MOLECULE
2066
52 55 1                 
SMALL
USER_CHARGES
@<TRIPOS>ATOM
1	  Cl	0.143	5.733	0.713	Cl	1	UNK0	0.000	
2	   C	1.096	4.269	0.615	C.2	1	UNK0	0.000	
3	   C	0.477	3.053	0.421	C.2	1	UNK0	0.000	
4	   C	1.198	1.853	0.335	C.2	1	UNK0	0.000	
5	   C	2.544	1.956	0.454	C.2	1	UNK0	0.000	
6	   C	3.187	3.194	0.653	C.2	1	UNK0	0.000	
7	   C	2.465	4.360	0.735	C.2	1	UNK0	0.000	
8	   N	3.098	0.652	0.327	N.pl3	1	UNK0	0.000	
9	   C	2.083	-0.294	0.122	C.2	1	UNK0	0.000	
10	   O	2.302	-1.518	-0.051	O.2	1	UNK0	0.000	
11	   C	0.788	0.453	0.155	C.3	1	UNK0	0.000	
12	   N	0.098	0.326	-1.084	N.3	1	UNK0	0.000	
13	   C	-1.285	0.222	-0.789	C.3	1	UNK0	0.000	
14	   C	-1.426	-0.321	0.592	C.3	1	UNK0	0.000	
15	   C	-0.120	-0.043	1.215	C.3	1	UNK0	0.000	
16	   C	0.351	-1.379	1.673	C.2	1	UNK0	0.000	
17	   O	1.372	-1.673	2.358	O.2	1	UNK0	0.000	
18	   N	-0.552	-2.382	1.215	N.pl3	1	UNK0	0.000	
19	   C	-1.679	-1.787	0.612	C.2	1	UNK0	0.000	
20	   O	-2.678	-2.414	0.189	O.2	1	UNK0	0.000	
21	   C	-0.361	-3.816	1.346	C.3	1	UNK0	0.000	
22	   C	0.863	-4.326	0.660	C.3	1	UNK0	0.000	
23	   C	-0.215	-4.124	2.821	C.3	1	UNK0	0.000	
24	   C	-1.544	-4.584	0.798	C.3	1	UNK0	0.000	
25	   C	-2.052	-0.597	-1.812	C.3	1	UNK0	0.000	
26	   C	-1.927	0.035	-3.162	C.3	1	UNK0	0.000	
27	   C	-2.679	-0.774	-4.147	C.2	1	UNK0	0.000	
28	   O	-3.277	-1.803	-3.770	O.2	1	UNK0	0.000	
29	   N	-2.710	-0.373	-5.488	N.pl3	1	UNK0	0.000	
30	   H	-0.591	2.958	0.327	 H	1	UNK0	0.000	
31	   H	4.272	3.248	0.746	 H	1	UNK0	0.000	
32	   H	2.962	5.315	0.888	 H	1	UNK0	0.000	
33	   H	4.146	0.468	0.387	 H	1	UNK0	0.000	
34	   H	0.312	1.155	-1.679	 H	1	UNK0	0.000	
35	   H	-1.756	1.246	-0.808	 H	1	UNK0	0.000	
36	   H	-2.295	0.123	1.139	 H	1	UNK0	0.000	
37	   H	-0.190	0.664	2.089	 H	1	UNK0	0.000	
38	   H	0.717	-5.436	0.495	 H	1	UNK0	0.000	
39	   H	0.987	-3.911	-0.361	 H	1	UNK0	0.000	
40	   H	1.783	-4.255	1.278	 H	1	UNK0	0.000	
41	   H	-0.973	-4.890	3.123	 H	1	UNK0	0.000	
42	   H	-0.335	-3.210	3.443	 H	1	UNK0	0.000	
43	   H	0.823	-4.492	3.069	 H	1	UNK0	0.000	
44	   H	-1.285	-5.674	0.952	 H	1	UNK0	0.000	
45	   H	-1.684	-4.470	-0.278	 H	1	UNK0	0.000	
46	   H	-2.453	-4.403	1.409	 H	1	UNK0	0.000	
47	   H	-1.671	-1.621	-1.768	 H	1	UNK0	0.000	
48	   H	-3.109	-0.610	-1.475	 H	1	UNK0	0.000	
49	   H	-0.890	0.096	-3.522	 H	1	UNK0	0.000	
50	   H	-2.335	1.072	-3.084	 H	1	UNK0	0.000	
51	   H	-1.898	0.099	-5.907	 H	1	UNK0	0.000	
52	   H	-3.554	-0.552	-6.064	 H	1	UNK0	0.000	
@<TRIPOS>BOND
1 1 2 1
2 2 3 2
3 2 7 1
4 3 4 1
5 4 5 2
6 4 11 1
7 5 6 1
8 5 8 1
9 6 7 2
10 8 9 1
11 9 10 2
12 9 11 1
13 11 12 1
14 11 15 1
15 12 13 1
16 13 14 1
17 13 25 1
18 14 15 1
19 14 19 1
20 15 16 1
21 16 17 2
22 16 18 1
23 18 19 1
24 18 21 1
25 19 20 2
26 21 22 1
27 21 23 1
28 21 24 1
29 25 26 1
30 26 27 1
31 27 28 2
32 27 29 1
33 3 30 1
34 6 31 1
35 7 32 1
36 8 33 1
37 12 34 1
38 13 35 1
39 14 36 1
40 15 37 1
41 22 38 1
42 22 39 1
43 22 40 1
44 23 41 1
45 23 42 1
46 23 43 1
47 24 44 1
48 24 45 1
49 24 46 1
50 25 47 1
51 25 48 1
52 26 49 1
53 26 50 1
54 29 51 1
55 29 52 1
@<TRIPOS>SUBSTRUCTURE
1	UNK0	1	GROUP	1 ****	UNK
