# created with PyMOL 2.3.2
@<TRIPOS>MOLECULE
2071
50 53 1                 
SMALL
USER_CHARGES
@<TRIPOS>ATOM
1	   S	-0.712	-2.729	-2.562	S.O2	1	UNK0	0.000	
2	   O	0.323	-3.842	-2.541	O.2	1	UNK0	0.000	
3	   O	-1.929	-3.199	-3.255	O.2	1	UNK0	0.000	
4	   N	0.031	-1.385	-3.338	N.3	1	UNK0	0.000	
5	   C	-0.768	-0.183	-3.374	C.3	1	UNK0	0.000	
6	   C	0.511	0.612	-3.220	C.3	1	UNK0	0.000	
7	   C	1.007	-0.683	-2.568	C.3	1	UNK0	0.000	
8	   O	0.332	1.620	-2.271	O.3	1	UNK0	0.000	
9	   C	0.910	2.783	-2.789	C.3	1	UNK0	0.000	
10	   C	0.776	3.927	-1.855	C.2	1	UNK0	0.000	
11	   C	-0.308	4.776	-1.898	C.2	1	UNK0	0.000	
12	   C	-0.437	5.842	-1.032	C.2	1	UNK0	0.000	
13	   C	0.555	6.074	-0.082	C.2	1	UNK0	0.000	
14	   C	1.620	5.221	-0.057	C.2	1	UNK0	0.000	
15	   C	1.751	4.162	-0.915	C.2	1	UNK0	0.000	
16	  Cl	0.468	7.398	1.048	Cl	1	UNK0	0.000	
17	   C	-1.009	-2.280	-0.901	C.2	1	UNK0	0.000	
18	   C	-0.066	-2.515	0.065	C.2	1	UNK0	0.000	
19	   C	-0.271	-2.169	1.400	C.2	1	UNK0	0.000	
20	   C	-1.464	-1.569	1.765	C.2	1	UNK0	0.000	
21	   C	-2.406	-1.338	0.782	C.2	1	UNK0	0.000	
22	   C	-2.200	-1.684	-0.551	C.2	1	UNK0	0.000	
23	   N	-1.711	-1.216	3.040	N.pl3	1	UNK0	0.000	
24	   C	-0.779	-1.454	3.964	C.2	1	UNK0	0.000	
25	   O	-0.945	-1.151	5.162	O.2	1	UNK0	0.000	
26	   C	0.421	-2.053	3.618	C.2	1	UNK0	0.000	
27	   O	1.323	-2.293	4.463	O.2	1	UNK0	0.000	
28	   N	0.656	-2.401	2.344	N.pl3	1	UNK0	0.000	
29	   C	1.916	-3.037	1.946	C.3	1	UNK0	0.000	
30	   C	-2.967	-0.594	3.371	C.3	1	UNK0	0.000	
31	   H	-1.298	0.025	-4.320	 H	1	UNK0	0.000	
32	   H	-1.443	-0.101	-2.513	 H	1	UNK0	0.000	
33	   H	1.033	0.886	-4.135	 H	1	UNK0	0.000	
34	   H	2.073	-0.873	-2.850	 H	1	UNK0	0.000	
35	   H	0.776	-0.701	-1.500	 H	1	UNK0	0.000	
36	   H	0.460	3.083	-3.754	 H	1	UNK0	0.000	
37	   H	1.987	2.538	-2.957	 H	1	UNK0	0.000	
38	   H	-1.089	4.598	-2.642	 H	1	UNK0	0.000	
39	   H	-1.285	6.508	-1.064	 H	1	UNK0	0.000	
40	   H	2.412	5.385	0.682	 H	1	UNK0	0.000	
41	   H	2.623	3.504	-0.858	 H	1	UNK0	0.000	
42	   H	0.863	-2.987	-0.243	 H	1	UNK0	0.000	
43	   H	-3.339	-0.866	1.083	 H	1	UNK0	0.000	
44	   H	-2.974	-1.480	-1.283	 H	1	UNK0	0.000	
45	   H	2.368	-2.538	1.071	 H	1	UNK0	0.000	
46	   H	1.700	-4.086	1.711	 H	1	UNK0	0.000	
47	   H	2.657	-2.927	2.789	 H	1	UNK0	0.000	
48	   H	-3.821	-1.238	3.083	 H	1	UNK0	0.000	
49	   H	-3.026	-0.354	4.446	 H	1	UNK0	0.000	
50	   H	-3.084	0.369	2.803	 H	1	UNK0	0.000	
@<TRIPOS>BOND
1 1 2 2
2 1 3 2
3 1 4 1
4 1 17 1
5 4 5 1
6 4 7 1
7 5 6 1
8 6 7 1
9 6 8 1
10 8 9 1
11 9 10 1
12 10 11 2
13 10 15 1
14 11 12 1
15 12 13 2
16 13 14 1
17 13 16 1
18 14 15 2
19 17 18 2
20 17 22 1
21 18 19 1
22 19 20 2
23 19 28 1
24 20 21 1
25 20 23 1
26 21 22 2
27 23 24 1
28 23 30 1
29 24 25 2
30 24 26 1
31 26 27 2
32 26 28 1
33 28 29 1
34 5 31 1
35 5 32 1
36 6 33 1
37 7 34 1
38 7 35 1
39 9 36 1
40 9 37 1
41 11 38 1
42 12 39 1
43 14 40 1
44 15 41 1
45 18 42 1
46 21 43 1
47 22 44 1
48 29 45 1
49 29 46 1
50 29 47 1
51 30 48 1
52 30 49 1
53 30 50 1
@<TRIPOS>SUBSTRUCTURE
1	UNK0	1	GROUP	1 ****	UNK
