# created with PyMOL 2.3.2
@<TRIPOS>MOLECULE
2073
60 63 1                 
SMALL
USER_CHARGES
@<TRIPOS>ATOM
1	   S	-0.641	-1.426	-1.661	S.O2	1	UNK0	0.000	
2	   O	-1.390	-0.653	-0.604	O.2	1	UNK0	0.000	
3	   O	-1.389	-1.276	-2.932	O.2	1	UNK0	0.000	
4	   N	-0.491	-3.028	-1.126	N.3	1	UNK0	0.000	
5	   C	0.105	-3.183	0.151	C.3	1	UNK0	0.000	
6	   C	-0.108	-4.544	0.764	C.3	1	UNK0	0.000	
7	   N	-0.290	-5.556	-0.234	N.3	1	UNK0	0.000	
8	   C	0.425	-5.256	-1.459	C.3	1	UNK0	0.000	
9	   C	-0.083	-3.969	-2.110	C.3	1	UNK0	0.000	
10	   C	-1.690	-5.777	-0.550	C.3	1	UNK0	0.000	
11	   C	-1.870	-6.839	-1.597	C.3	1	UNK0	0.000	
12	   C	0.936	-0.690	-1.806	C.2	1	UNK0	0.000	
13	   C	1.494	-0.027	-0.733	C.2	1	UNK0	0.000	
14	   C	2.747	0.569	-0.821	C.2	1	UNK0	0.000	
15	   C	3.446	0.496	-2.006	C.2	1	UNK0	0.000	
16	   C	2.908	-0.161	-3.091	C.2	1	UNK0	0.000	
17	   C	1.659	-0.746	-2.977	C.2	1	UNK0	0.000	
18	  Cl	5.040	1.241	-2.157	Cl	1	UNK0	0.000	
19	   C	3.283	1.254	0.343	C.2	1	UNK0	0.000	
20	   O	3.981	0.595	1.160	O.2	1	UNK0	0.000	
21	   N	3.036	2.631	0.570	N.pl3	1	UNK0	0.000	
22	   C	2.227	3.353	-0.398	C.3	1	UNK0	0.000	
23	   C	1.516	4.513	0.288	C.3	1	UNK0	0.000	
24	   N	1.269	4.103	1.631	N.pl3	1	UNK0	0.000	
25	   C	2.431	4.005	2.527	C.3	1	UNK0	0.000	
26	   C	3.553	3.342	1.720	C.3	1	UNK0	0.000	
27	   C	-0.000	3.786	2.121	C.2	1	UNK0	0.000	
28	   O	-0.103	3.435	3.353	O.2	1	UNK0	0.000	
29	   C	-1.239	3.814	1.355	C.2	1	UNK0	0.000	
30	   O	-1.415	4.126	0.096	O.3	1	UNK0	0.000	
31	   C	-2.672	4.040	-0.253	C.2	1	UNK0	0.000	
32	   C	-3.413	3.641	0.839	C.2	1	UNK0	0.000	
33	   C	-2.504	3.498	1.859	C.2	1	UNK0	0.000	
34	   H	-0.206	-2.377	0.815	 H	1	UNK0	0.000	
35	   H	1.217	-3.061	0.012	 H	1	UNK0	0.000	
36	   H	0.766	-4.763	1.409	 H	1	UNK0	0.000	
37	   H	-1.045	-4.475	1.377	 H	1	UNK0	0.000	
38	   H	1.506	-5.145	-1.183	 H	1	UNK0	0.000	
39	   H	0.345	-6.109	-2.132	 H	1	UNK0	0.000	
40	   H	-0.813	-4.173	-2.903	 H	1	UNK0	0.000	
41	   H	0.821	-3.540	-2.635	 H	1	UNK0	0.000	
42	   H	-2.085	-4.828	-0.973	 H	1	UNK0	0.000	
43	   H	-2.247	-6.095	0.352	 H	1	UNK0	0.000	
44	   H	-2.977	-7.045	-1.646	 H	1	UNK0	0.000	
45	   H	-1.350	-7.783	-1.364	 H	1	UNK0	0.000	
46	   H	-1.615	-6.428	-2.597	 H	1	UNK0	0.000	
47	   H	0.931	0.025	0.202	 H	1	UNK0	0.000	
48	   H	3.457	-0.218	-4.019	 H	1	UNK0	0.000	
49	   H	1.263	-1.256	-3.852	 H	1	UNK0	0.000	
50	   H	1.455	2.675	-0.795	 H	1	UNK0	0.000	
51	   H	2.857	3.706	-1.231	 H	1	UNK0	0.000	
52	   H	0.660	4.890	-0.265	 H	1	UNK0	0.000	
53	   H	2.278	5.348	0.319	 H	1	UNK0	0.000	
54	   H	2.737	5.011	2.878	 H	1	UNK0	0.000	
55	   H	2.151	3.352	3.370	 H	1	UNK0	0.000	
56	   H	4.192	4.180	1.348	 H	1	UNK0	0.000	
57	   H	4.168	2.710	2.362	 H	1	UNK0	0.000	
58	   H	-3.047	4.251	-1.241	 H	1	UNK0	0.000	
59	   H	-4.492	3.481	0.863	 H	1	UNK0	0.000	
60	   H	-2.722	3.195	2.873	 H	1	UNK0	0.000	
@<TRIPOS>BOND
1 1 2 2
2 1 3 2
3 1 4 1
4 1 12 1
5 4 5 1
6 4 9 1
7 5 6 1
8 6 7 1
9 7 8 1
10 7 10 1
11 8 9 1
12 10 11 1
13 12 13 2
14 12 17 1
15 13 14 1
16 14 15 2
17 14 19 1
18 15 16 1
19 15 18 1
20 16 17 2
21 19 20 2
22 19 21 1
23 21 22 1
24 21 26 1
25 22 23 1
26 23 24 1
27 24 25 1
28 24 27 1
29 25 26 1
30 27 28 2
31 27 29 1
32 29 30 1
33 29 33 2
34 30 31 1
35 31 32 2
36 32 33 1
37 5 34 1
38 5 35 1
39 6 36 1
40 6 37 1
41 8 38 1
42 8 39 1
43 9 40 1
44 9 41 1
45 10 42 1
46 10 43 1
47 11 44 1
48 11 45 1
49 11 46 1
50 13 47 1
51 16 48 1
52 17 49 1
53 22 50 1
54 22 51 1
55 23 52 1
56 23 53 1
57 25 54 1
58 25 55 1
59 26 56 1
60 26 57 1
61 31 58 1
62 32 59 1
63 33 60 1
@<TRIPOS>SUBSTRUCTURE
1	UNK0	1	GROUP	1 ****	UNK
