# created with PyMOL 2.3.2
@<TRIPOS>MOLECULE
2074
40 43 1                 
SMALL
USER_CHARGES
@<TRIPOS>ATOM
1	  Br	0.772	2.550	1.140	Br	1	UNK0	0.000	
2	   C	-0.422	1.197	1.800	C.2	1	UNK0	0.000	
3	   N	-0.386	-0.125	1.558	N.pl3	1	UNK0	0.000	
4	   C	-1.405	-0.716	2.214	C.2	1	UNK0	0.000	
5	   N	-1.843	-1.999	2.328	N.2	1	UNK0	0.000	
6	   C	-2.905	-2.354	3.054	C.2	1	UNK0	0.000	
7	   N	-3.580	-1.395	3.710	N.2	1	UNK0	0.000	
8	   C	-3.199	-0.108	3.639	C.2	1	UNK0	0.000	
9	   C	-2.103	0.276	2.892	C.2	1	UNK0	0.000	
10	   N	-1.470	1.419	2.611	N.2	1	UNK0	0.000	
11	   O	-3.882	0.899	4.308	O.3	1	UNK0	0.000	
12	   N	-3.368	-3.692	3.177	N.pl3	1	UNK0	0.000	
13	   C	0.568	-0.819	0.739	C.3	1	UNK0	0.000	
14	   O	1.772	-0.154	0.715	O.3	1	UNK0	0.000	
15	   C	2.375	-0.387	-0.494	C.3	1	UNK0	0.000	
16	   C	1.264	-0.465	-1.487	C.3	1	UNK0	0.000	
17	   O	0.858	0.806	-1.836	O.3	1	UNK0	0.000	
18	   C	-0.512	0.672	-2.025	C.3	1	UNK0	0.000	
19	   O	-0.951	-0.201	-1.035	O.3	1	UNK0	0.000	
20	   C	0.115	-0.995	-0.684	C.3	1	UNK0	0.000	
21	   C	-1.247	1.972	-1.860	C.3	1	UNK0	0.000	
22	   C	-0.735	0.148	-3.415	C.3	1	UNK0	0.000	
23	   C	3.230	-1.634	-0.447	C.3	1	UNK0	0.000	
24	   O	2.515	-2.766	-0.139	O.3	1	UNK0	0.000	
25	   H	-4.672	1.372	3.883	 H	1	UNK0	0.000	
26	   H	-4.204	-4.066	2.695	 H	1	UNK0	0.000	
27	   H	-2.856	-4.389	3.792	 H	1	UNK0	0.000	
28	   H	0.781	-1.854	1.138	 H	1	UNK0	0.000	
29	   H	3.045	0.470	-0.721	 H	1	UNK0	0.000	
30	   H	1.497	-1.104	-2.363	 H	1	UNK0	0.000	
31	   H	-0.086	-2.058	-0.934	 H	1	UNK0	0.000	
32	   H	-0.546	2.846	-1.845	 H	1	UNK0	0.000	
33	   H	-1.782	2.023	-0.868	 H	1	UNK0	0.000	
34	   H	-2.050	2.116	-2.624	 H	1	UNK0	0.000	
35	   H	-0.729	1.047	-4.099	 H	1	UNK0	0.000	
36	   H	-1.717	-0.333	-3.548	 H	1	UNK0	0.000	
37	   H	0.111	-0.490	-3.778	 H	1	UNK0	0.000	
38	   H	3.814	-1.773	-1.368	 H	1	UNK0	0.000	
39	   H	3.972	-1.471	0.371	 H	1	UNK0	0.000	
40	   H	2.762	-3.541	-0.712	 H	1	UNK0	0.000	
@<TRIPOS>BOND
1 1 2 1
2 2 3 1
3 2 10 2
4 3 4 1
5 3 13 1
6 4 5 2
7 4 9 1
8 5 6 1
9 6 7 2
10 6 12 1
11 7 8 1
12 8 9 2
13 8 11 1
14 9 10 1
15 13 14 1
16 13 20 1
17 14 15 1
18 15 16 1
19 15 23 1
20 16 17 1
21 16 20 1
22 17 18 1
23 18 19 1
24 18 21 1
25 18 22 1
26 19 20 1
27 23 24 1
28 11 25 1
29 12 26 1
30 12 27 1
31 13 28 1
32 15 29 1
33 16 30 1
34 20 31 1
35 21 32 1
36 21 33 1
37 21 34 1
38 22 35 1
39 22 36 1
40 22 37 1
41 23 38 1
42 23 39 1
43 24 40 1
@<TRIPOS>SUBSTRUCTURE
1	UNK0	1	GROUP	1 ****	UNK
