# created with PyMOL 2.3.2
@<TRIPOS>MOLECULE
2075
38 41 1                 
SMALL
USER_CHARGES
@<TRIPOS>ATOM
1	  Cl	-2.274	-2.469	5.085	Cl	1	UNK0	0.000	
2	   C	-1.241	-1.253	4.336	C.2	1	UNK0	0.000	
3	   C	-1.632	-0.725	3.135	C.2	1	UNK0	0.000	
4	   C	-0.820	0.233	2.539	C.2	1	UNK0	0.000	
5	   C	0.366	0.655	3.141	C.2	1	UNK0	0.000	
6	   N	0.910	1.580	2.315	N.pl3	1	UNK0	0.000	
7	   C	0.160	1.778	1.235	C.2	1	UNK0	0.000	
8	   C	-0.931	0.939	1.359	C.2	1	UNK0	0.000	
9	   C	-1.923	0.983	0.256	C.3	1	UNK0	0.000	
10	   C	-1.283	1.074	-1.103	C.3	1	UNK0	0.000	
11	   N	-0.075	1.824	-1.131	N.3	1	UNK0	0.000	
12	   C	0.205	2.625	0.002	C.3	1	UNK0	0.000	
13	   C	1.045	1.146	-1.715	C.3	1	UNK0	0.000	
14	   C	0.783	0.834	-3.166	C.3	1	UNK0	0.000	
15	   C	0.707	-0.669	-3.229	C.2	1	UNK0	0.000	
16	   O	0.475	-1.357	-4.240	O.2	1	UNK0	0.000	
17	   N	0.949	-1.175	-1.921	N.pl3	1	UNK0	0.000	
18	   C	1.380	-0.128	-1.065	C.2	1	UNK0	0.000	
19	   O	1.938	-0.326	0.031	O.2	1	UNK0	0.000	
20	   C	0.779	-2.555	-1.521	C.3	1	UNK0	0.000	
21	   C	0.736	0.108	4.351	C.2	1	UNK0	0.000	
22	   C	-0.067	-0.838	4.936	C.2	1	UNK0	0.000	
23	   H	-2.521	-0.984	2.596	 H	1	UNK0	0.000	
24	   H	1.809	2.088	2.486	 H	1	UNK0	0.000	
25	   H	-2.575	1.885	0.452	 H	1	UNK0	0.000	
26	   H	-2.612	0.119	0.315	 H	1	UNK0	0.000	
27	   H	-1.154	0.033	-1.463	 H	1	UNK0	0.000	
28	   H	-2.020	1.564	-1.773	 H	1	UNK0	0.000	
29	   H	1.199	3.082	-0.122	 H	1	UNK0	0.000	
30	   H	-0.613	3.379	0.106	 H	1	UNK0	0.000	
31	   H	1.914	1.834	-1.681	 H	1	UNK0	0.000	
32	   H	1.632	1.111	-3.830	 H	1	UNK0	0.000	
33	   H	-0.106	1.315	-3.570	 H	1	UNK0	0.000	
34	   H	1.649	-2.987	-1.015	 H	1	UNK0	0.000	
35	   H	-0.079	-2.659	-0.800	 H	1	UNK0	0.000	
36	   H	0.534	-3.192	-2.387	 H	1	UNK0	0.000	
37	   H	1.643	0.421	4.827	 H	1	UNK0	0.000	
38	   H	0.160	-1.313	5.885	 H	1	UNK0	0.000	
@<TRIPOS>BOND
1 1 2 1
2 2 3 2
3 2 22 1
4 3 4 1
5 4 5 2
6 4 8 1
7 5 6 1
8 5 21 1
9 6 7 1
10 7 8 2
11 7 12 1
12 8 9 1
13 9 10 1
14 10 11 1
15 11 12 1
16 11 13 1
17 13 14 1
18 13 18 1
19 14 15 1
20 15 16 2
21 15 17 1
22 17 18 1
23 17 20 1
24 18 19 2
25 21 22 2
26 3 23 1
27 6 24 1
28 9 25 1
29 9 26 1
30 10 27 1
31 10 28 1
32 12 29 1
33 12 30 1
34 13 31 1
35 14 32 1
36 14 33 1
37 20 34 1
38 20 35 1
39 20 36 1
40 21 37 1
41 22 38 1
@<TRIPOS>SUBSTRUCTURE
1	UNK0	1	GROUP	1 ****	UNK
