# created with PyMOL 2.3.2
@<TRIPOS>MOLECULE
2076
39 42 1                 
SMALL
USER_CHARGES
@<TRIPOS>ATOM
1	  Cl	-1.708	0.572	5.848	Cl	1	UNK0	0.000	
2	   C	-0.562	-0.127	4.733	C.2	1	UNK0	0.000	
3	   C	0.786	0.057	4.951	C.2	1	UNK0	0.000	
4	   C	1.687	-0.503	4.059	C.2	1	UNK0	0.000	
5	   C	1.216	-1.235	2.965	C.2	1	UNK0	0.000	
6	   C	-0.119	-1.420	2.743	C.2	1	UNK0	0.000	
7	   C	-0.999	-0.856	3.641	C.2	1	UNK0	0.000	
8	   C	-0.612	-2.195	1.586	C.3	1	UNK0	0.000	
9	   N	-0.821	-1.338	0.430	N.pl3	1	UNK0	0.000	
10	   N	-1.923	-0.714	0.127	N.2	1	UNK0	0.000	
11	   C	-1.811	-0.002	-0.997	C.2	1	UNK0	0.000	
12	   C	-0.512	-0.187	-1.459	C.2	1	UNK0	0.000	
13	   C	0.076	-1.029	-0.540	C.2	1	UNK0	0.000	
14	   O	0.064	0.358	-2.599	O.3	1	UNK0	0.000	
15	   C	-0.673	1.198	-3.430	C.3	1	UNK0	0.000	
16	   C	-0.019	2.575	-3.586	C.3	1	UNK0	0.000	
17	   C	-0.704	3.005	-4.870	C.3	1	UNK0	0.000	
18	   O	-0.827	1.887	-5.653	O.3	1	UNK0	0.000	
19	   C	-0.699	0.768	-4.870	C.3	1	UNK0	0.000	
20	   N	1.382	2.470	-3.858	N.3	1	UNK0	0.000	
21	   O	2.951	-0.162	4.520	O.3	1	UNK0	0.000	
22	   C	2.842	0.836	5.523	C.3	1	UNK0	0.000	
23	   O	1.516	0.732	5.947	O.3	1	UNK0	0.000	
24	   H	1.936	-1.662	2.283	 H	1	UNK0	0.000	
25	   H	-2.060	-1.012	3.451	 H	1	UNK0	0.000	
26	   H	0.090	-3.020	1.353	 H	1	UNK0	0.000	
27	   H	-1.584	-2.660	1.888	 H	1	UNK0	0.000	
28	   H	-2.588	0.598	-1.448	 H	1	UNK0	0.000	
29	   H	1.089	-1.405	-0.556	 H	1	UNK0	0.000	
30	   H	-1.706	1.379	-3.113	 H	1	UNK0	0.000	
31	   H	-0.266	3.228	-2.735	 H	1	UNK0	0.000	
32	   H	-0.167	3.841	-5.365	 H	1	UNK0	0.000	
33	   H	-1.736	3.342	-4.586	 H	1	UNK0	0.000	
34	   H	-1.522	0.063	-5.090	 H	1	UNK0	0.000	
35	   H	0.267	0.273	-5.155	 H	1	UNK0	0.000	
36	   H	1.988	2.833	-3.093	 H	1	UNK0	0.000	
37	   H	1.675	1.538	-4.218	 H	1	UNK0	0.000	
38	   H	3.082	1.802	5.036	 H	1	UNK0	0.000	
39	   H	3.543	0.686	6.358	 H	1	UNK0	0.000	
@<TRIPOS>BOND
1 1 2 1
2 2 3 2
3 2 7 1
4 3 4 1
5 3 23 1
6 4 5 2
7 4 21 1
8 5 6 1
9 6 7 2
10 6 8 1
11 8 9 1
12 9 10 1
13 9 13 1
14 10 11 2
15 11 12 1
16 12 13 2
17 12 14 1
18 14 15 1
19 15 16 1
20 15 19 1
21 16 17 1
22 16 20 1
23 17 18 1
24 18 19 1
25 21 22 1
26 22 23 1
27 5 24 1
28 7 25 1
29 8 26 1
30 8 27 1
31 11 28 1
32 13 29 1
33 15 30 1
34 16 31 1
35 17 32 1
36 17 33 1
37 19 34 1
38 19 35 1
39 20 36 1
40 20 37 1
41 22 38 1
42 22 39 1
@<TRIPOS>SUBSTRUCTURE
1	UNK0	1	GROUP	1 ****	UNK
