# created with PyMOL 2.3.2
@<TRIPOS>MOLECULE
2077
47 50 1                 
SMALL
USER_CHARGES
@<TRIPOS>ATOM
1	   S	-3.270	-0.838	1.169	S.O2	1	UNK0	0.000	
2	   O	-3.530	-0.458	2.626	O.2	1	UNK0	0.000	
3	   O	-4.614	-1.259	0.611	O.2	1	UNK0	0.000	
4	   N	-2.221	-2.138	1.058	N.3	1	UNK0	0.000	
5	   C	-1.918	-2.750	-0.151	C.3	1	UNK0	0.000	
6	   C	-0.653	-2.237	-0.818	C.3	1	UNK0	0.000	
7	   N	0.453	-2.262	0.098	N.pl3	1	UNK0	0.000	
8	   C	0.089	-2.793	1.436	C.3	1	UNK0	0.000	
9	   C	-1.046	-1.965	1.924	C.3	1	UNK0	0.000	
10	   C	1.750	-1.873	-0.137	C.2	1	UNK0	0.000	
11	   O	2.580	-1.966	0.827	O.2	1	UNK0	0.000	
12	   C	2.292	-1.359	-1.387	C.2	1	UNK0	0.000	
13	   O	3.569	-0.983	-1.541	O.3	1	UNK0	0.000	
14	   C	3.812	-0.565	-2.731	C.2	1	UNK0	0.000	
15	   C	2.668	-0.643	-3.462	C.2	1	UNK0	0.000	
16	   C	1.710	-1.145	-2.609	C.2	1	UNK0	0.000	
17	   C	-2.816	0.625	0.331	C.2	1	UNK0	0.000	
18	   C	-2.304	1.700	1.085	C.2	1	UNK0	0.000	
19	   C	-1.865	2.872	0.522	C.2	1	UNK0	0.000	
20	   C	-1.901	3.065	-0.841	C.2	1	UNK0	0.000	
21	   C	-2.401	2.023	-1.588	C.2	1	UNK0	0.000	
22	   C	-2.852	0.823	-1.021	C.2	1	UNK0	0.000	
23	  Cl	-3.532	-0.386	-2.064	Cl	1	UNK0	0.000	
24	   N	-1.446	4.274	-1.451	N.pl3	1	UNK0	0.000	
25	   C	-0.940	5.302	-0.600	C.2	1	UNK0	0.000	
26	   O	-0.796	6.466	-0.993	O.2	1	UNK0	0.000	
27	   C	-0.567	4.971	0.814	C.3	1	UNK0	0.000	
28	   O	-1.365	3.911	1.301	O.3	1	UNK0	0.000	
29	   C	0.869	4.497	0.910	C.3	1	UNK0	0.000	
30	   H	-1.725	-3.864	0.069	 H	1	UNK0	0.000	
31	   H	-2.723	-2.769	-0.864	 H	1	UNK0	0.000	
32	   H	-0.820	-1.227	-1.200	 H	1	UNK0	0.000	
33	   H	-0.442	-2.923	-1.646	 H	1	UNK0	0.000	
34	   H	0.955	-2.629	2.144	 H	1	UNK0	0.000	
35	   H	-0.132	-3.867	1.324	 H	1	UNK0	0.000	
36	   H	-1.307	-2.277	2.948	 H	1	UNK0	0.000	
37	   H	-0.761	-0.900	1.840	 H	1	UNK0	0.000	
38	   H	4.772	-0.197	-3.132	 H	1	UNK0	0.000	
39	   H	2.539	-0.361	-4.515	 H	1	UNK0	0.000	
40	   H	0.700	-1.322	-2.905	 H	1	UNK0	0.000	
41	   H	-2.270	1.558	2.167	 H	1	UNK0	0.000	
42	   H	-2.434	2.165	-2.663	 H	1	UNK0	0.000	
43	   H	-1.483	4.399	-2.486	 H	1	UNK0	0.000	
44	   H	-0.703	5.898	1.421	 H	1	UNK0	0.000	
45	   H	1.179	4.676	1.974	 H	1	UNK0	0.000	
46	   H	1.551	5.044	0.249	 H	1	UNK0	0.000	
47	   H	0.907	3.386	0.724	 H	1	UNK0	0.000	
@<TRIPOS>BOND
1 1 2 2
2 1 3 2
3 1 4 1
4 1 17 1
5 4 5 1
6 4 9 1
7 5 6 1
8 6 7 1
9 7 8 1
10 7 10 1
11 8 9 1
12 10 11 2
13 10 12 1
14 12 13 1
15 12 16 2
16 13 14 1
17 14 15 2
18 15 16 1
19 17 18 2
20 17 22 1
21 18 19 1
22 19 20 2
23 19 28 1
24 20 21 1
25 20 24 1
26 21 22 2
27 22 23 1
28 24 25 1
29 25 26 2
30 25 27 1
31 27 28 1
32 27 29 1
33 5 30 1
34 5 31 1
35 6 32 1
36 6 33 1
37 8 34 1
38 8 35 1
39 9 36 1
40 9 37 1
41 14 38 1
42 15 39 1
43 16 40 1
44 18 41 1
45 21 42 1
46 24 43 1
47 27 44 1
48 29 45 1
49 29 46 1
50 29 47 1
@<TRIPOS>SUBSTRUCTURE
1	UNK0	1	GROUP	1 ****	UNK
