# created with PyMOL 2.3.2
@<TRIPOS>MOLECULE
2078
36 39 1                 
SMALL
USER_CHARGES
@<TRIPOS>ATOM
1	  Cl	-2.750	4.930	-0.402	Cl	1	UNK0	0.000	
2	   C	-2.056	3.319	-0.546	C.2	1	UNK0	0.000	
3	   C	-0.862	3.172	-1.175	C.2	1	UNK0	0.000	
4	   C	-0.292	1.901	-1.300	C.2	1	UNK0	0.000	
5	   C	-0.902	0.782	-0.805	C.2	1	UNK0	0.000	
6	   C	-2.114	0.933	-0.167	C.2	1	UNK0	0.000	
7	   C	-2.697	2.199	-0.033	C.2	1	UNK0	0.000	
8	   C	-0.236	-0.562	-0.961	C.3	1	UNK0	0.000	
9	   C	0.248	-0.989	0.366	C.2	1	UNK0	0.000	
10	   C	-0.199	-2.113	1.006	C.2	1	UNK0	0.000	
11	   N	-1.155	-2.949	0.369	N.pl3	1	UNK0	0.000	
12	   C	-1.632	-2.621	-0.909	C.2	1	UNK0	0.000	
13	   C	-1.192	-1.548	-1.506	C.2	1	UNK0	0.000	
14	   C	-1.863	-1.559	-2.831	C.2	1	UNK0	0.000	
15	   O	-1.697	-0.687	-3.697	O.co2	1	UNK0	0.000	
16	   O	-2.670	-2.655	-2.935	O.3	1	UNK0	0.000	
17	   C	-2.634	-3.362	-1.738	C.3	1	UNK0	0.000	
18	   N	0.246	-2.489	2.241	N.pl3	1	UNK0	0.000	
19	   C	1.157	-1.720	2.841	C.2	1	UNK0	0.000	
20	   O	1.565	-2.072	3.983	O.2	1	UNK0	0.000	
21	   N	1.615	-0.613	2.238	N.pl3	1	UNK0	0.000	
22	   C	1.204	-0.213	1.033	C.2	1	UNK0	0.000	
23	   O	1.616	0.808	0.461	O.2	1	UNK0	0.000	
24	   C	-0.291	-3.696	2.833	C.3	1	UNK0	0.000	
25	   H	-0.367	4.045	-1.572	 H	1	UNK0	0.000	
26	   H	0.662	1.897	-1.828	 H	1	UNK0	0.000	
27	   H	-2.622	0.089	0.233	 H	1	UNK0	0.000	
28	   H	-3.643	2.352	0.460	 H	1	UNK0	0.000	
29	   H	0.619	-0.415	-1.668	 H	1	UNK0	0.000	
30	   H	-1.478	-3.805	0.893	 H	1	UNK0	0.000	
31	   H	-3.614	-3.387	-1.217	 H	1	UNK0	0.000	
32	   H	-2.301	-4.415	-1.915	 H	1	UNK0	0.000	
33	   H	2.338	-0.025	2.743	 H	1	UNK0	0.000	
34	   H	0.066	-3.734	3.905	 H	1	UNK0	0.000	
35	   H	-0.050	-4.603	2.279	 H	1	UNK0	0.000	
36	   H	-1.411	-3.640	2.928	 H	1	UNK0	0.000	
@<TRIPOS>BOND
1 1 2 1
2 2 3 2
3 2 7 1
4 3 4 1
5 4 5 2
6 5 6 1
7 5 8 1
8 6 7 2
9 8 9 1
10 8 13 1
11 9 10 2
12 9 22 1
13 10 11 1
14 10 18 1
15 11 12 1
16 12 13 2
17 12 17 1
18 13 14 1
19 14 15 2
20 14 16 1
21 16 17 1
22 18 19 1
23 18 24 1
24 19 20 2
25 19 21 1
26 21 22 1
27 22 23 2
28 3 25 1
29 4 26 1
30 6 27 1
31 7 28 1
32 8 29 1
33 11 30 1
34 17 31 1
35 17 32 1
36 21 33 1
37 24 34 1
38 24 35 1
39 24 36 1
@<TRIPOS>SUBSTRUCTURE
1	UNK0	1	GROUP	1 ****	UNK
