# created with PyMOL 2.3.2
@<TRIPOS>MOLECULE
2080
50 53 1                 
SMALL
USER_CHARGES
@<TRIPOS>ATOM
1	  Cl	2.461	-1.828	-1.238	Cl	1	UNK0	0.000	
2	   C	0.892	-1.758	-1.970	C.2	1	UNK0	0.000	
3	   C	0.672	-1.565	-3.325	C.2	1	UNK0	0.000	
4	   C	-0.599	-1.538	-3.827	C.2	1	UNK0	0.000	
5	   C	-1.729	-1.707	-3.056	C.2	1	UNK0	0.000	
6	   C	-1.486	-1.903	-1.676	C.2	1	UNK0	0.000	
7	   C	-0.247	-1.918	-1.156	C.2	1	UNK0	0.000	
8	   C	0.042	-2.020	0.331	C.3	1	UNK0	0.000	
9	   N	-0.534	-0.903	0.922	N.3	1	UNK0	0.000	
10	   C	0.078	-0.421	2.192	C.3	1	UNK0	0.000	
11	   C	-0.712	0.826	2.335	C.3	1	UNK0	0.000	
12	   C	-2.112	0.414	2.057	C.3	1	UNK0	0.000	
13	   C	-1.745	-0.310	0.676	C.3	1	UNK0	0.000	
14	   C	-3.008	1.582	1.798	C.3	1	UNK0	0.000	
15	   O	-4.322	1.038	1.731	O.3	1	UNK0	0.000	
16	   C	-0.336	2.078	1.713	C.3	1	UNK0	0.000	
17	   N	0.721	2.877	2.133	N.3	1	UNK0	0.000	
18	   C	0.848	4.063	1.328	C.3	1	UNK0	0.000	
19	   C	1.727	3.790	0.120	C.3	1	UNK0	0.000	
20	   O	2.388	2.599	0.207	O.3	1	UNK0	0.000	
21	   C	2.946	2.276	1.430	C.3	1	UNK0	0.000	
22	   C	1.950	2.444	2.572	C.3	1	UNK0	0.000	
23	   O	-2.875	-1.651	-3.822	O.3	1	UNK0	0.000	
24	   C	-2.467	-1.239	-5.135	C.3	1	UNK0	0.000	
25	   O	-1.070	-1.336	-5.118	O.3	1	UNK0	0.000	
26	   H	1.566	-1.389	-3.911	 H	1	UNK0	0.000	
27	   H	-2.379	-2.135	-1.080	 H	1	UNK0	0.000	
28	   H	-0.585	-2.962	0.637	 H	1	UNK0	0.000	
29	   H	1.061	-2.204	0.519	 H	1	UNK0	0.000	
30	   H	-0.259	-1.199	2.916	 H	1	UNK0	0.000	
31	   H	1.137	-0.328	2.085	 H	1	UNK0	0.000	
32	   H	-0.688	1.040	3.529	 H	1	UNK0	0.000	
33	   H	-2.517	-0.401	2.652	 H	1	UNK0	0.000	
34	   H	-2.623	-0.885	0.428	 H	1	UNK0	0.000	
35	   H	-1.614	0.590	0.002	 H	1	UNK0	0.000	
36	   H	-2.990	2.385	2.515	 H	1	UNK0	0.000	
37	   H	-2.900	1.982	0.737	 H	1	UNK0	0.000	
38	   H	-4.421	0.384	2.486	 H	1	UNK0	0.000	
39	   H	0.062	1.627	0.614	 H	1	UNK0	0.000	
40	   H	-1.158	2.679	1.288	 H	1	UNK0	0.000	
41	   H	1.358	4.836	1.930	 H	1	UNK0	0.000	
42	   H	-0.140	4.497	1.063	 H	1	UNK0	0.000	
43	   H	2.365	4.692	-0.083	 H	1	UNK0	0.000	
44	   H	1.010	3.731	-0.748	 H	1	UNK0	0.000	
45	   H	3.876	2.840	1.592	 H	1	UNK0	0.000	
46	   H	3.182	1.201	1.411	 H	1	UNK0	0.000	
47	   H	1.948	1.586	3.277	 H	1	UNK0	0.000	
48	   H	2.394	3.286	3.208	 H	1	UNK0	0.000	
49	   H	-2.905	-1.997	-5.852	 H	1	UNK0	0.000	
50	   H	-2.868	-0.230	-5.376	 H	1	UNK0	0.000	
@<TRIPOS>BOND
1 1 2 1
2 2 3 2
3 2 7 1
4 3 4 1
5 4 5 2
6 4 25 1
7 5 6 1
8 5 23 1
9 6 7 2
10 7 8 1
11 8 9 1
12 9 10 1
13 9 13 1
14 10 11 1
15 11 12 1
16 11 16 1
17 12 13 1
18 12 14 1
19 14 15 1
20 16 17 1
21 17 18 1
22 17 22 1
23 18 19 1
24 19 20 1
25 20 21 1
26 21 22 1
27 23 24 1
28 24 25 1
29 3 26 1
30 6 27 1
31 8 28 1
32 8 29 1
33 10 30 1
34 10 31 1
35 11 32 1
36 12 33 1
37 13 34 1
38 13 35 1
39 14 36 1
40 14 37 1
41 15 38 1
42 16 39 1
43 16 40 1
44 18 41 1
45 18 42 1
46 19 43 1
47 19 44 1
48 21 45 1
49 21 46 1
50 22 47 1
51 22 48 1
52 24 49 1
53 24 50 1
@<TRIPOS>SUBSTRUCTURE
1	UNK0	1	GROUP	1 ****	UNK
