# created with PyMOL 2.3.2
@<TRIPOS>MOLECULE
2081
38 41 1                 
SMALL
USER_CHARGES
@<TRIPOS>ATOM
1	  Cl	-4.040	-4.623	5.052	Cl	1	UNK0	0.000	
2	   C	-3.374	-3.426	3.945	C.2	1	UNK0	0.000	
3	   C	-3.667	-3.475	2.601	C.2	1	UNK0	0.000	
4	   N	-3.149	-2.549	1.764	N.pl3	1	UNK0	0.000	
5	   C	-2.342	-1.552	2.165	C.2	1	UNK0	0.000	
6	   N	-1.825	-0.632	1.334	N.2	1	UNK0	0.000	
7	   C	-2.092	-0.656	0.021	C.2	1	UNK0	0.000	
8	   C	-2.911	-1.653	-0.442	C.2	1	UNK0	0.000	
9	   C	-3.423	-2.581	0.442	C.2	1	UNK0	0.000	
10	   O	-4.183	-3.519	0.061	O.2	1	UNK0	0.000	
11	   C	-1.528	0.357	-0.930	C.3	1	UNK0	0.000	
12	   N	-0.283	-0.057	-1.458	N.3	1	UNK0	0.000	
13	   C	0.367	0.810	-2.377	C.3	1	UNK0	0.000	
14	   C	0.753	2.144	-1.829	C.3	1	UNK0	0.000	
15	   N	2.135	2.247	-1.460	N.pl3	1	UNK0	0.000	
16	   N	2.700	2.920	-0.478	N.2	1	UNK0	0.000	
17	   C	4.013	2.724	-0.513	C.2	1	UNK0	0.000	
18	   N	4.301	1.909	-1.538	N.2	1	UNK0	0.000	
19	   C	3.126	1.617	-2.122	C.2	1	UNK0	0.000	
20	   C	2.728	0.792	-3.279	C.3	1	UNK0	0.000	
21	   C	1.506	0.025	-2.966	C.3	1	UNK0	0.000	
22	   C	-2.052	-1.513	3.532	C.2	1	UNK0	0.000	
23	   C	-2.555	-2.433	4.427	C.2	1	UNK0	0.000	
24	   H	-4.317	-4.266	2.237	 H	1	UNK0	0.000	
25	   H	-3.181	-1.749	-1.491	 H	1	UNK0	0.000	
26	   H	-1.532	1.370	-0.488	 H	1	UNK0	0.000	
27	   H	-2.254	0.396	-1.770	 H	1	UNK0	0.000	
28	   H	-0.165	-1.060	-1.605	 H	1	UNK0	0.000	
29	   H	-0.352	1.000	-3.206	 H	1	UNK0	0.000	
30	   H	0.142	2.447	-0.957	 H	1	UNK0	0.000	
31	   H	0.576	2.962	-2.593	 H	1	UNK0	0.000	
32	   H	4.720	3.160	0.182	 H	1	UNK0	0.000	
33	   H	2.631	1.377	-4.214	 H	1	UNK0	0.000	
34	   H	3.560	0.045	-3.434	 H	1	UNK0	0.000	
35	   H	1.810	-0.840	-2.303	 H	1	UNK0	0.000	
36	   H	1.162	-0.476	-3.906	 H	1	UNK0	0.000	
37	   H	-1.406	-0.720	3.875	 H	1	UNK0	0.000	
38	   H	-2.323	-2.395	5.492	 H	1	UNK0	0.000	
@<TRIPOS>BOND
1 1 2 1
2 2 3 2
3 2 23 1
4 3 4 1
5 4 5 1
6 4 9 1
7 5 6 2
8 5 22 1
9 6 7 1
10 7 8 2
11 7 11 1
12 8 9 1
13 9 10 2
14 11 12 1
15 12 13 1
16 13 14 1
17 13 21 1
18 14 15 1
19 15 16 1
20 15 19 1
21 16 17 2
22 17 18 1
23 18 19 2
24 19 20 1
25 20 21 1
26 22 23 2
27 3 24 1
28 8 25 1
29 11 26 1
30 11 27 1
31 12 28 1
32 13 29 1
33 14 30 1
34 14 31 1
35 17 32 1
36 20 33 1
37 20 34 1
38 21 35 1
39 21 36 1
40 22 37 1
41 23 38 1
@<TRIPOS>SUBSTRUCTURE
1	UNK0	1	GROUP	1 ****	UNK
