# created with PyMOL 2.3.2
@<TRIPOS>MOLECULE
2086
51 54 1                 
SMALL
USER_CHARGES
@<TRIPOS>ATOM
1	   F	3.418	5.078	1.632	 F	1	UNK0	0.000	
2	   C	4.149	3.987	1.139	C.3	1	UNK0	0.000	
3	   F	4.648	4.356	-0.081	 F	1	UNK0	0.000	
4	   F	5.203	3.728	1.996	 F	1	UNK0	0.000	
5	   C	3.241	2.809	0.965	C.2	1	UNK0	0.000	
6	   N	2.834	2.162	-0.124	N.2	1	UNK0	0.000	
7	   N	1.953	1.201	0.197	N.pl3	1	UNK0	0.000	
8	   C	1.793	1.237	1.574	C.2	1	UNK0	0.000	
9	   C	2.600	2.241	2.026	C.2	1	UNK0	0.000	
10	  Br	2.760	2.750	3.871	Br	1	UNK0	0.000	
11	   C	1.078	0.296	2.421	C.3	1	UNK0	0.000	
12	   C	-0.198	0.287	3.089	C.3	1	UNK0	0.000	
13	   C	-0.307	-0.062	1.675	C.3	1	UNK0	0.000	
14	   C	1.305	0.390	-0.724	C.3	1	UNK0	0.000	
15	   C	1.742	-1.008	-0.979	C.2	1	UNK0	0.000	
16	   O	2.896	-1.428	-0.896	O.2	1	UNK0	0.000	
17	   N	0.677	-1.862	-1.350	N.pl3	1	UNK0	0.000	
18	   C	0.478	-3.200	-1.717	C.3	1	UNK0	0.000	
19	   C	-1.046	-3.270	-2.153	C.3	1	UNK0	0.000	
20	   S	-2.028	-2.431	-0.941	S.3	1	UNK0	0.000	
21	   C	-2.627	-0.960	-1.703	C.3	1	UNK0	0.000	
22	   C	-1.943	-0.420	-2.888	C.2	1	UNK0	0.000	
23	   C	-1.013	-1.073	-3.532	C.2	1	UNK0	0.000	
24	   N	-0.532	-2.359	-3.163	N.pl3	1	UNK0	0.000	
25	   C	0.481	-3.338	-3.284	C.2	1	UNK0	0.000	
26	   O	1.058	-3.970	-4.141	O.2	1	UNK0	0.000	
27	   C	-0.413	-0.534	-4.746	C.2	1	UNK0	0.000	
28	   O	-0.867	0.597	-5.180	O.co2	1	UNK0	0.000	
29	   O	0.575	-1.074	-5.480	O.co2	1	UNK0	0.000	
30	   C	-2.274	1.039	-3.086	C.3	1	UNK0	0.000	
31	   O	-2.072	1.661	-1.777	O.3	1	UNK0	0.000	
32	   C	-2.207	3.013	-1.670	C.2	1	UNK0	0.000	
33	   O	-2.500	3.702	-2.714	O.co2	1	UNK0	0.000	
34	   C	-2.028	3.770	-0.399	C.3	1	UNK0	0.000	
35	   H	1.674	-0.705	2.558	 H	1	UNK0	0.000	
36	   H	-0.756	1.185	3.419	 H	1	UNK0	0.000	
37	   H	-0.430	-0.577	3.789	 H	1	UNK0	0.000	
38	   H	-0.722	0.770	1.030	 H	1	UNK0	0.000	
39	   H	-0.396	-1.056	1.279	 H	1	UNK0	0.000	
40	   H	0.190	0.470	-0.743	 H	1	UNK0	0.000	
41	   H	1.510	0.869	-1.773	 H	1	UNK0	0.000	
42	   H	-0.268	-1.275	-1.249	 H	1	UNK0	0.000	
43	   H	0.924	-4.046	-1.303	 H	1	UNK0	0.000	
44	   H	-1.338	-4.261	-2.457	 H	1	UNK0	0.000	
45	   H	-2.657	-0.160	-0.889	 H	1	UNK0	0.000	
46	   H	-3.721	-1.071	-1.941	 H	1	UNK0	0.000	
47	   H	-1.577	1.575	-3.708	 H	1	UNK0	0.000	
48	   H	-3.300	1.140	-3.420	 H	1	UNK0	0.000	
49	   H	-1.900	4.843	-0.614	 H	1	UNK0	0.000	
50	   H	-1.066	3.435	0.087	 H	1	UNK0	0.000	
51	   H	-2.843	3.586	0.332	 H	1	UNK0	0.000	
@<TRIPOS>BOND
1 1 2 1
2 2 3 1
3 2 4 1
4 2 5 1
5 5 6 2
6 5 9 1
7 6 7 1
8 7 8 1
9 7 14 1
10 8 9 2
11 8 11 1
12 9 10 1
13 11 12 1
14 11 13 1
15 12 13 1
16 14 15 1
17 15 16 2
18 15 17 1
19 17 18 1
20 18 19 1
21 18 25 1
22 19 20 1
23 19 24 1
24 20 21 1
25 21 22 1
26 22 23 2
27 22 30 1
28 23 24 1
29 23 27 1
30 24 25 1
31 25 26 2
32 27 28 2
33 27 29 1
34 30 31 1
35 31 32 1
36 32 33 2
37 32 34 1
38 11 35 1
39 12 36 1
40 12 37 1
41 13 38 1
42 13 39 1
43 14 40 1
44 14 41 1
45 17 42 1
46 18 43 1
47 19 44 1
48 21 45 1
49 21 46 1
50 30 47 1
51 30 48 1
52 34 49 1
53 34 50 1
54 34 51 1
@<TRIPOS>SUBSTRUCTURE
1	UNK0	1	GROUP	1 ****	UNK
