# created with PyMOL 2.3.2
@<TRIPOS>MOLECULE
2089
58 61 1                 
SMALL
USER_CHARGES
@<TRIPOS>ATOM
1	  Br	7.312	0.077	0.664	Br	1	UNK0	0.000	
2	   C	5.474	-0.182	1.097	C.2	1	UNK0	0.000	
3	   C	4.602	-0.828	0.251	C.2	1	UNK0	0.000	
4	   C	3.244	-1.022	0.565	C.2	1	UNK0	0.000	
5	   C	2.844	-0.521	1.777	C.2	1	UNK0	0.000	
6	   C	3.716	0.138	2.651	C.2	1	UNK0	0.000	
7	   C	5.034	0.307	2.308	C.2	1	UNK0	0.000	
8	   C	2.362	-1.690	-0.357	C.3	1	UNK0	0.000	
9	   N	1.653	-2.848	0.067	N.pl3	1	UNK0	0.000	
10	   C	0.598	-3.042	-0.912	C.2	1	UNK0	0.000	
11	   O	-0.025	-4.092	-1.184	O.2	1	UNK0	0.000	
12	   C	0.363	-1.756	-1.565	C.2	1	UNK0	0.000	
13	   O	-0.474	-1.500	-2.470	O.2	1	UNK0	0.000	
14	   C	1.300	-0.828	-0.949	C.2	1	UNK0	0.000	
15	   C	1.158	0.488	-0.928	C.2	1	UNK0	0.000	
16	   O	2.176	1.188	-0.227	O.2	1	UNK0	0.000	
17	   C	0.076	1.223	-1.557	C.2	1	UNK0	0.000	
18	   C	-0.797	2.124	-0.984	C.2	1	UNK0	0.000	
19	   N	-1.629	2.645	-1.902	N.pl3	1	UNK0	0.000	
20	   N	-1.302	2.092	-3.054	N.2	1	UNK0	0.000	
21	   C	-0.269	1.223	-2.882	C.2	1	UNK0	0.000	
22	   C	-2.672	3.616	-1.670	C.2	1	UNK0	0.000	
23	   C	-4.003	3.307	-1.829	C.2	1	UNK0	0.000	
24	   C	-4.972	4.264	-1.597	C.2	1	UNK0	0.000	
25	   C	-4.646	5.550	-1.203	C.2	1	UNK0	0.000	
26	   C	-3.305	5.868	-1.042	C.2	1	UNK0	0.000	
27	   C	-2.358	4.896	-1.279	C.2	1	UNK0	0.000	
28	   C	-0.817	2.475	0.456	C.3	1	UNK0	0.000	
29	   C	1.831	-3.782	1.154	C.3	1	UNK0	0.000	
30	   C	1.034	-3.541	2.381	C.3	1	UNK0	0.000	
31	   N	-0.409	-3.577	2.155	N.4	1	UNK0	0.000	
32	   C	-0.966	-2.336	1.737	C.3	1	UNK0	0.000	
33	   C	-1.073	-3.967	3.397	C.3	1	UNK0	0.000	
34	   H	4.973	-1.207	-0.703	 H	1	UNK0	0.000	
35	   H	1.814	-0.622	2.063	 H	1	UNK0	0.000	
36	   H	3.378	0.525	3.604	 H	1	UNK0	0.000	
37	   H	5.697	0.818	2.992	 H	1	UNK0	0.000	
38	   H	3.011	-2.046	-1.233	 H	1	UNK0	0.000	
39	   H	0.161	0.678	-3.736	 H	1	UNK0	0.000	
40	   H	-4.250	2.302	-2.136	 H	1	UNK0	0.000	
41	   H	-6.021	4.030	-1.719	 H	1	UNK0	0.000	
42	   H	-5.361	6.317	-1.014	 H	1	UNK0	0.000	
43	   H	-3.039	6.874	-0.733	 H	1	UNK0	0.000	
44	   H	-1.324	5.170	-1.146	 H	1	UNK0	0.000	
45	   H	0.204	2.764	0.767	 H	1	UNK0	0.000	
46	   H	-1.463	3.355	0.651	 H	1	UNK0	0.000	
47	   H	-1.179	1.646	1.092	 H	1	UNK0	0.000	
48	   H	1.712	-4.843	0.806	 H	1	UNK0	0.000	
49	   H	2.918	-3.704	1.454	 H	1	UNK0	0.000	
50	   H	1.259	-2.659	2.968	 H	1	UNK0	0.000	
51	   H	1.218	-4.405	3.113	 H	1	UNK0	0.000	
52	   H	-0.562	-4.380	1.488	 H	1	UNK0	0.000	
53	   H	-0.247	-1.564	1.411	 H	1	UNK0	0.000	
54	   H	-1.655	-2.482	0.852	 H	1	UNK0	0.000	
55	   H	-1.575	-1.862	2.536	 H	1	UNK0	0.000	
56	   H	-0.343	-4.420	4.116	 H	1	UNK0	0.000	
57	   H	-1.842	-4.715	3.199	 H	1	UNK0	0.000	
58	   H	-1.528	-3.079	3.868	 H	1	UNK0	0.000	
@<TRIPOS>BOND
1 1 2 1
2 2 3 2
3 2 7 1
4 3 4 1
5 4 5 2
6 4 8 1
7 5 6 1
8 6 7 2
9 8 9 1
10 8 14 1
11 9 10 1
12 9 29 1
13 10 11 2
14 10 12 1
15 12 13 2
16 12 14 1
17 14 15 2
18 15 16 1
19 15 17 1
20 17 18 2
21 17 21 1
22 18 19 1
23 18 28 1
24 19 20 1
25 19 22 1
26 20 21 2
27 22 23 2
28 22 27 1
29 23 24 1
30 24 25 2
31 25 26 1
32 26 27 2
33 29 30 1
34 30 31 1
35 31 32 1
36 31 33 1
37 3 34 1
38 5 35 1
39 6 36 1
40 7 37 1
41 8 38 1
42 21 39 1
43 23 40 1
44 24 41 1
45 25 42 1
46 26 43 1
47 27 44 1
48 28 45 1
49 28 46 1
50 28 47 1
51 29 48 1
52 29 49 1
53 30 50 1
54 30 51 1
55 31 52 1
56 32 53 1
57 32 54 1
58 32 55 1
59 33 56 1
60 33 57 1
61 33 58 1
@<TRIPOS>SUBSTRUCTURE
1	UNK0	1	GROUP	1 ****	UNK
