# created with PyMOL 2.3.2
@<TRIPOS>MOLECULE
2090
52 55 1                 
SMALL
USER_CHARGES
@<TRIPOS>ATOM
1	  Br	1.558	5.238	-2.566	Br	1	UNK0	0.000	
2	   C	0.948	3.927	-1.322	C.2	1	UNK0	0.000	
3	   C	-0.187	4.199	-0.603	C.2	1	UNK0	0.000	
4	   C	-0.604	3.209	0.304	C.2	1	UNK0	0.000	
5	   C	0.053	2.026	0.493	C.2	1	UNK0	0.000	
6	   C	1.202	1.836	-0.282	C.2	1	UNK0	0.000	
7	   C	1.665	2.763	-1.189	C.2	1	UNK0	0.000	
8	   C	-0.352	0.953	1.439	C.3	1	UNK0	0.000	
9	   N	-1.079	-0.115	0.828	N.pl3	1	UNK0	0.000	
10	   C	-2.440	-0.144	0.711	C.2	1	UNK0	0.000	
11	   C	-2.732	-1.326	0.058	C.2	1	UNK0	0.000	
12	   N	-1.600	-1.959	-0.193	N.2	1	UNK0	0.000	
13	   C	-0.548	-1.218	0.283	C.2	1	UNK0	0.000	
14	   N	0.812	-1.603	0.212	N.pl3	1	UNK0	0.000	
15	   C	1.665	-1.896	1.341	C.3	1	UNK0	0.000	
16	   C	3.013	-1.210	1.258	C.3	1	UNK0	0.000	
17	   N	3.479	-1.258	-0.070	N.3	1	UNK0	0.000	
18	   C	2.863	-2.193	-0.959	C.3	1	UNK0	0.000	
19	   C	1.402	-1.762	-1.102	C.3	1	UNK0	0.000	
20	   C	4.880	-1.080	-0.284	C.3	1	UNK0	0.000	
21	   C	5.255	0.305	0.021	C.2	1	UNK0	0.000	
22	   O	4.411	1.132	0.398	O.2	1	UNK0	0.000	
23	   N	6.604	0.711	-0.116	N.pl3	1	UNK0	0.000	
24	   N	-4.017	-1.669	-0.211	N.pl3	1	UNK0	0.000	
25	   C	-4.977	-0.824	0.181	C.2	1	UNK0	0.000	
26	   O	-6.175	-1.169	-0.084	O.2	1	UNK0	0.000	
27	   N	-4.749	0.319	0.812	N.pl3	1	UNK0	0.000	
28	   C	-3.464	0.688	1.094	C.2	1	UNK0	0.000	
29	   O	-3.220	1.752	1.689	O.2	1	UNK0	0.000	
30	   C	-4.334	-2.923	-0.910	C.3	1	UNK0	0.000	
31	   H	-0.746	5.117	-0.715	 H	1	UNK0	0.000	
32	   H	-1.475	3.439	0.868	 H	1	UNK0	0.000	
33	   H	1.758	0.937	-0.167	 H	1	UNK0	0.000	
34	   H	2.569	2.578	-1.782	 H	1	UNK0	0.000	
35	   H	-0.942	1.476	2.237	 H	1	UNK0	0.000	
36	   H	0.613	0.621	1.910	 H	1	UNK0	0.000	
37	   H	1.831	-3.012	1.387	 H	1	UNK0	0.000	
38	   H	1.211	-1.653	2.322	 H	1	UNK0	0.000	
39	   H	3.663	-1.727	2.000	 H	1	UNK0	0.000	
40	   H	2.924	-0.159	1.606	 H	1	UNK0	0.000	
41	   H	2.917	-3.243	-0.612	 H	1	UNK0	0.000	
42	   H	3.345	-2.140	-1.934	 H	1	UNK0	0.000	
43	   H	0.855	-2.596	-1.604	 H	1	UNK0	0.000	
44	   H	1.349	-0.826	-1.652	 H	1	UNK0	0.000	
45	   H	5.512	-1.828	0.242	 H	1	UNK0	0.000	
46	   H	5.055	-1.237	-1.390	 H	1	UNK0	0.000	
47	   H	7.041	1.446	0.504	 H	1	UNK0	0.000	
48	   H	7.168	0.246	-0.874	 H	1	UNK0	0.000	
49	   H	-5.554	0.925	1.084	 H	1	UNK0	0.000	
50	   H	-5.084	-3.512	-0.379	 H	1	UNK0	0.000	
51	   H	-3.380	-3.495	-0.977	 H	1	UNK0	0.000	
52	   H	-4.680	-2.686	-1.938	 H	1	UNK0	0.000	
@<TRIPOS>BOND
1 1 2 1
2 2 3 2
3 2 7 1
4 3 4 1
5 4 5 2
6 5 6 1
7 5 8 1
8 6 7 2
9 8 9 1
10 9 10 1
11 9 13 1
12 10 11 2
13 10 28 1
14 11 12 1
15 11 24 1
16 12 13 2
17 13 14 1
18 14 15 1
19 14 19 1
20 15 16 1
21 16 17 1
22 17 18 1
23 17 20 1
24 18 19 1
25 20 21 1
26 21 22 2
27 21 23 1
28 24 25 1
29 24 30 1
30 25 26 2
31 25 27 1
32 27 28 1
33 28 29 2
34 3 31 1
35 4 32 1
36 6 33 1
37 7 34 1
38 8 35 1
39 8 36 1
40 15 37 1
41 15 38 1
42 16 39 1
43 16 40 1
44 18 41 1
45 18 42 1
46 19 43 1
47 19 44 1
48 20 45 1
49 20 46 1
50 23 47 1
51 23 48 1
52 27 49 1
53 30 50 1
54 30 51 1
55 30 52 1
@<TRIPOS>SUBSTRUCTURE
1	UNK0	1	GROUP	1 ****	UNK
