# created with PyMOL 2.3.2
@<TRIPOS>MOLECULE
2092
45 48 1                 
SMALL
USER_CHARGES
@<TRIPOS>ATOM
1	  Br	-2.307	-3.140	-5.850	Br	1	UNK0	0.000	
2	   C	-2.105	-1.833	-4.477	C.2	1	UNK0	0.000	
3	   C	-3.134	-1.517	-3.631	C.2	1	UNK0	0.000	
4	   C	-2.977	-0.554	-2.617	C.2	1	UNK0	0.000	
5	   C	-1.798	0.108	-2.425	C.2	1	UNK0	0.000	
6	   C	-0.752	-0.213	-3.283	C.2	1	UNK0	0.000	
7	   C	-0.914	-1.152	-4.269	C.2	1	UNK0	0.000	
8	   C	-1.619	1.131	-1.364	C.3	1	UNK0	0.000	
9	   N	-1.183	0.608	-0.089	N.pl3	1	UNK0	0.000	
10	   C	-1.959	0.285	0.970	C.2	1	UNK0	0.000	
11	   C	-1.133	-0.208	1.965	C.2	1	UNK0	0.000	
12	   N	0.088	-0.164	1.477	N.2	1	UNK0	0.000	
13	   C	0.120	0.331	0.212	C.2	1	UNK0	0.000	
14	   N	1.250	0.487	-0.604	N.pl3	1	UNK0	0.000	
15	   C	1.934	-0.700	-1.060	C.3	1	UNK0	0.000	
16	   C	3.345	-0.562	-0.482	C.3	1	UNK0	0.000	
17	   N	3.557	0.635	0.226	N.3	1	UNK0	0.000	
18	   C	3.152	1.865	-0.335	C.3	1	UNK0	0.000	
19	   C	1.809	1.719	-1.039	C.3	1	UNK0	0.000	
20	   N	-1.687	-0.599	3.136	N.pl3	1	UNK0	0.000	
21	   C	-2.998	-0.516	3.348	C.2	1	UNK0	0.000	
22	   O	-3.471	-0.896	4.457	O.2	1	UNK0	0.000	
23	   N	-3.836	-0.034	2.396	N.pl3	1	UNK0	0.000	
24	   C	-3.328	0.364	1.218	C.2	1	UNK0	0.000	
25	   O	-4.065	0.819	0.315	O.2	1	UNK0	0.000	
26	   C	-0.747	-1.107	4.118	C.3	1	UNK0	0.000	
27	   H	-4.114	-2.008	-3.723	 H	1	UNK0	0.000	
28	   H	-3.846	-0.359	-1.995	 H	1	UNK0	0.000	
29	   H	0.171	0.329	-3.125	 H	1	UNK0	0.000	
30	   H	-0.075	-1.389	-4.932	 H	1	UNK0	0.000	
31	   H	-0.969	1.973	-1.723	 H	1	UNK0	0.000	
32	   H	-2.610	1.625	-1.255	 H	1	UNK0	0.000	
33	   H	1.437	-1.627	-0.729	 H	1	UNK0	0.000	
34	   H	2.077	-0.736	-2.169	 H	1	UNK0	0.000	
35	   H	3.441	-1.408	0.253	 H	1	UNK0	0.000	
36	   H	4.123	-0.715	-1.242	 H	1	UNK0	0.000	
37	   H	3.601	0.567	1.257	 H	1	UNK0	0.000	
38	   H	3.007	2.633	0.450	 H	1	UNK0	0.000	
39	   H	3.912	2.317	-1.030	 H	1	UNK0	0.000	
40	   H	1.180	2.617	-0.923	 H	1	UNK0	0.000	
41	   H	2.077	1.702	-2.139	 H	1	UNK0	0.000	
42	   H	-4.884	0.032	2.565	 H	1	UNK0	0.000	
43	   H	-1.324	-1.401	5.019	 H	1	UNK0	0.000	
44	   H	0.024	-0.354	4.388	 H	1	UNK0	0.000	
45	   H	-0.274	-2.058	3.756	 H	1	UNK0	0.000	
@<TRIPOS>BOND
1 1 2 1
2 2 3 2
3 2 7 1
4 3 4 1
5 4 5 2
6 5 6 1
7 5 8 1
8 6 7 2
9 8 9 1
10 9 10 1
11 9 13 1
12 10 11 2
13 10 24 1
14 11 12 1
15 11 20 1
16 12 13 2
17 13 14 1
18 14 15 1
19 14 19 1
20 15 16 1
21 16 17 1
22 17 18 1
23 18 19 1
24 20 21 1
25 20 26 1
26 21 22 2
27 21 23 1
28 23 24 1
29 24 25 2
30 3 27 1
31 4 28 1
32 6 29 1
33 7 30 1
34 8 31 1
35 8 32 1
36 15 33 1
37 15 34 1
38 16 35 1
39 16 36 1
40 17 37 1
41 18 38 1
42 18 39 1
43 19 40 1
44 19 41 1
45 23 42 1
46 26 43 1
47 26 44 1
48 26 45 1
@<TRIPOS>SUBSTRUCTURE
1	UNK0	1	GROUP	1 ****	UNK
