# created with PyMOL 2.3.2
@<TRIPOS>MOLECULE
2093
53 56 1                 
SMALL
USER_CHARGES
@<TRIPOS>ATOM
1	  Br	-5.963	7.148	-2.228	Br	1	UNK0	0.000	
2	   C	-4.344	6.159	-2.499	C.2	1	UNK0	0.000	
3	   C	-3.341	6.176	-1.564	C.2	1	UNK0	0.000	
4	   C	-2.197	5.453	-1.798	C.2	1	UNK0	0.000	
5	   C	-1.982	4.694	-2.935	C.2	1	UNK0	0.000	
6	   C	-3.022	4.702	-3.861	C.2	1	UNK0	0.000	
7	   C	-4.182	5.417	-3.654	C.2	1	UNK0	0.000	
8	   C	-0.758	3.921	-3.187	C.3	1	UNK0	0.000	
9	   N	-0.804	2.557	-2.682	N.pl3	1	UNK0	0.000	
10	   C	-1.256	1.526	-3.428	C.2	1	UNK0	0.000	
11	   O	-1.656	1.760	-4.618	O.2	1	UNK0	0.000	
12	   N	-1.293	0.269	-2.947	N.pl3	1	UNK0	0.000	
13	   C	-0.889	-0.056	-1.706	C.2	1	UNK0	0.000	
14	   N	-0.816	-1.182	-0.985	N.2	1	UNK0	0.000	
15	   C	-0.320	-0.931	0.240	C.2	1	UNK0	0.000	
16	   N	-0.085	0.388	0.263	N.pl3	1	UNK0	0.000	
17	   C	-0.419	0.967	-0.907	C.2	1	UNK0	0.000	
18	   C	-0.396	2.243	-1.433	C.2	1	UNK0	0.000	
19	   O	0.025	3.177	-0.728	O.2	1	UNK0	0.000	
20	   C	0.458	1.116	1.392	C.3	1	UNK0	0.000	
21	   N	-0.113	-1.913	1.257	N.pl3	1	UNK0	0.000	
22	   N	0.398	-1.608	2.505	N.pl3	1	UNK0	0.000	
23	   C	-0.584	-1.359	3.511	C.3	1	UNK0	0.000	
24	   C	-0.901	-2.585	4.350	C.3	1	UNK0	0.000	
25	   N	0.246	-3.078	5.054	N.3	1	UNK0	0.000	
26	   C	1.455	-2.620	4.394	C.3	1	UNK0	0.000	
27	   C	1.251	-2.707	2.914	C.3	1	UNK0	0.000	
28	   C	0.303	-4.517	5.123	C.3	1	UNK0	0.000	
29	   C	-1.790	-0.799	-3.797	C.3	1	UNK0	0.000	
30	   H	-3.472	6.751	-0.672	 H	1	UNK0	0.000	
31	   H	-1.414	5.475	-1.057	 H	1	UNK0	0.000	
32	   H	-2.972	4.146	-4.796	 H	1	UNK0	0.000	
33	   H	-5.003	5.434	-4.367	 H	1	UNK0	0.000	
34	   H	-0.637	3.864	-4.308	 H	1	UNK0	0.000	
35	   H	0.145	4.458	-2.833	 H	1	UNK0	0.000	
36	   H	-0.363	1.331	2.128	 H	1	UNK0	0.000	
37	   H	1.261	0.515	1.905	 H	1	UNK0	0.000	
38	   H	0.936	2.056	1.086	 H	1	UNK0	0.000	
39	   H	-0.349	-2.904	1.072	 H	1	UNK0	0.000	
40	   H	-0.251	-0.568	4.245	 H	1	UNK0	0.000	
41	   H	-1.557	-0.988	3.115	 H	1	UNK0	0.000	
42	   H	-1.649	-2.249	5.107	 H	1	UNK0	0.000	
43	   H	-1.366	-3.388	3.773	 H	1	UNK0	0.000	
44	   H	2.310	-3.261	4.726	 H	1	UNK0	0.000	
45	   H	1.642	-1.566	4.682	 H	1	UNK0	0.000	
46	   H	0.708	-3.645	2.617	 H	1	UNK0	0.000	
47	   H	2.199	-2.605	2.334	 H	1	UNK0	0.000	
48	   H	1.072	-4.771	5.892	 H	1	UNK0	0.000	
49	   H	0.632	-4.990	4.176	 H	1	UNK0	0.000	
50	   H	-0.663	-4.985	5.402	 H	1	UNK0	0.000	
51	   H	-1.871	-0.466	-4.854	 H	1	UNK0	0.000	
52	   H	-1.094	-1.663	-3.722	 H	1	UNK0	0.000	
53	   H	-2.767	-1.125	-3.394	 H	1	UNK0	0.000	
@<TRIPOS>BOND
1 1 2 1
2 2 3 2
3 2 7 1
4 3 4 1
5 4 5 2
6 5 6 1
7 5 8 1
8 6 7 2
9 8 9 1
10 9 10 1
11 9 18 1
12 10 11 2
13 10 12 1
14 12 13 1
15 12 29 1
16 13 14 1
17 13 17 2
18 14 15 2
19 15 16 1
20 15 21 1
21 16 17 1
22 16 20 1
23 17 18 1
24 18 19 2
25 21 22 1
26 22 23 1
27 22 27 1
28 23 24 1
29 24 25 1
30 25 26 1
31 25 28 1
32 26 27 1
33 3 30 1
34 4 31 1
35 6 32 1
36 7 33 1
37 8 34 1
38 8 35 1
39 20 36 1
40 20 37 1
41 20 38 1
42 21 39 1
43 23 40 1
44 23 41 1
45 24 42 1
46 24 43 1
47 26 44 1
48 26 45 1
49 27 46 1
50 27 47 1
51 28 48 1
52 28 49 1
53 28 50 1
54 29 51 1
55 29 52 1
56 29 53 1
@<TRIPOS>SUBSTRUCTURE
1	UNK0	1	GROUP	1 ****	UNK
