# created with PyMOL 2.3.2
@<TRIPOS>MOLECULE
2095
44 47 1                 
SMALL
USER_CHARGES
@<TRIPOS>ATOM
1	  Cl	-2.065	3.796	1.393	Cl	1	UNK0	0.000	
2	   C	-1.549	4.399	-0.181	C.2	1	UNK0	0.000	
3	   C	-1.301	3.479	-1.168	C.2	1	UNK0	0.000	
4	   C	-0.897	3.952	-2.401	C.2	1	UNK0	0.000	
5	   C	-0.742	5.310	-2.644	C.2	1	UNK0	0.000	
6	   C	-0.993	6.222	-1.646	C.2	1	UNK0	0.000	
7	   C	-1.403	5.758	-0.397	C.2	1	UNK0	0.000	
8	  Cl	-0.812	7.933	-1.915	Cl	1	UNK0	0.000	
9	   N	-1.463	2.095	-0.905	N.pl3	1	UNK0	0.000	
10	   C	-0.613	1.455	0.052	C.2	1	UNK0	0.000	
11	   O	0.253	2.176	0.622	O.2	1	UNK0	0.000	
12	   C	-0.744	0.022	0.357	C.2	1	UNK0	0.000	
13	   C	-1.644	-0.754	-0.225	C.2	1	UNK0	0.000	
14	   C	-2.526	-0.132	-1.206	C.2	1	UNK0	0.000	
15	   O	-3.378	-0.880	-1.755	O.2	1	UNK0	0.000	
16	   C	-2.439	1.285	-1.548	C.2	1	UNK0	0.000	
17	   O	-3.211	1.801	-2.397	O.2	1	UNK0	0.000	
18	   C	-1.755	-2.190	0.097	C.2	1	UNK0	0.000	
19	   N	-2.047	-3.200	-0.739	N.2	1	UNK0	0.000	
20	   C	-2.055	-4.368	-0.066	C.2	1	UNK0	0.000	
21	   C	-1.747	-4.015	1.248	C.2	1	UNK0	0.000	
22	   O	-1.583	-2.713	1.268	O.3	1	UNK0	0.000	
23	   C	-1.683	-5.021	2.178	C.2	1	UNK0	0.000	
24	   C	-1.913	-6.345	1.837	C.2	1	UNK0	0.000	
25	   C	-2.220	-6.703	0.531	C.2	1	UNK0	0.000	
26	   C	-2.282	-5.687	-0.394	C.2	1	UNK0	0.000	
27	   N	0.117	-0.565	1.309	N.pl3	1	UNK0	0.000	
28	   N	1.497	-0.606	1.146	N.pl3	1	UNK0	0.000	
29	   C	2.347	-0.822	2.255	C.2	1	UNK0	0.000	
30	   O	1.857	-0.981	3.404	O.2	1	UNK0	0.000	
31	   N	3.755	-0.868	2.113	N.pl3	1	UNK0	0.000	
32	   N	4.587	-1.082	3.214	N.pl3	1	UNK0	0.000	
33	   H	-0.689	3.270	-3.216	 H	1	UNK0	0.000	
34	   H	-0.426	5.687	-3.607	 H	1	UNK0	0.000	
35	   H	-1.600	6.474	0.389	 H	1	UNK0	0.000	
36	   H	-1.443	-4.737	3.195	 H	1	UNK0	0.000	
37	   H	-1.857	-7.129	2.593	 H	1	UNK0	0.000	
38	   H	-2.391	-7.749	0.319	 H	1	UNK0	0.000	
39	   H	-2.519	-5.944	-1.413	 H	1	UNK0	0.000	
40	   H	-0.290	-0.984	2.165	 H	1	UNK0	0.000	
41	   H	1.955	-0.479	0.206	 H	1	UNK0	0.000	
42	   H	4.198	-0.742	1.187	 H	1	UNK0	0.000	
43	   H	4.327	-0.428	4.005	 H	1	UNK0	0.000	
44	   H	4.591	-2.077	3.529	 H	1	UNK0	0.000	
@<TRIPOS>BOND
1 1 2 1
2 2 3 2
3 2 7 1
4 3 4 1
5 3 9 1
6 4 5 2
7 5 6 1
8 6 7 2
9 6 8 1
10 9 10 1
11 9 16 1
12 10 11 2
13 10 12 1
14 12 13 2
15 12 27 1
16 13 14 1
17 13 18 1
18 14 15 2
19 14 16 1
20 16 17 2
21 18 19 2
22 18 22 1
23 19 20 1
24 20 21 2
25 20 26 1
26 21 22 1
27 21 23 1
28 23 24 2
29 24 25 1
30 25 26 2
31 27 28 1
32 28 29 1
33 29 30 2
34 29 31 1
35 31 32 1
36 4 33 1
37 5 34 1
38 7 35 1
39 23 36 1
40 24 37 1
41 25 38 1
42 26 39 1
43 27 40 1
44 28 41 1
45 31 42 1
46 32 43 1
47 32 44 1
@<TRIPOS>SUBSTRUCTURE
1	UNK0	1	GROUP	1 ****	UNK
