# created with PyMOL 2.3.2
@<TRIPOS>MOLECULE
2096
43 46 1                 
SMALL
USER_CHARGES
@<TRIPOS>ATOM
1	  Cl	4.893	0.585	-2.312	Cl	1	UNK0	0.000	
2	   C	4.673	1.695	-0.975	C.2	1	UNK0	0.000	
3	   C	4.090	1.142	0.179	C.2	1	UNK0	0.000	
4	   C	3.917	2.043	1.247	C.2	1	UNK0	0.000	
5	   C	4.292	3.360	1.161	C.2	1	UNK0	0.000	
6	   C	4.861	3.852	0.001	C.2	1	UNK0	0.000	
7	   C	5.049	3.007	-1.070	C.2	1	UNK0	0.000	
8	  Cl	5.331	5.533	-0.089	Cl	1	UNK0	0.000	
9	   O	3.723	-0.093	0.308	O.3	1	UNK0	0.000	
10	   C	3.358	-1.318	0.437	C.3	1	UNK0	0.000	
11	   C	2.007	-1.809	0.687	C.2	1	UNK0	0.000	
12	   O	1.983	-3.124	0.836	O.2	1	UNK0	0.000	
13	   N	0.772	-1.194	0.795	N.pl3	1	UNK0	0.000	
14	   C	0.556	0.211	0.657	C.3	1	UNK0	0.000	
15	   C	-0.136	0.338	-0.721	C.3	1	UNK0	0.000	
16	   N	-1.425	-0.340	-0.512	N.pl3	1	UNK0	0.000	
17	   C	-1.640	-1.414	0.394	C.3	1	UNK0	0.000	
18	   C	-0.442	-1.974	1.063	C.3	1	UNK0	0.000	
19	   C	-2.515	0.140	-1.290	C.2	1	UNK0	0.000	
20	   N	-2.386	1.122	-2.203	N.2	1	UNK0	0.000	
21	   N	-3.390	1.582	-2.931	N.pl3	1	UNK0	0.000	
22	   C	-4.634	1.079	-2.795	C.2	1	UNK0	0.000	
23	   N	-5.460	1.725	-3.652	N.2	1	UNK0	0.000	
24	   N	-4.735	2.625	-4.318	N.2	1	UNK0	0.000	
25	   C	-3.470	2.535	-3.875	C.2	1	UNK0	0.000	
26	   C	-4.837	0.082	-1.888	C.2	1	UNK0	0.000	
27	   C	-3.787	-0.397	-1.128	C.2	1	UNK0	0.000	
28	   H	3.473	1.676	2.163	 H	1	UNK0	0.000	
29	   H	4.164	4.064	1.975	 H	1	UNK0	0.000	
30	   H	5.493	3.411	-1.962	 H	1	UNK0	0.000	
31	   H	3.806	-2.017	-0.389	 H	1	UNK0	0.000	
32	   H	3.964	-1.788	1.336	 H	1	UNK0	0.000	
33	   H	1.400	0.867	0.697	 H	1	UNK0	0.000	
34	   H	-0.212	0.542	1.441	 H	1	UNK0	0.000	
35	   H	-0.242	1.370	-1.034	 H	1	UNK0	0.000	
36	   H	0.437	-0.309	-1.413	 H	1	UNK0	0.000	
37	   H	-2.445	-1.140	1.130	 H	1	UNK0	0.000	
38	   H	-2.105	-2.251	-0.207	 H	1	UNK0	0.000	
39	   H	-0.230	-3.033	0.819	 H	1	UNK0	0.000	
40	   H	-0.595	-1.919	2.161	 H	1	UNK0	0.000	
41	   H	-2.664	3.151	-4.245	 H	1	UNK0	0.000	
42	   H	-5.832	-0.350	-1.752	 H	1	UNK0	0.000	
43	   H	-3.918	-1.191	-0.398	 H	1	UNK0	0.000	
@<TRIPOS>BOND
1 1 2 1
2 2 3 2
3 2 7 1
4 3 4 1
5 3 9 1
6 4 5 2
7 5 6 1
8 6 7 2
9 6 8 1
10 9 10 1
11 10 11 1
12 11 12 2
13 11 13 1
14 13 14 1
15 13 18 1
16 14 15 1
17 15 16 1
18 16 17 1
19 16 19 1
20 17 18 1
21 19 20 2
22 19 27 1
23 20 21 1
24 21 22 1
25 21 25 1
26 22 23 2
27 22 26 1
28 23 24 1
29 24 25 2
30 26 27 2
31 4 28 1
32 5 29 1
33 7 30 1
34 10 31 1
35 10 32 1
36 14 33 1
37 14 34 1
38 15 35 1
39 15 36 1
40 17 37 1
41 17 38 1
42 18 39 1
43 18 40 1
44 25 41 1
45 26 42 1
46 27 43 1
@<TRIPOS>SUBSTRUCTURE
1	UNK0	1	GROUP	1 ****	UNK
