# created with PyMOL 2.3.2
@<TRIPOS>MOLECULE
2101
54 57 1                 
SMALL
USER_CHARGES
@<TRIPOS>ATOM
1	  Cl	-3.678	2.501	-1.187	Cl	1	UNK0	0.000	
2	   C	-2.374	2.514	-2.358	C.2	1	UNK0	0.000	
3	   C	-1.087	2.728	-1.963	C.2	1	UNK0	0.000	
4	   C	-0.116	2.712	-2.983	C.2	1	UNK0	0.000	
5	   C	-0.419	2.500	-4.281	C.2	1	UNK0	0.000	
6	   C	-1.731	2.285	-4.667	C.2	1	UNK0	0.000	
7	   C	-2.693	2.295	-3.699	C.2	1	UNK0	0.000	
8	  Cl	-2.071	2.009	-6.368	Cl	1	UNK0	0.000	
9	   O	-0.707	2.949	-0.686	O.3	1	UNK0	0.000	
10	   C	-1.333	3.034	0.493	C.2	1	UNK0	0.000	
11	   C	-0.797	2.551	1.632	C.2	1	UNK0	0.000	
12	   N	0.480	1.938	1.536	N.pl3	1	UNK0	0.000	
13	   N	0.681	0.617	1.977	N.pl3	1	UNK0	0.000	
14	   C	0.515	-0.491	1.089	C.2	1	UNK0	0.000	
15	   N	1.424	-1.252	0.505	N.pl3	1	UNK0	0.000	
16	   C	0.727	-2.150	-0.254	C.2	1	UNK0	0.000	
17	   N	1.086	-3.146	-1.050	N.2	1	UNK0	0.000	
18	   C	0.183	-3.899	-1.699	C.2	1	UNK0	0.000	
19	   N	-1.141	-3.653	-1.551	N.2	1	UNK0	0.000	
20	   C	-1.592	-2.665	-0.765	C.2	1	UNK0	0.000	
21	   C	-0.627	-1.905	-0.108	C.2	1	UNK0	0.000	
22	   N	-0.744	-0.876	0.725	N.2	1	UNK0	0.000	
23	   N	-2.966	-2.387	-0.598	N.pl3	1	UNK0	0.000	
24	   C	2.830	-1.176	0.645	C.3	1	UNK0	0.000	
25	   O	3.364	0.113	0.454	O.3	1	UNK0	0.000	
26	   C	4.699	-0.166	0.787	C.3	1	UNK0	0.000	
27	   C	5.035	-1.382	-0.070	C.3	1	UNK0	0.000	
28	   C	3.630	-1.938	-0.383	C.3	1	UNK0	0.000	
29	   O	3.646	-3.298	-0.204	O.3	1	UNK0	0.000	
30	   O	5.804	-2.304	0.627	O.3	1	UNK0	0.000	
31	   C	5.629	0.983	0.509	C.3	1	UNK0	0.000	
32	   O	6.951	0.666	0.859	O.3	1	UNK0	0.000	
33	   C	-1.512	2.663	2.917	C.3	1	UNK0	0.000	
34	   H	0.910	2.887	-2.652	 H	1	UNK0	0.000	
35	   H	0.374	2.498	-5.037	 H	1	UNK0	0.000	
36	   H	-3.722	2.136	-3.964	 H	1	UNK0	0.000	
37	   H	-2.295	3.487	0.607	 H	1	UNK0	0.000	
38	   H	1.263	2.487	1.132	 H	1	UNK0	0.000	
39	   H	0.964	0.392	2.970	 H	1	UNK0	0.000	
40	   H	0.532	-4.716	-2.352	 H	1	UNK0	0.000	
41	   H	-3.373	-1.477	-0.871	 H	1	UNK0	0.000	
42	   H	-3.585	-3.113	-0.196	 H	1	UNK0	0.000	
43	   H	3.210	-1.509	1.636	 H	1	UNK0	0.000	
44	   H	4.671	-0.426	1.880	 H	1	UNK0	0.000	
45	   H	5.516	-1.000	-0.984	 H	1	UNK0	0.000	
46	   H	3.326	-1.620	-1.418	 H	1	UNK0	0.000	
47	   H	3.259	-3.557	0.671	 H	1	UNK0	0.000	
48	   H	5.256	-3.087	0.827	 H	1	UNK0	0.000	
49	   H	5.631	1.158	-0.592	 H	1	UNK0	0.000	
50	   H	5.318	1.918	0.996	 H	1	UNK0	0.000	
51	   H	7.022	0.309	1.773	 H	1	UNK0	0.000	
52	   H	-0.899	2.157	3.702	 H	1	UNK0	0.000	
53	   H	-1.758	3.705	3.205	 H	1	UNK0	0.000	
54	   H	-2.466	2.066	2.864	 H	1	UNK0	0.000	
@<TRIPOS>BOND
1 1 2 1
2 2 3 2
3 2 7 1
4 3 4 1
5 3 9 1
6 4 5 2
7 5 6 1
8 6 7 2
9 6 8 1
10 9 10 1
11 10 11 2
12 11 12 1
13 11 33 1
14 12 13 1
15 13 14 1
16 14 15 1
17 14 22 2
18 15 16 1
19 15 24 1
20 16 17 2
21 16 21 1
22 17 18 1
23 18 19 2
24 19 20 1
25 20 21 2
26 20 23 1
27 21 22 1
28 24 25 1
29 24 28 1
30 25 26 1
31 26 27 1
32 26 31 1
33 27 28 1
34 27 30 1
35 28 29 1
36 31 32 1
37 4 34 1
38 5 35 1
39 7 36 1
40 10 37 1
41 12 38 1
42 13 39 1
43 18 40 1
44 23 41 1
45 23 42 1
46 24 43 1
47 26 44 1
48 27 45 1
49 28 46 1
50 29 47 1
51 30 48 1
52 31 49 1
53 31 50 1
54 32 51 1
55 33 52 1
56 33 53 1
57 33 54 1
@<TRIPOS>SUBSTRUCTURE
1	UNK0	1	GROUP	1 ****	UNK
