# created with PyMOL 2.3.2
@<TRIPOS>MOLECULE
2102
57 60 1                 
SMALL
USER_CHARGES
@<TRIPOS>ATOM
1	  Cl	1.372	5.014	-5.673	Cl	1	UNK0	0.000	
2	   C	1.631	3.537	-4.776	C.2	1	UNK0	0.000	
3	   C	1.123	2.369	-5.279	C.2	1	UNK0	0.000	
4	   C	1.303	1.195	-4.609	C.2	1	UNK0	0.000	
5	   C	2.008	1.175	-3.401	C.2	1	UNK0	0.000	
6	   C	2.512	2.338	-2.902	C.2	1	UNK0	0.000	
7	   C	2.320	3.527	-3.597	C.2	1	UNK0	0.000	
8	   O	2.138	-0.041	-2.801	O.3	1	UNK0	0.000	
9	   C	2.758	-0.383	-1.618	C.3	1	UNK0	0.000	
10	   C	2.726	-1.808	-1.211	C.3	1	UNK0	0.000	
11	   N	1.372	-2.362	-1.050	N.3	1	UNK0	0.000	
12	   C	0.735	-2.557	-2.288	C.3	1	UNK0	0.000	
13	   C	-0.745	-2.790	-2.223	C.3	1	UNK0	0.000	
14	   N	-1.230	-1.701	-1.316	N.pl3	1	UNK0	0.000	
15	   C	-0.765	-1.971	0.024	C.3	1	UNK0	0.000	
16	   C	0.702	-1.718	0.021	C.3	1	UNK0	0.000	
17	   C	-1.974	-0.640	-1.816	C.2	1	UNK0	0.000	
18	   O	-2.179	-0.715	-3.106	O.2	1	UNK0	0.000	
19	   C	-2.565	0.530	-1.213	C.3	1	UNK0	0.000	
20	   N	-2.446	0.723	0.202	N.pl3	1	UNK0	0.000	
21	   C	-3.337	0.327	1.224	C.2	1	UNK0	0.000	
22	   O	-4.415	-0.282	1.011	O.2	1	UNK0	0.000	
23	   N	-2.813	0.724	2.464	N.pl3	1	UNK0	0.000	
24	   C	-1.551	1.348	2.267	C.3	1	UNK0	0.000	
25	   C	-1.587	2.723	2.904	C.3	1	UNK0	0.000	
26	   C	-1.112	2.528	4.328	C.3	1	UNK0	0.000	
27	   C	-0.803	1.049	4.460	C.3	1	UNK0	0.000	
28	   C	-0.421	0.700	3.039	C.3	1	UNK0	0.000	
29	   C	-1.353	1.379	0.829	C.2	1	UNK0	0.000	
30	   O	-0.350	1.914	0.236	O.2	1	UNK0	0.000	
31	   H	0.580	2.399	-6.208	 H	1	UNK0	0.000	
32	   H	0.895	0.289	-5.017	 H	1	UNK0	0.000	
33	   H	3.056	2.363	-1.985	 H	1	UNK0	0.000	
34	   H	2.706	4.457	-3.229	 H	1	UNK0	0.000	
35	   H	2.436	0.312	-0.807	 H	1	UNK0	0.000	
36	   H	3.854	-0.113	-1.748	 H	1	UNK0	0.000	
37	   H	3.239	-2.439	-1.957	 H	1	UNK0	0.000	
38	   H	3.241	-1.954	-0.240	 H	1	UNK0	0.000	
39	   H	0.888	-1.801	-3.076	 H	1	UNK0	0.000	
40	   H	1.179	-3.534	-2.705	 H	1	UNK0	0.000	
41	   H	-0.981	-3.757	-1.759	 H	1	UNK0	0.000	
42	   H	-1.229	-2.642	-3.193	 H	1	UNK0	0.000	
43	   H	-0.878	-3.088	0.238	 H	1	UNK0	0.000	
44	   H	-1.307	-1.497	0.832	 H	1	UNK0	0.000	
45	   H	0.818	-0.594	-0.005	 H	1	UNK0	0.000	
46	   H	1.200	-2.049	0.967	 H	1	UNK0	0.000	
47	   H	-3.686	0.499	-1.401	 H	1	UNK0	0.000	
48	   H	-2.270	1.488	-1.725	 H	1	UNK0	0.000	
49	   H	-3.276	0.583	3.415	 H	1	UNK0	0.000	
50	   H	-2.624	3.112	2.947	 H	1	UNK0	0.000	
51	   H	-0.900	3.430	2.365	 H	1	UNK0	0.000	
52	   H	-0.167	3.064	4.530	 H	1	UNK0	0.000	
53	   H	-1.905	2.756	5.067	 H	1	UNK0	0.000	
54	   H	0.037	0.854	5.157	 H	1	UNK0	0.000	
55	   H	-1.697	0.465	4.726	 H	1	UNK0	0.000	
56	   H	0.500	1.233	2.778	 H	1	UNK0	0.000	
57	   H	-0.351	-0.389	2.885	 H	1	UNK0	0.000	
@<TRIPOS>BOND
1 1 2 1
2 2 3 2
3 2 7 1
4 3 4 1
5 4 5 2
6 5 6 1
7 5 8 1
8 6 7 2
9 8 9 1
10 9 10 1
11 10 11 1
12 11 12 1
13 11 16 1
14 12 13 1
15 13 14 1
16 14 15 1
17 14 17 1
18 15 16 1
19 17 18 2
20 17 19 1
21 19 20 1
22 20 21 1
23 20 29 1
24 21 22 2
25 21 23 1
26 23 24 1
27 24 25 1
28 24 28 1
29 24 29 1
30 25 26 1
31 26 27 1
32 27 28 1
33 29 30 2
34 3 31 1
35 4 32 1
36 6 33 1
37 7 34 1
38 9 35 1
39 9 36 1
40 10 37 1
41 10 38 1
42 12 39 1
43 12 40 1
44 13 41 1
45 13 42 1
46 15 43 1
47 15 44 1
48 16 45 1
49 16 46 1
50 19 47 1
51 19 48 1
52 23 49 1
53 25 50 1
54 25 51 1
55 26 52 1
56 26 53 1
57 27 54 1
58 27 55 1
59 28 56 1
60 28 57 1
@<TRIPOS>SUBSTRUCTURE
1	UNK0	1	GROUP	1 ****	UNK
