# created with PyMOL 2.3.2
@<TRIPOS>MOLECULE
2103
43 46 1                 
SMALL
USER_CHARGES
@<TRIPOS>ATOM
1	  Br	-4.873	3.737	2.419	Br	1	UNK0	0.000	
2	   C	-5.092	2.400	1.073	C.2	1	UNK0	0.000	
3	   C	-6.333	2.036	0.656	C.2	1	UNK0	0.000	
4	   N	-6.501	1.105	-0.282	N.2	1	UNK0	0.000	
5	   C	-5.430	0.512	-0.829	C.2	1	UNK0	0.000	
6	   C	-4.137	0.845	-0.441	C.2	1	UNK0	0.000	
7	   C	-3.955	1.806	0.527	C.2	1	UNK0	0.000	
8	   C	-3.042	0.161	-1.087	C.2	1	UNK0	0.000	
9	   O	-3.209	-0.430	-2.167	O.2	1	UNK0	0.000	
10	   N	-1.696	0.147	-0.478	N.pl3	1	UNK0	0.000	
11	   C	-0.717	-0.544	-1.196	C.3	1	UNK0	0.000	
12	   C	0.692	-0.596	-0.869	C.2	1	UNK0	0.000	
13	   C	1.402	-1.488	-1.749	C.2	1	UNK0	0.000	
14	   C	2.726	-1.675	-1.590	C.2	1	UNK0	0.000	
15	   C	3.437	-1.012	-0.573	C.2	1	UNK0	0.000	
16	   C	2.776	-0.156	0.274	C.2	1	UNK0	0.000	
17	   C	1.396	0.049	0.116	C.2	1	UNK0	0.000	
18	   C	0.684	1.042	0.961	C.3	1	UNK0	0.000	
19	   C	1.612	2.041	1.644	C.3	1	UNK0	0.000	
20	   N	2.748	1.387	2.250	N.pl3	1	UNK0	0.000	
21	   C	3.472	0.524	1.362	C.2	1	UNK0	0.000	
22	   O	4.695	0.401	1.580	O.2	1	UNK0	0.000	
23	   C	3.121	1.586	3.634	C.3	1	UNK0	0.000	
24	   O	4.757	-1.253	-0.479	O.3	1	UNK0	0.000	
25	   O	3.137	-2.583	-2.578	O.3	1	UNK0	0.000	
26	   C	2.008	-3.159	-3.200	C.3	1	UNK0	0.000	
27	   O	0.974	-2.270	-2.826	O.3	1	UNK0	0.000	
28	   H	-7.254	2.484	1.065	 H	1	UNK0	0.000	
29	   H	-5.528	-0.251	-1.597	 H	1	UNK0	0.000	
30	   H	-2.967	2.089	0.847	 H	1	UNK0	0.000	
31	   H	-1.692	0.634	0.430	 H	1	UNK0	0.000	
32	   H	-1.105	-1.646	-1.290	 H	1	UNK0	0.000	
33	   H	-0.839	-0.263	-2.326	 H	1	UNK0	0.000	
34	   H	0.084	0.595	1.760	 H	1	UNK0	0.000	
35	   H	0.042	1.705	0.332	 H	1	UNK0	0.000	
36	   H	0.977	2.555	2.408	 H	1	UNK0	0.000	
37	   H	1.941	2.753	0.855	 H	1	UNK0	0.000	
38	   H	2.401	0.986	4.244	 H	1	UNK0	0.000	
39	   H	2.994	2.647	3.914	 H	1	UNK0	0.000	
40	   H	4.127	1.184	3.809	 H	1	UNK0	0.000	
41	   H	5.427	-0.918	0.124	 H	1	UNK0	0.000	
42	   H	2.126	-3.220	-4.302	 H	1	UNK0	0.000	
43	   H	1.879	-4.168	-2.777	 H	1	UNK0	0.000	
@<TRIPOS>BOND
1 1 2 1
2 2 3 2
3 2 7 1
4 3 4 1
5 4 5 2
6 5 6 1
7 6 7 2
8 6 8 1
9 8 9 2
10 8 10 1
11 10 11 1
12 11 12 1
13 12 13 2
14 12 17 1
15 13 14 1
16 13 27 1
17 14 15 2
18 14 25 1
19 15 16 1
20 15 24 1
21 16 17 2
22 16 21 1
23 17 18 1
24 18 19 1
25 19 20 1
26 20 21 1
27 20 23 1
28 21 22 2
29 25 26 1
30 26 27 1
31 3 28 1
32 5 29 1
33 7 30 1
34 10 31 1
35 11 32 1
36 11 33 1
37 18 34 1
38 18 35 1
39 19 36 1
40 19 37 1
41 23 38 1
42 23 39 1
43 23 40 1
44 24 41 1
45 26 42 1
46 26 43 1
@<TRIPOS>SUBSTRUCTURE
1	UNK0	1	GROUP	1 ****	UNK
