# created with PyMOL 2.3.2
@<TRIPOS>MOLECULE
2104
55 58 1                 
SMALL
USER_CHARGES
@<TRIPOS>ATOM
1	  Cl	2.502	5.288	2.986	Cl	1	UNK0	0.000	
2	   C	1.870	4.857	1.416	C.2	1	UNK0	0.000	
3	   C	1.558	3.546	1.148	C.2	1	UNK0	0.000	
4	   C	1.052	3.145	-0.084	C.2	1	UNK0	0.000	
5	   C	0.883	4.143	-1.020	C.2	1	UNK0	0.000	
6	   C	1.192	5.461	-0.762	C.2	1	UNK0	0.000	
7	   C	1.693	5.836	0.467	C.2	1	UNK0	0.000	
8	   C	0.716	1.718	-0.366	C.3	1	UNK0	0.000	
9	   N	-0.586	1.664	-1.050	N.pl3	1	UNK0	0.000	
10	   C	-1.563	2.000	-0.056	C.2	1	UNK0	0.000	
11	   O	-2.661	2.507	-0.332	O.2	1	UNK0	0.000	
12	   C	-1.002	1.631	1.244	C.2	1	UNK0	0.000	
13	   O	-1.528	1.759	2.364	O.2	1	UNK0	0.000	
14	   C	0.331	1.073	0.927	C.2	1	UNK0	0.000	
15	   C	1.005	0.224	1.669	C.2	1	UNK0	0.000	
16	   O	2.289	-0.174	1.243	O.2	1	UNK0	0.000	
17	   C	0.453	-0.306	2.904	C.2	1	UNK0	0.000	
18	   C	-0.814	-0.822	3.002	C.2	1	UNK0	0.000	
19	   C	-1.267	-1.283	4.219	C.2	1	UNK0	0.000	
20	   N	-0.508	-1.246	5.319	N.2	1	UNK0	0.000	
21	   C	0.731	-0.746	5.239	C.2	1	UNK0	0.000	
22	   C	1.230	-0.272	4.046	C.2	1	UNK0	0.000	
23	   C	-0.767	1.344	-2.420	C.3	1	UNK0	0.000	
24	   C	-0.983	-0.090	-2.756	C.3	1	UNK0	0.000	
25	   C	0.194	-0.902	-2.312	C.3	1	UNK0	0.000	
26	   N	0.026	-2.321	-2.626	N.4	1	UNK0	0.000	
27	   C	1.125	-3.032	-2.048	C.3	1	UNK0	0.000	
28	   C	1.426	-4.342	-2.724	C.3	1	UNK0	0.000	
29	   O	0.399	-4.691	-3.625	O.3	1	UNK0	0.000	
30	   C	0.444	-3.705	-4.618	C.3	1	UNK0	0.000	
31	   C	-0.095	-2.441	-4.049	C.3	1	UNK0	0.000	
32	   H	1.689	2.755	1.880	 H	1	UNK0	0.000	
33	   H	0.484	3.841	-1.998	 H	1	UNK0	0.000	
34	   H	1.056	6.239	-1.503	 H	1	UNK0	0.000	
35	   H	1.941	6.887	0.676	 H	1	UNK0	0.000	
36	   H	1.506	1.197	-0.903	 H	1	UNK0	0.000	
37	   H	-1.468	-0.890	2.128	 H	1	UNK0	0.000	
38	   H	-2.262	-1.686	4.289	 H	1	UNK0	0.000	
39	   H	1.401	-0.690	6.109	 H	1	UNK0	0.000	
40	   H	2.243	0.128	4.016	 H	1	UNK0	0.000	
41	   H	0.164	1.670	-2.973	 H	1	UNK0	0.000	
42	   H	-1.562	2.003	-2.885	 H	1	UNK0	0.000	
43	   H	-0.980	-0.147	-3.887	 H	1	UNK0	0.000	
44	   H	-1.947	-0.498	-2.455	 H	1	UNK0	0.000	
45	   H	0.352	-0.873	-1.212	 H	1	UNK0	0.000	
46	   H	1.143	-0.582	-2.782	 H	1	UNK0	0.000	
47	   H	-0.860	-2.615	-2.160	 H	1	UNK0	0.000	
48	   H	0.920	-3.261	-0.977	 H	1	UNK0	0.000	
49	   H	2.057	-2.424	-2.056	 H	1	UNK0	0.000	
50	   H	2.347	-4.254	-3.341	 H	1	UNK0	0.000	
51	   H	1.607	-5.165	-1.996	 H	1	UNK0	0.000	
52	   H	1.477	-3.548	-4.988	 H	1	UNK0	0.000	
53	   H	-0.169	-4.012	-5.485	 H	1	UNK0	0.000	
54	   H	0.420	-1.589	-4.585	 H	1	UNK0	0.000	
55	   H	-1.164	-2.357	-4.335	 H	1	UNK0	0.000	
@<TRIPOS>BOND
1 1 2 1
2 2 3 2
3 2 7 1
4 3 4 1
5 4 5 2
6 4 8 1
7 5 6 1
8 6 7 2
9 8 9 1
10 8 14 1
11 9 10 1
12 9 23 1
13 10 11 2
14 10 12 1
15 12 13 2
16 12 14 1
17 14 15 2
18 15 16 1
19 15 17 1
20 17 18 2
21 17 22 1
22 18 19 1
23 19 20 2
24 20 21 1
25 21 22 2
26 23 24 1
27 24 25 1
28 25 26 1
29 26 27 1
30 26 31 1
31 27 28 1
32 28 29 1
33 29 30 1
34 30 31 1
35 3 32 1
36 5 33 1
37 6 34 1
38 7 35 1
39 8 36 1
40 18 37 1
41 19 38 1
42 21 39 1
43 22 40 1
44 23 41 1
45 23 42 1
46 24 43 1
47 24 44 1
48 25 45 1
49 25 46 1
50 26 47 1
51 27 48 1
52 27 49 1
53 28 50 1
54 28 51 1
55 30 52 1
56 30 53 1
57 31 54 1
58 31 55 1
@<TRIPOS>SUBSTRUCTURE
1	UNK0	1	GROUP	1 ****	UNK
