# created with PyMOL 2.3.2
@<TRIPOS>MOLECULE
2105
38 41 1                 
SMALL
USER_CHARGES
@<TRIPOS>ATOM
1	  Cl	4.944	2.614	-1.732	Cl	1	UNK0	0.000	
2	   C	3.759	1.975	-0.612	C.2	1	UNK0	0.000	
3	   C	2.814	1.040	-1.035	C.2	1	UNK0	0.000	
4	   C	1.875	0.519	-0.195	C.2	1	UNK0	0.000	
5	   C	1.903	0.966	1.119	C.2	1	UNK0	0.000	
6	   C	2.829	1.888	1.556	C.2	1	UNK0	0.000	
7	   C	3.769	2.403	0.692	C.2	1	UNK0	0.000	
8	   C	1.033	-0.434	-0.947	C.3	1	UNK0	0.000	
9	   C	-0.396	0.046	-0.980	C.2	1	UNK0	0.000	
10	   C	-1.404	-0.667	-0.561	C.2	1	UNK0	0.000	
11	   N	-1.227	-1.978	-0.029	N.pl3	1	UNK0	0.000	
12	   C	0.085	-2.507	0.039	C.2	1	UNK0	0.000	
13	   C	1.108	-1.798	-0.381	C.2	1	UNK0	0.000	
14	   C	2.440	-2.380	-0.293	C.1	1	UNK0	0.000	
15	   N	3.505	-2.827	-0.226	N.1	1	UNK0	0.000	
16	   N	0.342	-3.815	0.559	N.pl3	1	UNK0	0.000	
17	   C	-2.647	0.110	-0.742	C.3	1	UNK0	0.000	
18	   O	-2.263	1.309	-1.292	O.3	1	UNK0	0.000	
19	   C	-0.898	1.327	-1.461	C.2	1	UNK0	0.000	
20	   O	-0.177	2.269	-1.943	O.co2	1	UNK0	0.000	
21	   C	-3.349	0.234	0.592	C.3	1	UNK0	0.000	
22	   C	-3.606	-0.573	-1.700	C.3	1	UNK0	0.000	
23	   C	1.587	-0.410	-2.321	C.2	1	UNK0	0.000	
24	   O	1.167	-1.088	-3.326	O.2	1	UNK0	0.000	
25	   N	2.666	0.497	-2.336	N.pl3	1	UNK0	0.000	
26	   H	1.186	0.589	1.827	 H	1	UNK0	0.000	
27	   H	2.858	2.245	2.586	 H	1	UNK0	0.000	
28	   H	4.508	3.128	1.005	 H	1	UNK0	0.000	
29	   H	-2.028	-2.553	0.308	 H	1	UNK0	0.000	
30	   H	-0.033	-4.101	1.473	 H	1	UNK0	0.000	
31	   H	0.910	-4.461	-0.002	 H	1	UNK0	0.000	
32	   H	-4.203	0.933	0.542	 H	1	UNK0	0.000	
33	   H	-2.662	0.412	1.426	 H	1	UNK0	0.000	
34	   H	-3.810	-0.778	0.788	 H	1	UNK0	0.000	
35	   H	-2.974	-0.887	-2.578	 H	1	UNK0	0.000	
36	   H	-4.332	0.196	-2.029	 H	1	UNK0	0.000	
37	   H	-4.150	-1.403	-1.245	 H	1	UNK0	0.000	
38	   H	3.249	0.709	-3.202	 H	1	UNK0	0.000	
@<TRIPOS>BOND
1 1 2 1
2 2 3 2
3 2 7 1
4 3 4 1
5 3 25 1
6 4 5 2
7 4 8 1
8 5 6 1
9 6 7 2
10 8 9 1
11 8 13 1
12 8 23 1
13 9 10 2
14 9 19 1
15 10 11 1
16 10 17 1
17 11 12 1
18 12 13 2
19 12 16 1
20 13 14 1
21 14 15 3
22 17 18 1
23 17 21 1
24 17 22 1
25 18 19 1
26 19 20 2
27 23 24 2
28 23 25 1
29 5 26 1
30 6 27 1
31 7 28 1
32 11 29 1
33 16 30 1
34 16 31 1
35 21 32 1
36 21 33 1
37 21 34 1
38 22 35 1
39 22 36 1
40 22 37 1
41 25 38 1
@<TRIPOS>SUBSTRUCTURE
1	UNK0	1	GROUP	1 ****	UNK
