# created with PyMOL 2.3.2
@<TRIPOS>MOLECULE
2106
50 53 1                 
SMALL
USER_CHARGES
@<TRIPOS>ATOM
1	   S	-0.652	-1.146	2.698	S.O2	1	UNK0	0.000	
2	   O	0.202	-1.187	3.907	O.2	1	UNK0	0.000	
3	   O	-2.101	-1.308	3.072	O.2	1	UNK0	0.000	
4	   N	-0.498	0.297	1.801	N.3	1	UNK0	0.000	
5	   C	-1.392	0.265	0.663	C.3	1	UNK0	0.000	
6	   C	-1.580	1.658	0.093	C.3	1	UNK0	0.000	
7	   N	-0.317	2.369	0.277	N.pl3	1	UNK0	0.000	
8	   C	0.869	1.544	0.283	C.3	1	UNK0	0.000	
9	   C	0.839	0.671	1.494	C.3	1	UNK0	0.000	
10	   C	-0.295	3.780	0.439	C.2	1	UNK0	0.000	
11	   O	-1.411	4.404	0.424	O.2	1	UNK0	0.000	
12	   C	0.923	4.570	0.623	C.3	1	UNK0	0.000	
13	   O	0.601	5.915	0.775	O.3	1	UNK0	0.000	
14	   C	1.578	6.673	0.179	C.3	1	UNK0	0.000	
15	   C	1.898	5.928	-1.112	C.3	1	UNK0	0.000	
16	   C	1.839	4.487	-0.600	C.3	1	UNK0	0.000	
17	   C	-0.198	-2.488	1.669	C.2	1	UNK0	0.000	
18	   C	-1.141	-3.130	0.895	C.2	1	UNK0	0.000	
19	   C	-0.816	-4.208	0.059	C.2	1	UNK0	0.000	
20	   C	0.483	-4.647	0.001	C.2	1	UNK0	0.000	
21	   C	1.428	-4.007	0.774	C.2	1	UNK0	0.000	
22	   C	1.103	-2.943	1.598	C.2	1	UNK0	0.000	
23	  Cl	3.082	-4.608	0.665	Cl	1	UNK0	0.000	
24	   N	0.855	-5.742	-0.863	N.pl3	1	UNK0	0.000	
25	   C	-0.150	-6.369	-1.666	C.2	1	UNK0	0.000	
26	   O	-0.062	-7.529	-2.097	O.2	1	UNK0	0.000	
27	   C	-1.347	-5.552	-1.974	C.3	1	UNK0	0.000	
28	   C	-1.854	-4.883	-0.741	C.3	1	UNK0	0.000	
29	   H	-2.351	-0.204	0.883	 H	1	UNK0	0.000	
30	   H	-0.892	-0.334	-0.126	 H	1	UNK0	0.000	
31	   H	-2.350	2.159	0.690	 H	1	UNK0	0.000	
32	   H	-1.832	1.663	-0.968	 H	1	UNK0	0.000	
33	   H	1.809	2.111	0.166	 H	1	UNK0	0.000	
34	   H	0.796	0.912	-0.650	 H	1	UNK0	0.000	
35	   H	1.424	-0.257	1.293	 H	1	UNK0	0.000	
36	   H	1.348	1.215	2.324	 H	1	UNK0	0.000	
37	   H	1.512	4.279	1.513	 H	1	UNK0	0.000	
38	   H	1.202	7.680	0.002	 H	1	UNK0	0.000	
39	   H	2.519	6.734	0.763	 H	1	UNK0	0.000	
40	   H	2.895	6.158	-1.488	 H	1	UNK0	0.000	
41	   H	1.087	6.139	-1.826	 H	1	UNK0	0.000	
42	   H	1.425	3.878	-1.405	 H	1	UNK0	0.000	
43	   H	2.866	4.200	-0.309	 H	1	UNK0	0.000	
44	   H	-2.170	-2.785	0.938	 H	1	UNK0	0.000	
45	   H	1.852	-2.461	2.189	 H	1	UNK0	0.000	
46	   H	1.829	-6.076	-0.908	 H	1	UNK0	0.000	
47	   H	-2.156	-6.150	-2.414	 H	1	UNK0	0.000	
48	   H	-1.011	-4.752	-2.691	 H	1	UNK0	0.000	
49	   H	-2.700	-4.205	-0.995	 H	1	UNK0	0.000	
50	   H	-2.249	-5.710	-0.079	 H	1	UNK0	0.000	
@<TRIPOS>BOND
1 1 2 2
2 1 3 2
3 1 4 1
4 1 17 1
5 4 5 1
6 4 9 1
7 5 6 1
8 6 7 1
9 7 8 1
10 7 10 1
11 8 9 1
12 10 11 2
13 10 12 1
14 12 13 1
15 12 16 1
16 13 14 1
17 14 15 1
18 15 16 1
19 17 18 2
20 17 22 1
21 18 19 1
22 19 20 2
23 19 28 1
24 20 21 1
25 20 24 1
26 21 22 2
27 21 23 1
28 24 25 1
29 25 26 2
30 25 27 1
31 27 28 1
32 5 29 1
33 5 30 1
34 6 31 1
35 6 32 1
36 8 33 1
37 8 34 1
38 9 35 1
39 9 36 1
40 12 37 1
41 14 38 1
42 14 39 1
43 15 40 1
44 15 41 1
45 16 42 1
46 16 43 1
47 18 44 1
48 22 45 1
49 24 46 1
50 27 47 1
51 27 48 1
52 28 49 1
53 28 50 1
@<TRIPOS>SUBSTRUCTURE
1	UNK0	1	GROUP	1 ****	UNK
