# created with PyMOL 2.3.2
@<TRIPOS>MOLECULE
2107
49 52 1                 
SMALL
USER_CHARGES
@<TRIPOS>ATOM
1	  Cl	-4.001	-4.877	1.955	Cl	1	UNK0	0.000	
2	   C	-3.923	-3.417	0.975	C.2	1	UNK0	0.000	
3	   C	-2.697	-2.895	0.626	C.2	1	UNK0	0.000	
4	   C	-2.621	-1.738	-0.151	C.2	1	UNK0	0.000	
5	   C	-3.776	-1.125	-0.562	C.2	1	UNK0	0.000	
6	   C	-5.004	-1.675	-0.194	C.2	1	UNK0	0.000	
7	   C	-5.078	-2.799	0.560	C.2	1	UNK0	0.000	
8	   N	-3.469	0.034	-1.335	N.pl3	1	UNK0	0.000	
9	   C	-2.069	0.138	-1.401	C.2	1	UNK0	0.000	
10	   O	-1.481	1.086	-2.027	O.2	1	UNK0	0.000	
11	   C	-1.473	-0.983	-0.660	C.3	1	UNK0	0.000	
12	   N	-0.664	-1.827	-1.510	N.3	1	UNK0	0.000	
13	   C	0.503	-2.094	-0.742	C.3	1	UNK0	0.000	
14	   C	0.814	-0.804	-0.081	C.3	1	UNK0	0.000	
15	   C	-0.585	-0.471	0.469	C.3	1	UNK0	0.000	
16	   C	-0.575	1.015	0.532	C.2	1	UNK0	0.000	
17	   O	-1.413	1.672	1.223	O.2	1	UNK0	0.000	
18	   N	0.488	1.511	-0.281	N.pl3	1	UNK0	0.000	
19	   C	1.024	0.352	-0.954	C.2	1	UNK0	0.000	
20	   O	1.553	0.474	-2.099	O.2	1	UNK0	0.000	
21	   C	0.916	2.877	-0.389	C.3	1	UNK0	0.000	
22	   C	1.987	3.229	0.621	C.3	1	UNK0	0.000	
23	   C	3.216	2.391	0.471	C.3	1	UNK0	0.000	
24	   C	4.208	2.834	1.531	C.3	1	UNK0	0.000	
25	   C	1.618	-2.738	-1.506	C.3	1	UNK0	0.000	
26	   O	2.102	-2.031	-2.573	O.3	1	UNK0	0.000	
27	   C	2.700	-3.110	-0.507	C.3	1	UNK0	0.000	
28	   H	-1.830	-3.431	0.987	 H	1	UNK0	0.000	
29	   H	-5.927	-1.188	-0.521	 H	1	UNK0	0.000	
30	   H	-6.021	-3.258	0.868	 H	1	UNK0	0.000	
31	   H	-4.212	0.649	-1.747	 H	1	UNK0	0.000	
32	   H	-0.389	-1.238	-2.337	 H	1	UNK0	0.000	
33	   H	0.261	-2.819	0.090	 H	1	UNK0	0.000	
34	   H	1.546	-0.876	0.746	 H	1	UNK0	0.000	
35	   H	-0.786	-0.920	1.434	 H	1	UNK0	0.000	
36	   H	0.077	3.587	-0.242	 H	1	UNK0	0.000	
37	   H	1.346	3.116	-1.391	 H	1	UNK0	0.000	
38	   H	1.599	3.139	1.665	 H	1	UNK0	0.000	
39	   H	2.273	4.293	0.497	 H	1	UNK0	0.000	
40	   H	3.676	2.626	-0.515	 H	1	UNK0	0.000	
41	   H	2.976	1.311	0.561	 H	1	UNK0	0.000	
42	   H	4.699	3.761	1.145	 H	1	UNK0	0.000	
43	   H	3.693	3.047	2.502	 H	1	UNK0	0.000	
44	   H	5.022	2.074	1.661	 H	1	UNK0	0.000	
45	   H	1.222	-3.706	-1.896	 H	1	UNK0	0.000	
46	   H	1.494	-2.168	-3.344	 H	1	UNK0	0.000	
47	   H	3.329	-3.944	-0.887	 H	1	UNK0	0.000	
48	   H	3.273	-2.231	-0.187	 H	1	UNK0	0.000	
49	   H	2.177	-3.516	0.393	 H	1	UNK0	0.000	
@<TRIPOS>BOND
1 1 2 1
2 2 3 2
3 2 7 1
4 3 4 1
5 4 5 2
6 4 11 1
7 5 6 1
8 5 8 1
9 6 7 2
10 8 9 1
11 9 10 2
12 9 11 1
13 11 12 1
14 11 15 1
15 12 13 1
16 13 14 1
17 13 25 1
18 14 15 1
19 14 19 1
20 15 16 1
21 16 17 2
22 16 18 1
23 18 19 1
24 18 21 1
25 19 20 2
26 21 22 1
27 22 23 1
28 23 24 1
29 25 26 1
30 25 27 1
31 3 28 1
32 6 29 1
33 7 30 1
34 8 31 1
35 12 32 1
36 13 33 1
37 14 34 1
38 15 35 1
39 21 36 1
40 21 37 1
41 22 38 1
42 22 39 1
43 23 40 1
44 23 41 1
45 24 42 1
46 24 43 1
47 24 44 1
48 25 45 1
49 26 46 1
50 27 47 1
51 27 48 1
52 27 49 1
@<TRIPOS>SUBSTRUCTURE
1	UNK0	1	GROUP	1 ****	UNK
