# created with PyMOL 2.3.2
@<TRIPOS>MOLECULE
2108
52 55 1                 
SMALL
USER_CHARGES
@<TRIPOS>ATOM
1	  Cl	1.791	1.691	-5.281	Cl	1	UNK0	0.000	
2	   C	1.536	2.092	-3.601	C.2	1	UNK0	0.000	
3	   C	0.992	1.138	-2.756	C.2	1	UNK0	0.000	
4	   C	0.793	1.455	-1.434	C.2	1	UNK0	0.000	
5	   C	1.125	2.690	-0.970	C.2	1	UNK0	0.000	
6	   C	1.673	3.644	-1.823	C.2	1	UNK0	0.000	
7	   C	1.875	3.337	-3.135	C.2	1	UNK0	0.000	
8	   N	0.781	2.803	0.424	N.pl3	1	UNK0	0.000	
9	   C	0.211	1.586	0.826	C.2	1	UNK0	0.000	
10	   O	-0.256	1.396	1.978	O.2	1	UNK0	0.000	
11	   C	0.273	0.642	-0.314	C.3	1	UNK0	0.000	
12	   N	1.115	-0.426	0.071	N.3	1	UNK0	0.000	
13	   C	0.625	-1.593	-0.598	C.3	1	UNK0	0.000	
14	   C	-0.822	-1.459	-0.619	C.3	1	UNK0	0.000	
15	   C	-1.035	0.036	-0.654	C.3	1	UNK0	0.000	
16	   C	-2.092	0.329	0.332	C.2	1	UNK0	0.000	
17	   O	-2.588	1.457	0.520	O.2	1	UNK0	0.000	
18	   N	-2.429	-0.899	1.014	N.pl3	1	UNK0	0.000	
19	   C	-1.639	-1.949	0.467	C.2	1	UNK0	0.000	
20	   O	-1.687	-3.114	0.904	O.2	1	UNK0	0.000	
21	   C	-3.460	-0.935	2.024	C.3	1	UNK0	0.000	
22	   C	-3.097	-0.609	3.407	C.3	1	UNK0	0.000	
23	   C	-2.044	-1.519	3.953	C.3	1	UNK0	0.000	
24	   O	-0.885	-1.360	3.203	O.3	1	UNK0	0.000	
25	   C	0.057	-2.220	3.776	C.3	1	UNK0	0.000	
26	   C	1.249	-2.795	0.001	C.3	1	UNK0	0.000	
27	   C	0.870	-4.112	-0.564	C.3	1	UNK0	0.000	
28	   C	2.761	-2.691	-0.072	C.3	1	UNK0	0.000	
29	   H	0.732	0.158	-3.191	 H	1	UNK0	0.000	
30	   H	1.938	4.640	-1.427	 H	1	UNK0	0.000	
31	   H	2.306	4.096	-3.799	 H	1	UNK0	0.000	
32	   H	0.953	3.683	1.001	 H	1	UNK0	0.000	
33	   H	1.069	-0.552	1.106	 H	1	UNK0	0.000	
34	   H	1.015	-1.533	-1.639	 H	1	UNK0	0.000	
35	   H	-1.216	-1.840	-1.613	 H	1	UNK0	0.000	
36	   H	-1.439	0.373	-1.639	 H	1	UNK0	0.000	
37	   H	-3.872	-1.990	2.024	 H	1	UNK0	0.000	
38	   H	-4.348	-0.320	1.729	 H	1	UNK0	0.000	
39	   H	-2.761	0.460	3.502	 H	1	UNK0	0.000	
40	   H	-4.032	-0.664	4.038	 H	1	UNK0	0.000	
41	   H	-2.340	-2.590	3.813	 H	1	UNK0	0.000	
42	   H	-1.873	-1.318	5.032	 H	1	UNK0	0.000	
43	   H	-0.341	-3.240	3.697	 H	1	UNK0	0.000	
44	   H	0.064	-1.939	4.874	 H	1	UNK0	0.000	
45	   H	1.034	-2.042	3.321	 H	1	UNK0	0.000	
46	   H	1.008	-2.831	1.085	 H	1	UNK0	0.000	
47	   H	-0.106	-4.139	-1.087	 H	1	UNK0	0.000	
48	   H	1.618	-4.371	-1.347	 H	1	UNK0	0.000	
49	   H	0.968	-4.906	0.203	 H	1	UNK0	0.000	
50	   H	3.259	-3.649	0.182	 H	1	UNK0	0.000	
51	   H	3.153	-1.849	0.538	 H	1	UNK0	0.000	
52	   H	3.008	-2.434	-1.138	 H	1	UNK0	0.000	
@<TRIPOS>BOND
1 1 2 1
2 2 3 2
3 2 7 1
4 3 4 1
5 4 5 2
6 4 11 1
7 5 6 1
8 5 8 1
9 6 7 2
10 8 9 1
11 9 10 2
12 9 11 1
13 11 12 1
14 11 15 1
15 12 13 1
16 13 14 1
17 13 26 1
18 14 15 1
19 14 19 1
20 15 16 1
21 16 17 2
22 16 18 1
23 18 19 1
24 18 21 1
25 19 20 2
26 21 22 1
27 22 23 1
28 23 24 1
29 24 25 1
30 26 27 1
31 26 28 1
32 3 29 1
33 6 30 1
34 7 31 1
35 8 32 1
36 12 33 1
37 13 34 1
38 14 35 1
39 15 36 1
40 21 37 1
41 21 38 1
42 22 39 1
43 22 40 1
44 23 41 1
45 23 42 1
46 25 43 1
47 25 44 1
48 25 45 1
49 26 46 1
50 27 47 1
51 27 48 1
52 27 49 1
53 28 50 1
54 28 51 1
55 28 52 1
@<TRIPOS>SUBSTRUCTURE
1	UNK0	1	GROUP	1 ****	UNK
