# created with PyMOL 2.3.2
@<TRIPOS>MOLECULE
2110
44 48 1                 
SMALL
USER_CHARGES
@<TRIPOS>ATOM
1	  Cl	4.346	2.457	-5.458	Cl	1	UNK0	0.000	
2	   C	3.360	1.596	-4.298	C.2	1	UNK0	0.000	
3	   C	2.699	2.281	-3.291	C.2	1	UNK0	0.000	
4	   C	1.927	1.591	-2.383	C.2	1	UNK0	0.000	
5	   C	1.763	0.210	-2.411	C.2	1	UNK0	0.000	
6	   C	2.421	-0.465	-3.414	C.2	1	UNK0	0.000	
7	   C	3.200	0.214	-4.333	C.2	1	UNK0	0.000	
8	   N	0.952	-0.459	-1.448	N.pl3	1	UNK0	0.000	
9	   C	1.005	-0.286	-0.015	C.2	1	UNK0	0.000	
10	   O	2.081	0.115	0.551	O.2	1	UNK0	0.000	
11	   C	-0.294	-0.633	0.572	C.3	1	UNK0	0.000	
12	   C	-1.086	0.559	0.888	C.3	1	UNK0	0.000	
13	   N	-1.727	0.911	-0.393	N.3	1	UNK0	0.000	
14	   C	-2.153	-0.343	-0.908	C.3	1	UNK0	0.000	
15	   C	-1.054	-1.285	-0.562	C.3	1	UNK0	0.000	
16	   C	-0.066	-1.423	-1.671	C.2	1	UNK0	0.000	
17	   O	-0.092	-2.237	-2.654	O.2	1	UNK0	0.000	
18	   C	-2.469	-0.298	-2.387	C.3	1	UNK0	0.000	
19	   O	-1.431	0.061	-3.190	O.3	1	UNK0	0.000	
20	   C	-2.189	0.313	1.853	C.2	1	UNK0	0.000	
21	   C	-2.406	1.461	2.550	C.2	1	UNK0	0.000	
22	   C	-3.457	1.605	3.478	C.2	1	UNK0	0.000	
23	   C	-4.286	0.526	3.681	C.2	1	UNK0	0.000	
24	   C	-4.050	-0.639	2.972	C.2	1	UNK0	0.000	
25	   C	-3.034	-0.778	2.071	C.2	1	UNK0	0.000	
26	   N	-1.315	2.374	2.290	N.pl3	1	UNK0	0.000	
27	   C	-0.412	1.736	1.415	C.2	1	UNK0	0.000	
28	   O	0.758	2.219	1.216	O.2	1	UNK0	0.000	
29	   H	2.808	3.374	-3.237	 H	1	UNK0	0.000	
30	   H	1.409	2.118	-1.596	 H	1	UNK0	0.000	
31	   H	2.306	-1.549	-3.457	 H	1	UNK0	0.000	
32	   H	3.721	-0.306	-5.125	 H	1	UNK0	0.000	
33	   H	-0.183	-1.344	1.436	 H	1	UNK0	0.000	
34	   H	-2.534	1.519	-0.122	 H	1	UNK0	0.000	
35	   H	-3.096	-0.665	-0.433	 H	1	UNK0	0.000	
36	   H	-1.402	-2.307	-0.318	 H	1	UNK0	0.000	
37	   H	-2.961	-1.244	-2.679	 H	1	UNK0	0.000	
38	   H	-3.261	0.502	-2.497	 H	1	UNK0	0.000	
39	   H	-1.611	-0.320	-4.108	 H	1	UNK0	0.000	
40	   H	-3.592	2.551	4.008	 H	1	UNK0	0.000	
41	   H	-5.097	0.625	4.389	 H	1	UNK0	0.000	
42	   H	-4.722	-1.468	3.161	 H	1	UNK0	0.000	
43	   H	-2.837	-1.692	1.546	 H	1	UNK0	0.000	
44	   H	-1.246	3.350	2.708	 H	1	UNK0	0.000	
@<TRIPOS>BOND
1 1 2 1
2 2 3 2
3 2 7 1
4 3 4 1
5 4 5 2
6 5 6 1
7 5 8 1
8 6 7 2
9 8 9 1
10 8 16 1
11 9 10 2
12 9 11 1
13 11 12 1
14 11 15 1
15 12 13 1
16 12 20 1
17 12 27 1
18 13 14 1
19 14 15 1
20 14 18 1
21 15 16 1
22 16 17 2
23 18 19 1
24 20 21 1
25 20 25 2
26 21 22 2
27 21 26 1
28 22 23 1
29 23 24 2
30 24 25 1
31 26 27 1
32 27 28 2
33 3 29 1
34 4 30 1
35 6 31 1
36 7 32 1
37 11 33 1
38 13 34 1
39 14 35 1
40 15 36 1
41 18 37 1
42 18 38 1
43 19 39 1
44 22 40 1
45 23 41 1
46 24 42 1
47 25 43 1
48 26 44 1
@<TRIPOS>SUBSTRUCTURE
1	UNK0	1	GROUP	1 ****	UNK
