# created with PyMOL 2.3.2
@<TRIPOS>MOLECULE
2111
39 42 1                 
SMALL
USER_CHARGES
@<TRIPOS>ATOM
1	  Cl	4.111	4.850	2.441	Cl	1	UNK0	0.000	
2	   C	2.605	4.636	1.586	C.2	1	UNK0	0.000	
3	   N	1.462	5.233	1.897	N.2	1	UNK0	0.000	
4	   N	0.559	4.821	1.024	N.pl3	1	UNK0	0.000	
5	   C	1.094	3.959	0.141	C.2	1	UNK0	0.000	
6	   N	2.383	3.854	0.508	N.2	1	UNK0	0.000	
7	   C	0.443	3.267	-0.996	C.3	1	UNK0	0.000	
8	   C	-0.158	1.946	-0.661	C.3	1	UNK0	0.000	
9	   C	0.790	0.955	-0.155	C.2	1	UNK0	0.000	
10	   O	2.001	1.286	-0.075	O.2	1	UNK0	0.000	
11	   N	0.410	-0.350	0.246	N.pl3	1	UNK0	0.000	
12	   C	1.403	-1.284	0.739	C.3	1	UNK0	0.000	
13	   C	1.318	-2.605	0.033	C.3	1	UNK0	0.000	
14	   O	2.514	-2.990	-0.566	O.3	1	UNK0	0.000	
15	   C	2.373	-4.339	-0.890	C.3	1	UNK0	0.000	
16	   C	1.279	-4.521	-1.877	C.2	1	UNK0	0.000	
17	   N	0.298	-3.606	-1.945	N.pl3	1	UNK0	0.000	
18	   N	-0.560	-3.968	-2.884	N.2	1	UNK0	0.000	
19	   N	-0.188	-5.101	-3.452	N.2	1	UNK0	0.000	
20	   C	0.971	-5.465	-2.829	C.2	1	UNK0	0.000	
21	   C	0.303	-2.470	-1.082	C.3	1	UNK0	0.000	
22	   C	-1.044	-2.226	-0.410	C.3	1	UNK0	0.000	
23	   C	-0.960	-0.824	0.190	C.3	1	UNK0	0.000	
24	   H	-0.464	5.096	0.976	 H	1	UNK0	0.000	
25	   H	-0.339	3.968	-1.385	 H	1	UNK0	0.000	
26	   H	1.153	3.150	-1.862	 H	1	UNK0	0.000	
27	   H	-0.993	2.039	0.063	 H	1	UNK0	0.000	
28	   H	-0.630	1.558	-1.600	 H	1	UNK0	0.000	
29	   H	2.403	-0.820	0.705	 H	1	UNK0	0.000	
30	   H	1.173	-1.439	1.826	 H	1	UNK0	0.000	
31	   H	0.992	-3.400	0.715	 H	1	UNK0	0.000	
32	   H	3.356	-4.689	-1.290	 H	1	UNK0	0.000	
33	   H	2.143	-4.908	0.057	 H	1	UNK0	0.000	
34	   H	1.540	-6.357	-3.062	 H	1	UNK0	0.000	
35	   H	0.577	-1.581	-1.713	 H	1	UNK0	0.000	
36	   H	-1.862	-2.329	-1.129	 H	1	UNK0	0.000	
37	   H	-1.117	-2.991	0.409	 H	1	UNK0	0.000	
38	   H	-1.329	-0.899	1.235	 H	1	UNK0	0.000	
39	   H	-1.605	-0.185	-0.447	 H	1	UNK0	0.000	
@<TRIPOS>BOND
1 1 2 1
2 2 3 2
3 2 6 1
4 3 4 1
5 4 5 1
6 5 6 2
7 5 7 1
8 7 8 1
9 8 9 1
10 9 10 2
11 9 11 1
12 11 12 1
13 11 23 1
14 12 13 1
15 13 14 1
16 13 21 1
17 14 15 1
18 15 16 1
19 16 17 1
20 16 20 2
21 17 18 1
22 17 21 1
23 18 19 2
24 19 20 1
25 21 22 1
26 22 23 1
27 4 24 1
28 7 25 1
29 7 26 1
30 8 27 1
31 8 28 1
32 12 29 1
33 12 30 1
34 13 31 1
35 15 32 1
36 15 33 1
37 20 34 1
38 21 35 1
39 22 36 1
40 22 37 1
41 23 38 1
42 23 39 1
@<TRIPOS>SUBSTRUCTURE
1	UNK0	1	GROUP	1 ****	UNK
