# created with PyMOL 2.3.2
@<TRIPOS>MOLECULE
2117
63 66 1                 
SMALL
USER_CHARGES
@<TRIPOS>ATOM
1	  Br	-5.458	-3.828	0.607	Br	1	UNK0	0.000	
2	   C	-3.841	-2.874	0.188	C.2	1	UNK0	0.000	
3	   C	-3.101	-2.288	1.187	C.2	1	UNK0	0.000	
4	   C	-1.916	-1.583	0.915	C.2	1	UNK0	0.000	
5	   C	-1.569	-1.530	-0.396	C.2	1	UNK0	0.000	
6	   C	-2.299	-2.111	-1.408	C.2	1	UNK0	0.000	
7	   C	-3.452	-2.795	-1.129	C.2	1	UNK0	0.000	
8	   C	-1.211	-1.029	2.050	C.3	1	UNK0	0.000	
9	   N	-1.012	0.381	2.119	N.pl3	1	UNK0	0.000	
10	   C	0.003	0.556	3.153	C.2	1	UNK0	0.000	
11	   O	0.200	1.576	3.866	O.2	1	UNK0	0.000	
12	   C	0.759	-0.681	3.211	C.2	1	UNK0	0.000	
13	   O	1.742	-1.005	3.961	O.2	1	UNK0	0.000	
14	   C	0.174	-1.561	2.206	C.2	1	UNK0	0.000	
15	   C	0.773	-2.598	1.656	C.2	1	UNK0	0.000	
16	   O	0.059	-3.388	0.767	O.2	1	UNK0	0.000	
17	   C	2.153	-2.990	1.898	C.2	1	UNK0	0.000	
18	   N	2.594	-4.218	2.303	N.pl3	1	UNK0	0.000	
19	   C	3.952	-4.205	2.372	C.2	1	UNK0	0.000	
20	   N	4.341	-2.973	2.012	N.2	1	UNK0	0.000	
21	   C	3.256	-2.196	1.711	C.2	1	UNK0	0.000	
22	   C	3.335	-0.786	1.245	C.3	1	UNK0	0.000	
23	   C	4.657	-5.324	2.757	C.2	1	UNK0	0.000	
24	   C	3.947	-6.458	3.070	C.2	1	UNK0	0.000	
25	   C	2.547	-6.469	2.997	C.2	1	UNK0	0.000	
26	   C	1.875	-5.313	2.603	C.2	1	UNK0	0.000	
27	   C	-1.615	1.518	1.464	C.3	1	UNK0	0.000	
28	   C	-0.864	2.016	0.265	C.3	1	UNK0	0.000	
29	   C	-1.542	3.216	-0.364	C.3	1	UNK0	0.000	
30	   N	-0.845	3.713	-1.518	N.4	1	UNK0	0.000	
31	   C	-0.426	2.683	-2.433	C.3	1	UNK0	0.000	
32	   C	0.170	3.375	-3.664	C.3	1	UNK0	0.000	
33	   C	0.169	4.687	-1.221	C.3	1	UNK0	0.000	
34	   C	1.490	4.147	-0.813	C.3	1	UNK0	0.000	
35	   H	-3.466	-2.390	2.205	 H	1	UNK0	0.000	
36	   H	-0.676	-1.030	-0.668	 H	1	UNK0	0.000	
37	   H	-1.963	-2.032	-2.454	 H	1	UNK0	0.000	
38	   H	-4.034	-3.256	-1.923	 H	1	UNK0	0.000	
39	   H	-1.734	-1.305	3.019	 H	1	UNK0	0.000	
40	   H	3.510	-0.112	2.097	 H	1	UNK0	0.000	
41	   H	4.187	-0.689	0.510	 H	1	UNK0	0.000	
42	   H	2.440	-0.529	0.666	 H	1	UNK0	0.000	
43	   H	5.725	-5.343	2.821	 H	1	UNK0	0.000	
44	   H	4.509	-7.331	3.371	 H	1	UNK0	0.000	
45	   H	2.032	-7.385	3.253	 H	1	UNK0	0.000	
46	   H	0.796	-5.323	2.547	 H	1	UNK0	0.000	
47	   H	-1.701	2.335	2.241	 H	1	UNK0	0.000	
48	   H	-2.677	1.272	1.223	 H	1	UNK0	0.000	
49	   H	-0.790	1.251	-0.492	 H	1	UNK0	0.000	
50	   H	0.148	2.340	0.641	 H	1	UNK0	0.000	
51	   H	-1.650	4.031	0.370	 H	1	UNK0	0.000	
52	   H	-2.574	2.882	-0.637	 H	1	UNK0	0.000	
53	   H	-1.588	4.260	-2.060	 H	1	UNK0	0.000	
54	   H	0.340	2.002	-2.060	 H	1	UNK0	0.000	
55	   H	-1.348	2.154	-2.781	 H	1	UNK0	0.000	
56	   H	0.309	2.588	-4.421	 H	1	UNK0	0.000	
57	   H	1.080	3.933	-3.405	 H	1	UNK0	0.000	
58	   H	-0.601	4.101	-3.997	 H	1	UNK0	0.000	
59	   H	0.274	5.368	-2.090	 H	1	UNK0	0.000	
60	   H	-0.225	5.313	-0.387	 H	1	UNK0	0.000	
61	   H	2.281	4.853	-1.205	 H	1	UNK0	0.000	
62	   H	1.762	3.167	-1.195	 H	1	UNK0	0.000	
63	   H	1.639	4.190	0.304	 H	1	UNK0	0.000	
@<TRIPOS>BOND
1 1 2 1
2 2 3 2
3 2 7 1
4 3 4 1
5 4 5 2
6 4 8 1
7 5 6 1
8 6 7 2
9 8 9 1
10 8 14 1
11 9 10 1
12 9 27 1
13 10 11 2
14 10 12 1
15 12 13 2
16 12 14 1
17 14 15 2
18 15 16 1
19 15 17 1
20 17 18 1
21 17 21 2
22 18 19 1
23 18 26 1
24 19 20 2
25 19 23 1
26 20 21 1
27 21 22 1
28 23 24 2
29 24 25 1
30 25 26 2
31 27 28 1
32 28 29 1
33 29 30 1
34 30 31 1
35 30 33 1
36 31 32 1
37 33 34 1
38 3 35 1
39 5 36 1
40 6 37 1
41 7 38 1
42 8 39 1
43 22 40 1
44 22 41 1
45 22 42 1
46 23 43 1
47 24 44 1
48 25 45 1
49 26 46 1
50 27 47 1
51 27 48 1
52 28 49 1
53 28 50 1
54 29 51 1
55 29 52 1
56 30 53 1
57 31 54 1
58 31 55 1
59 32 56 1
60 32 57 1
61 32 58 1
62 33 59 1
63 33 60 1
64 34 61 1
65 34 62 1
66 34 63 1
@<TRIPOS>SUBSTRUCTURE
1	UNK0	1	GROUP	1 ****	UNK
