# created with PyMOL 2.3.2
@<TRIPOS>MOLECULE
2118
45 48 1                 
SMALL
USER_CHARGES
@<TRIPOS>ATOM
1	  Cl	-3.501	1.363	-2.823	Cl	1	UNK0	0.000	
2	   C	-2.306	1.954	-1.673	C.2	1	UNK0	0.000	
3	   C	-1.666	1.000	-0.867	C.2	1	UNK0	0.000	
4	   C	-0.738	1.493	0.021	C.2	1	UNK0	0.000	
5	   O	-0.107	0.713	0.801	O.2	1	UNK0	0.000	
6	   N	-0.474	2.823	0.094	N.pl3	1	UNK0	0.000	
7	   C	-1.097	3.718	-0.685	C.2	1	UNK0	0.000	
8	   N	-2.008	3.248	-1.558	N.2	1	UNK0	0.000	
9	   C	-0.817	5.074	-0.600	C.2	1	UNK0	0.000	
10	   C	0.118	5.534	0.297	C.2	1	UNK0	0.000	
11	   C	0.759	4.623	1.099	C.2	1	UNK0	0.000	
12	   C	0.448	3.282	0.980	C.2	1	UNK0	0.000	
13	   C	-1.504	6.067	-1.462	C.3	1	UNK0	0.000	
14	   C	-2.050	-0.427	-0.990	C.3	1	UNK0	0.000	
15	   N	-1.279	-1.330	-0.190	N.3	1	UNK0	0.000	
16	   C	-1.994	-2.628	-0.188	C.3	1	UNK0	0.000	
17	   C	-1.308	-3.642	0.664	C.3	1	UNK0	0.000	
18	   N	0.124	-3.443	0.774	N.pl3	1	UNK0	0.000	
19	   N	1.006	-4.047	1.544	N.2	1	UNK0	0.000	
20	   C	2.242	-3.550	1.325	C.2	1	UNK0	0.000	
21	   C	2.073	-2.583	0.356	C.2	1	UNK0	0.000	
22	   C	0.749	-2.499	-0.005	C.2	1	UNK0	0.000	
23	   C	-0.053	-1.688	-0.955	C.3	1	UNK0	0.000	
24	   C	3.507	-3.920	1.949	C.2	1	UNK0	0.000	
25	   O	4.560	-3.329	1.605	O.co2	1	UNK0	0.000	
26	   O	3.619	-4.899	2.915	O.3	1	UNK0	0.000	
27	   C	4.815	-5.282	3.536	C.3	1	UNK0	0.000	
28	   H	0.355	6.606	0.381	 H	1	UNK0	0.000	
29	   H	1.493	4.988	1.804	 H	1	UNK0	0.000	
30	   H	0.934	2.545	1.594	 H	1	UNK0	0.000	
31	   H	-1.820	5.565	-2.416	 H	1	UNK0	0.000	
32	   H	-2.448	6.416	-0.985	 H	1	UNK0	0.000	
33	   H	-0.842	6.902	-1.758	 H	1	UNK0	0.000	
34	   H	-2.009	-0.696	-2.086	 H	1	UNK0	0.000	
35	   H	-3.127	-0.526	-0.660	 H	1	UNK0	0.000	
36	   H	-2.137	-3.024	-1.191	 H	1	UNK0	0.000	
37	   H	-2.999	-2.394	0.237	 H	1	UNK0	0.000	
38	   H	-1.800	-3.653	1.672	 H	1	UNK0	0.000	
39	   H	-1.474	-4.668	0.257	 H	1	UNK0	0.000	
40	   H	2.880	-1.977	-0.058	 H	1	UNK0	0.000	
41	   H	0.450	-0.775	-1.227	 H	1	UNK0	0.000	
42	   H	-0.344	-2.327	-1.819	 H	1	UNK0	0.000	
43	   H	4.686	-6.228	4.070	 H	1	UNK0	0.000	
44	   H	5.684	-5.269	2.880	 H	1	UNK0	0.000	
45	   H	5.019	-4.508	4.333	 H	1	UNK0	0.000	
@<TRIPOS>BOND
1 1 2 1
2 2 3 2
3 2 8 1
4 3 4 1
5 3 14 1
6 4 5 2
7 4 6 1
8 6 7 1
9 6 12 1
10 7 8 2
11 7 9 1
12 9 10 2
13 9 13 1
14 10 11 1
15 11 12 2
16 14 15 1
17 15 16 1
18 15 23 1
19 16 17 1
20 17 18 1
21 18 19 1
22 18 22 1
23 19 20 2
24 20 21 1
25 20 24 1
26 21 22 2
27 22 23 1
28 24 25 2
29 24 26 1
30 26 27 1
31 10 28 1
32 11 29 1
33 12 30 1
34 13 31 1
35 13 32 1
36 13 33 1
37 14 34 1
38 14 35 1
39 16 36 1
40 16 37 1
41 17 38 1
42 17 39 1
43 21 40 1
44 23 41 1
45 23 42 1
46 27 43 1
47 27 44 1
48 27 45 1
@<TRIPOS>SUBSTRUCTURE
1	UNK0	1	GROUP	1 ****	UNK
