# created with PyMOL 2.3.2
@<TRIPOS>MOLECULE
2119
51 54 1                 
SMALL
USER_CHARGES
@<TRIPOS>ATOM
1	  Cl	4.444	4.631	-0.577	Cl	1	UNK0	0.000	
2	   C	3.494	3.921	0.728	C.2	1	UNK0	0.000	
3	   C	3.613	2.579	0.960	C.2	1	UNK0	0.000	
4	   C	2.885	1.982	1.975	C.2	1	UNK0	0.000	
5	   C	2.038	2.753	2.751	C.2	1	UNK0	0.000	
6	   N	1.481	1.916	3.634	N.pl3	1	UNK0	0.000	
7	   C	1.945	0.649	3.443	C.2	1	UNK0	0.000	
8	   C	2.842	0.668	2.389	C.2	1	UNK0	0.000	
9	   C	3.600	-0.470	1.810	C.3	1	UNK0	0.000	
10	   C	2.948	-0.905	0.490	C.3	1	UNK0	0.000	
11	   N	1.580	-1.312	0.713	N.pl3	1	UNK0	0.000	
12	   C	1.171	-2.373	1.553	C.2	1	UNK0	0.000	
13	   O	2.048	-3.031	2.161	O.2	1	UNK0	0.000	
14	   C	-0.242	-2.739	1.745	C.3	1	UNK0	0.000	
15	   N	-1.141	-1.901	0.986	N.pl3	1	UNK0	0.000	
16	   N	-1.539	-2.172	-0.243	N.2	1	UNK0	0.000	
17	   C	-2.378	-1.394	-0.959	C.2	1	UNK0	0.000	
18	   C	-2.848	-0.242	-0.364	C.2	1	UNK0	0.000	
19	   C	-2.462	0.089	0.923	C.2	1	UNK0	0.000	
20	   C	-1.603	-0.778	1.558	C.2	1	UNK0	0.000	
21	   O	-1.267	-0.449	2.735	O.2	1	UNK0	0.000	
22	   N	-2.759	-1.764	-2.280	N.pl3	1	UNK0	0.000	
23	   C	-3.618	-0.879	-3.038	C.3	1	UNK0	0.000	
24	   C	-3.507	-1.153	-4.522	C.3	1	UNK0	0.000	
25	   O	-3.423	-2.516	-4.800	O.3	1	UNK0	0.000	
26	   C	-2.154	-2.914	-4.325	C.3	1	UNK0	0.000	
27	   C	-2.275	-3.017	-2.823	C.3	1	UNK0	0.000	
28	   C	1.893	4.123	2.543	C.2	1	UNK0	0.000	
29	   C	2.649	4.650	1.514	C.2	1	UNK0	0.000	
30	   H	4.272	1.950	0.366	 H	1	UNK0	0.000	
31	   H	0.791	2.234	4.352	 H	1	UNK0	0.000	
32	   H	1.647	-0.206	4.029	 H	1	UNK0	0.000	
33	   H	4.647	-0.164	1.643	 H	1	UNK0	0.000	
34	   H	3.570	-1.322	2.502	 H	1	UNK0	0.000	
35	   H	3.521	-1.716	0.030	 H	1	UNK0	0.000	
36	   H	3.003	-0.012	-0.163	 H	1	UNK0	0.000	
37	   H	0.835	-0.779	0.214	 H	1	UNK0	0.000	
38	   H	-0.390	-3.778	1.377	 H	1	UNK0	0.000	
39	   H	-0.552	-2.716	2.812	 H	1	UNK0	0.000	
40	   H	-3.522	0.407	-0.905	 H	1	UNK0	0.000	
41	   H	-2.851	0.998	1.352	 H	1	UNK0	0.000	
42	   H	-4.668	-0.951	-2.716	 H	1	UNK0	0.000	
43	   H	-3.225	0.166	-2.904	 H	1	UNK0	0.000	
44	   H	-4.332	-0.682	-5.074	 H	1	UNK0	0.000	
45	   H	-2.565	-0.701	-4.946	 H	1	UNK0	0.000	
46	   H	-1.427	-2.102	-4.550	 H	1	UNK0	0.000	
47	   H	-1.857	-3.864	-4.767	 H	1	UNK0	0.000	
48	   H	-1.309	-3.234	-2.340	 H	1	UNK0	0.000	
49	   H	-3.013	-3.808	-2.540	 H	1	UNK0	0.000	
50	   H	1.225	4.707	3.161	 H	1	UNK0	0.000	
51	   H	2.555	5.709	1.333	 H	1	UNK0	0.000	
@<TRIPOS>BOND
1 1 2 1
2 2 3 2
3 2 29 1
4 3 4 1
5 4 5 2
6 4 8 1
7 5 6 1
8 5 28 1
9 6 7 1
10 7 8 2
11 8 9 1
12 9 10 1
13 10 11 1
14 11 12 1
15 12 13 2
16 12 14 1
17 14 15 1
18 15 16 1
19 15 20 1
20 16 17 2
21 17 18 1
22 17 22 1
23 18 19 2
24 19 20 1
25 20 21 2
26 22 23 1
27 22 27 1
28 23 24 1
29 24 25 1
30 25 26 1
31 26 27 1
32 28 29 2
33 3 30 1
34 6 31 1
35 7 32 1
36 9 33 1
37 9 34 1
38 10 35 1
39 10 36 1
40 11 37 1
41 14 38 1
42 14 39 1
43 18 40 1
44 19 41 1
45 23 42 1
46 23 43 1
47 24 44 1
48 24 45 1
49 26 46 1
50 26 47 1
51 27 48 1
52 27 49 1
53 28 50 1
54 29 51 1
@<TRIPOS>SUBSTRUCTURE
1	UNK0	1	GROUP	1 ****	UNK
