# created with PyMOL 2.3.2
@<TRIPOS>MOLECULE
2120
56 59 1                 
SMALL
USER_CHARGES
@<TRIPOS>ATOM
1	  Cl	-6.935	1.907	6.189	Cl	1	UNK0	0.000	
2	   C	-6.011	1.031	4.990	C.2	1	UNK0	0.000	
3	   C	-5.132	1.703	4.159	C.2	1	UNK0	0.000	
4	   C	-4.380	1.049	3.195	C.2	1	UNK0	0.000	
5	   C	-4.533	-0.314	3.085	C.2	1	UNK0	0.000	
6	   N	-3.706	-0.699	2.094	N.pl3	1	UNK0	0.000	
7	   C	-3.036	0.338	1.568	C.2	1	UNK0	0.000	
8	   C	-3.453	1.456	2.257	C.2	1	UNK0	0.000	
9	   C	-2.047	0.293	0.468	C.2	1	UNK0	0.000	
10	   O	-1.509	1.345	0.086	O.2	1	UNK0	0.000	
11	   N	-1.747	-0.967	-0.116	N.pl3	1	UNK0	0.000	
12	   C	-0.786	-1.029	-1.186	C.3	1	UNK0	0.000	
13	   C	0.324	-2.039	-0.912	C.3	1	UNK0	0.000	
14	   C	1.413	-1.716	-1.913	C.3	1	UNK0	0.000	
15	   C	0.917	-1.869	-3.305	C.3	1	UNK0	0.000	
16	   C	-0.418	-1.269	-3.580	C.3	1	UNK0	0.000	
17	   C	-1.427	-1.491	-2.488	C.3	1	UNK0	0.000	
18	   N	1.972	-0.483	-1.566	N.3	1	UNK0	0.000	
19	   C	2.654	-0.442	-0.306	C.3	1	UNK0	0.000	
20	   C	2.297	0.923	0.309	C.3	1	UNK0	0.000	
21	   N	2.895	1.882	-0.619	N.pl3	1	UNK0	0.000	
22	   C	2.604	1.790	-2.027	C.3	1	UNK0	0.000	
23	   C	2.554	0.351	-2.525	C.3	1	UNK0	0.000	
24	   C	3.747	2.877	-0.108	C.2	1	UNK0	0.000	
25	   O	3.987	2.942	1.111	O.2	1	UNK0	0.000	
26	   C	4.358	3.851	-1.031	C.3	1	UNK0	0.000	
27	   O	-0.248	-3.291	-1.187	O.3	1	UNK0	0.000	
28	   C	-5.417	-0.987	3.921	C.2	1	UNK0	0.000	
29	   C	-6.161	-0.332	4.876	C.2	1	UNK0	0.000	
30	   H	-4.994	2.778	4.225	 H	1	UNK0	0.000	
31	   H	-3.580	-1.678	1.753	 H	1	UNK0	0.000	
32	   H	-3.123	2.472	2.099	 H	1	UNK0	0.000	
33	   H	-2.203	-1.836	0.209	 H	1	UNK0	0.000	
34	   H	-0.351	-0.036	-1.406	 H	1	UNK0	0.000	
35	   H	0.632	-1.995	0.130	 H	1	UNK0	0.000	
36	   H	2.189	-2.539	-1.776	 H	1	UNK0	0.000	
37	   H	1.641	-1.514	-4.053	 H	1	UNK0	0.000	
38	   H	0.817	-2.979	-3.507	 H	1	UNK0	0.000	
39	   H	-0.390	-0.187	-3.812	 H	1	UNK0	0.000	
40	   H	-0.826	-1.767	-4.497	 H	1	UNK0	0.000	
41	   H	-2.320	-0.899	-2.732	 H	1	UNK0	0.000	
42	   H	-1.686	-2.555	-2.354	 H	1	UNK0	0.000	
43	   H	3.779	-0.366	-0.457	 H	1	UNK0	0.000	
44	   H	2.465	-1.265	0.379	 H	1	UNK0	0.000	
45	   H	1.202	1.006	0.200	 H	1	UNK0	0.000	
46	   H	2.667	1.033	1.324	 H	1	UNK0	0.000	
47	   H	3.341	2.320	-2.663	 H	1	UNK0	0.000	
48	   H	1.593	2.254	-2.186	 H	1	UNK0	0.000	
49	   H	3.585	0.032	-2.818	 H	1	UNK0	0.000	
50	   H	1.910	0.407	-3.448	 H	1	UNK0	0.000	
51	   H	4.929	4.647	-0.523	 H	1	UNK0	0.000	
52	   H	5.050	3.291	-1.706	 H	1	UNK0	0.000	
53	   H	3.581	4.285	-1.709	 H	1	UNK0	0.000	
54	   H	0.512	-3.917	-1.285	 H	1	UNK0	0.000	
55	   H	-5.535	-2.057	3.830	 H	1	UNK0	0.000	
56	   H	-6.856	-0.859	5.537	 H	1	UNK0	0.000	
@<TRIPOS>BOND
1 1 2 1
2 2 3 2
3 2 29 1
4 3 4 1
5 4 5 2
6 4 8 1
7 5 6 1
8 5 28 1
9 6 7 1
10 7 8 2
11 7 9 1
12 9 10 2
13 9 11 1
14 11 12 1
15 12 13 1
16 12 17 1
17 13 14 1
18 13 27 1
19 14 15 1
20 14 18 1
21 15 16 1
22 16 17 1
23 18 19 1
24 18 23 1
25 19 20 1
26 20 21 1
27 21 22 1
28 21 24 1
29 22 23 1
30 24 25 2
31 24 26 1
32 28 29 2
33 3 30 1
34 6 31 1
35 8 32 1
36 11 33 1
37 12 34 1
38 13 35 1
39 14 36 1
40 15 37 1
41 15 38 1
42 16 39 1
43 16 40 1
44 17 41 1
45 17 42 1
46 19 43 1
47 19 44 1
48 20 45 1
49 20 46 1
50 22 47 1
51 22 48 1
52 23 49 1
53 23 50 1
54 26 51 1
55 26 52 1
56 26 53 1
57 27 54 1
58 28 55 1
59 29 56 1
@<TRIPOS>SUBSTRUCTURE
1	UNK0	1	GROUP	1 ****	UNK
