# created with PyMOL 2.3.2
@<TRIPOS>MOLECULE
2121
56 59 1                 
SMALL
USER_CHARGES
@<TRIPOS>ATOM
1	  Cl	0.518	8.079	2.238	Cl	1	UNK0	0.000	
2	   C	0.910	6.360	2.144	C.2	1	UNK0	0.000	
3	   C	-0.109	5.470	2.032	C.2	1	UNK0	0.000	
4	   C	0.233	4.115	1.962	C.2	1	UNK0	0.000	
5	   C	1.515	3.689	2.002	C.2	1	UNK0	0.000	
6	   N	1.488	2.324	1.918	N.pl3	1	UNK0	0.000	
7	   C	0.233	1.878	1.827	C.2	1	UNK0	0.000	
8	   C	-0.584	3.007	1.853	C.2	1	UNK0	0.000	
9	   C	-0.279	0.537	1.751	C.2	1	UNK0	0.000	
10	   O	-1.610	0.492	1.605	O.2	1	UNK0	0.000	
11	   N	0.305	-0.711	1.795	N.pl3	1	UNK0	0.000	
12	   C	-0.707	-1.791	1.623	C.3	1	UNK0	0.000	
13	   C	-0.847	-2.105	0.146	C.3	1	UNK0	0.000	
14	   C	0.387	-1.649	-0.534	C.3	1	UNK0	0.000	
15	   C	1.595	-2.332	0.020	C.3	1	UNK0	0.000	
16	   C	2.440	-1.229	0.681	C.3	1	UNK0	0.000	
17	   C	1.694	-0.939	1.997	C.3	1	UNK0	0.000	
18	   O	2.336	-3.032	-0.930	O.3	1	UNK0	0.000	
19	   N	0.416	-1.668	-1.962	N.3	1	UNK0	0.000	
20	   C	0.573	-0.378	-2.585	C.3	1	UNK0	0.000	
21	   C	-0.580	0.512	-2.314	C.3	1	UNK0	0.000	
22	   N	-1.777	-0.206	-2.766	N.pl3	1	UNK0	0.000	
23	   C	-1.547	-1.500	-3.354	C.3	1	UNK0	0.000	
24	   C	-0.665	-2.410	-2.552	C.3	1	UNK0	0.000	
25	   C	-3.065	0.395	-2.627	C.2	1	UNK0	0.000	
26	   O	-4.070	-0.225	-2.999	O.2	1	UNK0	0.000	
27	   C	-3.151	1.766	-2.032	C.3	1	UNK0	0.000	
28	   C	2.531	4.599	2.115	C.2	1	UNK0	0.000	
29	   C	2.227	5.950	2.187	C.2	1	UNK0	0.000	
30	   H	-1.134	5.776	1.999	 H	1	UNK0	0.000	
31	   H	2.362	1.783	1.914	 H	1	UNK0	0.000	
32	   H	-1.653	2.986	1.794	 H	1	UNK0	0.000	
33	   H	-1.682	-1.467	1.993	 H	1	UNK0	0.000	
34	   H	-0.376	-2.642	2.237	 H	1	UNK0	0.000	
35	   H	-1.785	-1.711	-0.273	 H	1	UNK0	0.000	
36	   H	-0.940	-3.238	0.129	 H	1	UNK0	0.000	
37	   H	0.431	-0.520	-0.293	 H	1	UNK0	0.000	
38	   H	1.381	-3.056	0.851	 H	1	UNK0	0.000	
39	   H	3.454	-1.543	0.887	 H	1	UNK0	0.000	
40	   H	2.337	-0.343	0.013	 H	1	UNK0	0.000	
41	   H	2.258	-0.226	2.559	 H	1	UNK0	0.000	
42	   H	1.831	-1.929	2.579	 H	1	UNK0	0.000	
43	   H	1.661	-3.371	-1.603	 H	1	UNK0	0.000	
44	   H	0.657	-0.567	-3.689	 H	1	UNK0	0.000	
45	   H	1.549	0.058	-2.249	 H	1	UNK0	0.000	
46	   H	-0.637	0.823	-1.270	 H	1	UNK0	0.000	
47	   H	-0.465	1.406	-2.981	 H	1	UNK0	0.000	
48	   H	-1.111	-1.307	-4.370	 H	1	UNK0	0.000	
49	   H	-2.539	-2.015	-3.557	 H	1	UNK0	0.000	
50	   H	-0.220	-3.149	-3.265	 H	1	UNK0	0.000	
51	   H	-1.242	-3.019	-1.832	 H	1	UNK0	0.000	
52	   H	-2.158	2.092	-1.689	 H	1	UNK0	0.000	
53	   H	-3.548	2.458	-2.823	 H	1	UNK0	0.000	
54	   H	-3.863	1.740	-1.207	 H	1	UNK0	0.000	
55	   H	3.569	4.293	2.146	 H	1	UNK0	0.000	
56	   H	2.982	6.710	2.277	 H	1	UNK0	0.000	
@<TRIPOS>BOND
1 1 2 1
2 2 3 2
3 2 29 1
4 3 4 1
5 4 5 2
6 4 8 1
7 5 6 1
8 5 28 1
9 6 7 1
10 7 8 2
11 7 9 1
12 9 10 2
13 9 11 1
14 11 12 1
15 11 17 1
16 12 13 1
17 13 14 1
18 14 15 1
19 14 19 1
20 15 16 1
21 15 18 1
22 16 17 1
23 19 20 1
24 19 24 1
25 20 21 1
26 21 22 1
27 22 23 1
28 22 25 1
29 23 24 1
30 25 26 2
31 25 27 1
32 28 29 2
33 3 30 1
34 6 31 1
35 8 32 1
36 12 33 1
37 12 34 1
38 13 35 1
39 13 36 1
40 14 37 1
41 15 38 1
42 16 39 1
43 16 40 1
44 17 41 1
45 17 42 1
46 18 43 1
47 20 44 1
48 20 45 1
49 21 46 1
50 21 47 1
51 23 48 1
52 23 49 1
53 24 50 1
54 24 51 1
55 27 52 1
56 27 53 1
57 27 54 1
58 28 55 1
59 29 56 1
@<TRIPOS>SUBSTRUCTURE
1	UNK0	1	GROUP	1 ****	UNK
