# created with PyMOL 2.3.2
@<TRIPOS>MOLECULE
2123
39 42 1                 
SMALL
USER_CHARGES
@<TRIPOS>ATOM
1	  Br	-0.725	-1.301	-7.479	Br	1	UNK0	0.000	
2	   C	-1.389	0.128	-6.398	C.2	1	UNK0	0.000	
3	   C	-2.175	-0.002	-5.287	C.2	1	UNK0	0.000	
4	   N	-2.437	1.213	-4.800	N.pl3	1	UNK0	0.000	
5	   N	-1.840	2.096	-5.571	N.2	1	UNK0	0.000	
6	   C	-1.183	1.474	-6.567	C.2	1	UNK0	0.000	
7	   C	-3.232	1.525	-3.636	C.3	1	UNK0	0.000	
8	   N	-2.331	1.542	-2.501	N.pl3	1	UNK0	0.000	
9	   N	-2.001	0.535	-1.712	N.2	1	UNK0	0.000	
10	   C	-1.142	0.938	-0.775	C.2	1	UNK0	0.000	
11	   C	-0.934	2.281	-1.008	C.2	1	UNK0	0.000	
12	   C	-1.685	2.647	-2.093	C.2	1	UNK0	0.000	
13	   C	-0.537	0.143	0.284	C.2	1	UNK0	0.000	
14	   O	-0.840	-1.071	0.350	O.2	1	UNK0	0.000	
15	   N	0.366	0.677	1.228	N.pl3	1	UNK0	0.000	
16	   N	0.885	-0.176	2.199	N.2	1	UNK0	0.000	
17	   C	2.040	-0.093	2.712	C.2	1	UNK0	0.000	
18	   C	2.549	-1.013	3.734	C.2	1	UNK0	0.000	
19	   C	1.789	-2.056	4.220	C.2	1	UNK0	0.000	
20	   C	2.225	-2.926	5.163	C.2	1	UNK0	0.000	
21	   C	3.489	-2.777	5.675	C.2	1	UNK0	0.000	
22	   C	4.272	-1.741	5.207	C.2	1	UNK0	0.000	
23	   C	3.818	-0.862	4.247	C.2	1	UNK0	0.000	
24	   O	3.650	-3.794	6.603	O.3	1	UNK0	0.000	
25	   C	2.592	-4.722	6.451	C.3	1	UNK0	0.000	
26	   O	1.586	-4.011	5.745	O.3	1	UNK0	0.000	
27	   H	-2.524	-0.964	-4.879	 H	1	UNK0	0.000	
28	   H	-0.595	1.940	-7.364	 H	1	UNK0	0.000	
29	   H	-3.679	2.540	-3.750	 H	1	UNK0	0.000	
30	   H	-4.029	0.751	-3.498	 H	1	UNK0	0.000	
31	   H	-0.304	2.934	-0.453	 H	1	UNK0	0.000	
32	   H	-1.726	3.652	-2.517	 H	1	UNK0	0.000	
33	   H	0.611	1.682	1.166	 H	1	UNK0	0.000	
34	   H	2.700	0.697	2.386	 H	1	UNK0	0.000	
35	   H	0.779	-2.147	3.787	 H	1	UNK0	0.000	
36	   H	5.284	-1.637	5.630	 H	1	UNK0	0.000	
37	   H	4.490	-0.075	3.930	 H	1	UNK0	0.000	
38	   H	2.209	-5.094	7.426	 H	1	UNK0	0.000	
39	   H	2.977	-5.571	5.835	 H	1	UNK0	0.000	
@<TRIPOS>BOND
1 1 2 1
2 2 3 2
3 2 6 1
4 3 4 1
5 4 5 1
6 4 7 1
7 5 6 2
8 7 8 1
9 8 9 1
10 8 12 1
11 9 10 2
12 10 11 1
13 10 13 1
14 11 12 2
15 13 14 2
16 13 15 1
17 15 16 1
18 16 17 2
19 17 18 1
20 18 19 2
21 18 23 1
22 19 20 1
23 20 21 2
24 20 26 1
25 21 22 1
26 21 24 1
27 22 23 2
28 24 25 1
29 25 26 1
30 3 27 1
31 6 28 1
32 7 29 1
33 7 30 1
34 11 31 1
35 12 32 1
36 15 33 1
37 17 34 1
38 19 35 1
39 22 36 1
40 23 37 1
41 25 38 1
42 25 39 1
@<TRIPOS>SUBSTRUCTURE
1	UNK0	1	GROUP	1 ****	UNK
