# created with PyMOL 2.3.2
@<TRIPOS>MOLECULE
2125
44 47 1                 
SMALL
USER_CHARGES
@<TRIPOS>ATOM
1	  Cl	0.656	-4.993	5.396	Cl	1	UNK0	0.000	
2	   C	0.352	-3.779	4.158	C.2	1	UNK0	0.000	
3	   C	0.465	-2.419	4.418	C.2	1	UNK0	0.000	
4	   C	0.221	-1.482	3.428	C.2	1	UNK0	0.000	
5	   C	-0.136	-1.879	2.179	C.2	1	UNK0	0.000	
6	   C	-0.244	-3.242	1.936	C.2	1	UNK0	0.000	
7	   C	-0.009	-4.204	2.896	C.2	1	UNK0	0.000	
8	   N	-0.404	-0.955	1.102	N.pl3	1	UNK0	0.000	
9	   C	-0.031	-1.186	-0.248	C.2	1	UNK0	0.000	
10	   O	0.616	-2.174	-0.643	O.2	1	UNK0	0.000	
11	   C	-0.528	-0.091	-1.062	C.3	1	UNK0	0.000	
12	   C	0.497	0.888	-1.512	C.3	1	UNK0	0.000	
13	   O	-0.326	2.022	-1.744	O.3	1	UNK0	0.000	
14	   C	-0.793	2.144	-0.408	C.3	1	UNK0	0.000	
15	   C	-1.377	0.790	-0.131	C.3	1	UNK0	0.000	
16	   C	-1.062	0.287	1.224	C.2	1	UNK0	0.000	
17	   O	-1.335	0.867	2.296	O.2	1	UNK0	0.000	
18	   C	0.513	2.238	0.298	C.2	1	UNK0	0.000	
19	   C	1.326	1.427	-0.401	C.2	1	UNK0	0.000	
20	   C	1.279	0.511	-2.722	C.3	1	UNK0	0.000	
21	   O	2.069	-0.615	-2.398	O.3	1	UNK0	0.000	
22	   C	3.451	-0.618	-2.489	C.2	1	UNK0	0.000	
23	   O	4.000	0.438	-2.877	O.co2	1	UNK0	0.000	
24	   C	4.200	-1.837	-2.133	C.3	1	UNK0	0.000	
25	   O	0.433	0.184	-3.824	O.3	1	UNK0	0.000	
26	   C	0.455	0.890	-5.020	C.2	1	UNK0	0.000	
27	   O	1.262	1.852	-5.105	O.co2	1	UNK0	0.000	
28	   C	-0.447	0.521	-6.159	C.3	1	UNK0	0.000	
29	   H	0.750	-2.118	5.419	 H	1	UNK0	0.000	
30	   H	0.314	-0.413	3.646	 H	1	UNK0	0.000	
31	   H	-0.528	-3.601	0.944	 H	1	UNK0	0.000	
32	   H	-0.094	-5.262	2.710	 H	1	UNK0	0.000	
33	   H	-1.117	-0.404	-1.947	 H	1	UNK0	0.000	
34	   H	-1.448	2.981	-0.261	 H	1	UNK0	0.000	
35	   H	-2.449	0.715	-0.385	 H	1	UNK0	0.000	
36	   H	0.731	2.832	1.173	 H	1	UNK0	0.000	
37	   H	2.362	1.252	-0.145	 H	1	UNK0	0.000	
38	   H	1.886	1.379	-3.051	 H	1	UNK0	0.000	
39	   H	4.375	-2.448	-3.043	 H	1	UNK0	0.000	
40	   H	5.201	-1.545	-1.694	 H	1	UNK0	0.000	
41	   H	3.693	-2.420	-1.335	 H	1	UNK0	0.000	
42	   H	0.118	-0.270	-6.721	 H	1	UNK0	0.000	
43	   H	-1.381	0.054	-5.830	 H	1	UNK0	0.000	
44	   H	-0.581	1.388	-6.832	 H	1	UNK0	0.000	
@<TRIPOS>BOND
1 1 2 1
2 2 3 2
3 2 7 1
4 3 4 1
5 4 5 2
6 5 6 1
7 5 8 1
8 6 7 2
9 8 9 1
10 8 16 1
11 9 10 2
12 9 11 1
13 11 12 1
14 11 15 1
15 12 13 1
16 12 19 1
17 12 20 1
18 13 14 1
19 14 15 1
20 14 18 1
21 15 16 1
22 16 17 2
23 18 19 2
24 20 21 1
25 20 25 1
26 21 22 1
27 22 23 2
28 22 24 1
29 25 26 1
30 26 27 2
31 26 28 1
32 3 29 1
33 4 30 1
34 6 31 1
35 7 32 1
36 11 33 1
37 14 34 1
38 15 35 1
39 18 36 1
40 19 37 1
41 20 38 1
42 24 39 1
43 24 40 1
44 24 41 1
45 28 42 1
46 28 43 1
47 28 44 1
@<TRIPOS>SUBSTRUCTURE
1	UNK0	1	GROUP	1 ****	UNK
