# created with PyMOL 2.3.2
@<TRIPOS>MOLECULE
2126
48 51 1                 
SMALL
USER_CHARGES
@<TRIPOS>ATOM
1	  Cl	6.322	4.145	3.139	Cl	1	UNK0	0.000	
2	   C	5.237	4.472	1.788	C.2	1	UNK0	0.000	
3	   C	3.938	3.990	1.602	C.2	1	UNK0	0.000	
4	   N	3.489	4.481	0.458	N.pl3	1	UNK0	0.000	
5	   N	4.438	5.250	-0.090	N.2	1	UNK0	0.000	
6	   C	5.517	5.264	0.698	C.2	1	UNK0	0.000	
7	   C	2.218	4.280	-0.192	C.3	1	UNK0	0.000	
8	   C	2.263	3.124	-1.139	C.3	1	UNK0	0.000	
9	   N	2.558	1.858	-0.504	N.3	1	UNK0	0.000	
10	   C	2.727	0.870	-1.556	C.3	1	UNK0	0.000	
11	   C	1.374	0.369	-1.987	C.3	1	UNK0	0.000	
12	   N	0.913	-0.456	-0.860	N.pl3	1	UNK0	0.000	
13	   N	0.400	-1.633	-0.662	N.2	1	UNK0	0.000	
14	   C	0.171	-1.887	0.638	C.2	1	UNK0	0.000	
15	   C	0.576	-0.764	1.323	C.2	1	UNK0	0.000	
16	   C	1.039	0.123	0.367	C.2	1	UNK0	0.000	
17	   C	1.593	1.492	0.486	C.3	1	UNK0	0.000	
18	   C	-0.408	-3.145	1.233	C.3	1	UNK0	0.000	
19	   C	-0.705	-4.136	0.128	C.3	1	UNK0	0.000	
20	   C	-1.678	-3.603	-0.849	C.2	1	UNK0	0.000	
21	   O	-2.143	-2.454	-0.672	O.2	1	UNK0	0.000	
22	   N	-2.109	-4.331	-1.979	N.pl3	1	UNK0	0.000	
23	   C	-3.060	-3.791	-2.922	C.3	1	UNK0	0.000	
24	   C	-3.070	-4.257	-4.333	C.3	1	UNK0	0.000	
25	   C	-4.131	-4.797	-3.443	C.3	1	UNK0	0.000	
26	   H	3.429	3.345	2.287	 H	1	UNK0	0.000	
27	   H	6.439	5.806	0.501	 H	1	UNK0	0.000	
28	   H	1.441	4.147	0.578	 H	1	UNK0	0.000	
29	   H	1.945	5.203	-0.752	 H	1	UNK0	0.000	
30	   H	1.286	3.106	-1.671	 H	1	UNK0	0.000	
31	   H	3.034	3.265	-1.928	 H	1	UNK0	0.000	
32	   H	3.299	0.029	-1.132	 H	1	UNK0	0.000	
33	   H	3.291	1.352	-2.379	 H	1	UNK0	0.000	
34	   H	1.507	-0.226	-2.900	 H	1	UNK0	0.000	
35	   H	0.646	1.156	-2.193	 H	1	UNK0	0.000	
36	   H	0.521	-0.652	2.394	 H	1	UNK0	0.000	
37	   H	2.040	1.635	1.501	 H	1	UNK0	0.000	
38	   H	0.773	2.260	0.430	 H	1	UNK0	0.000	
39	   H	-1.308	-2.925	1.839	 H	1	UNK0	0.000	
40	   H	0.386	-3.589	1.874	 H	1	UNK0	0.000	
41	   H	0.286	-4.342	-0.376	 H	1	UNK0	0.000	
42	   H	-1.010	-5.099	0.562	 H	1	UNK0	0.000	
43	   H	-1.729	-5.293	-2.138	 H	1	UNK0	0.000	
44	   H	-3.457	-2.778	-2.738	 H	1	UNK0	0.000	
45	   H	-3.405	-3.573	-5.124	 H	1	UNK0	0.000	
46	   H	-2.234	-4.923	-4.610	 H	1	UNK0	0.000	
47	   H	-5.170	-4.437	-3.472	 H	1	UNK0	0.000	
48	   H	-4.032	-5.835	-3.053	 H	1	UNK0	0.000	
@<TRIPOS>BOND
1 1 2 1
2 2 3 2
3 2 6 1
4 3 4 1
5 4 5 1
6 4 7 1
7 5 6 2
8 7 8 1
9 8 9 1
10 9 10 1
11 9 17 1
12 10 11 1
13 11 12 1
14 12 13 1
15 12 16 1
16 13 14 2
17 14 15 1
18 14 18 1
19 15 16 2
20 16 17 1
21 18 19 1
22 19 20 1
23 20 21 2
24 20 22 1
25 22 23 1
26 23 24 1
27 23 25 1
28 24 25 1
29 3 26 1
30 6 27 1
31 7 28 1
32 7 29 1
33 8 30 1
34 8 31 1
35 10 32 1
36 10 33 1
37 11 34 1
38 11 35 1
39 15 36 1
40 17 37 1
41 17 38 1
42 18 39 1
43 18 40 1
44 19 41 1
45 19 42 1
46 22 43 1
47 23 44 1
48 24 45 1
49 24 46 1
50 25 47 1
51 25 48 1
@<TRIPOS>SUBSTRUCTURE
1	UNK0	1	GROUP	1 ****	UNK
