# created with PyMOL 2.3.2
@<TRIPOS>MOLECULE
2131
62 65 1                 
SMALL
USER_CHARGES
@<TRIPOS>ATOM
1	  Cl	-2.930	2.125	4.634	Cl	1	UNK0	0.000	
2	   C	-3.002	2.656	2.953	C.2	1	UNK0	0.000	
3	   C	-2.219	2.045	2.014	C.2	1	UNK0	0.000	
4	   C	-2.275	2.457	0.708	C.2	1	UNK0	0.000	
5	   C	-3.117	3.480	0.367	C.2	1	UNK0	0.000	
6	   C	-3.899	4.087	1.314	C.2	1	UNK0	0.000	
7	   C	-3.856	3.679	2.650	C.2	1	UNK0	0.000	
8	   O	-1.526	1.893	-0.268	O.3	1	UNK0	0.000	
9	   C	-0.575	0.872	-0.233	C.3	1	UNK0	0.000	
10	   C	0.649	1.292	-0.962	C.3	1	UNK0	0.000	
11	   C	0.303	1.600	-2.440	C.3	1	UNK0	0.000	
12	   N	-1.107	1.165	-2.638	N.pl3	1	UNK0	0.000	
13	   C	-1.275	-0.246	-2.357	C.3	1	UNK0	0.000	
14	   C	-1.194	-0.385	-0.859	C.3	1	UNK0	0.000	
15	   C	-2.079	2.075	-3.045	C.2	1	UNK0	0.000	
16	   O	-1.619	3.283	-3.230	O.2	1	UNK0	0.000	
17	   C	-3.491	1.967	-3.305	C.3	1	UNK0	0.000	
18	   N	-4.164	0.732	-3.196	N.pl3	1	UNK0	0.000	
19	   N	-4.369	-0.159	-4.136	N.2	1	UNK0	0.000	
20	   C	-5.057	-1.214	-3.683	C.2	1	UNK0	0.000	
21	   C	-5.295	-0.949	-2.352	C.2	1	UNK0	0.000	
22	   C	-4.727	0.266	-2.084	C.2	1	UNK0	0.000	
23	   C	1.859	0.464	-0.885	C.3	1	UNK0	0.000	
24	   C	2.605	0.163	0.285	C.2	1	UNK0	0.000	
25	   O	3.534	-0.771	0.024	O.2	1	UNK0	0.000	
26	   N	2.653	0.561	1.621	N.pl3	1	UNK0	0.000	
27	   C	3.711	-0.028	2.514	C.3	1	UNK0	0.000	
28	   C	3.287	-0.016	3.930	C.3	1	UNK0	0.000	
29	   N	1.904	-0.135	4.201	N.3	1	UNK0	0.000	
30	   C	1.064	0.716	3.395	C.3	1	UNK0	0.000	
31	   C	1.832	1.493	2.344	C.3	1	UNK0	0.000	
32	   C	1.431	-1.497	4.307	C.3	1	UNK0	0.000	
33	   H	-1.589	1.254	2.349	 H	1	UNK0	0.000	
34	   H	-3.167	3.821	-0.694	 H	1	UNK0	0.000	
35	   H	-4.562	4.886	1.073	 H	1	UNK0	0.000	
36	   H	-4.464	4.151	3.377	 H	1	UNK0	0.000	
37	   H	-0.365	0.584	0.785	 H	1	UNK0	0.000	
38	   H	0.927	2.320	-0.575	 H	1	UNK0	0.000	
39	   H	0.901	0.930	-3.081	 H	1	UNK0	0.000	
40	   H	0.463	2.635	-2.714	 H	1	UNK0	0.000	
41	   H	-0.377	-0.807	-2.770	 H	1	UNK0	0.000	
42	   H	-2.128	-0.731	-2.802	 H	1	UNK0	0.000	
43	   H	-0.655	-1.305	-0.598	 H	1	UNK0	0.000	
44	   H	-2.219	-0.461	-0.462	 H	1	UNK0	0.000	
45	   H	-4.000	2.787	-2.689	 H	1	UNK0	0.000	
46	   H	-3.651	2.377	-4.362	 H	1	UNK0	0.000	
47	   H	-5.384	-2.100	-4.181	 H	1	UNK0	0.000	
48	   H	-5.844	-1.605	-1.646	 H	1	UNK0	0.000	
49	   H	-4.768	0.723	-1.088	 H	1	UNK0	0.000	
50	   H	2.646	0.855	-1.657	 H	1	UNK0	0.000	
51	   H	1.582	-0.518	-1.465	 H	1	UNK0	0.000	
52	   H	4.556	0.719	2.418	 H	1	UNK0	0.000	
53	   H	4.051	-0.979	2.100	 H	1	UNK0	0.000	
54	   H	3.661	0.863	4.524	 H	1	UNK0	0.000	
55	   H	3.785	-0.906	4.431	 H	1	UNK0	0.000	
56	   H	0.296	0.045	2.966	 H	1	UNK0	0.000	
57	   H	0.540	1.415	4.075	 H	1	UNK0	0.000	
58	   H	2.461	2.216	2.930	 H	1	UNK0	0.000	
59	   H	1.146	2.076	1.743	 H	1	UNK0	0.000	
60	   H	0.442	-1.678	3.879	 H	1	UNK0	0.000	
61	   H	1.359	-1.722	5.389	 H	1	UNK0	0.000	
62	   H	2.178	-2.204	3.877	 H	1	UNK0	0.000	
@<TRIPOS>BOND
1 1 2 1
2 2 3 2
3 2 7 1
4 3 4 1
5 4 5 2
6 4 8 1
7 5 6 1
8 6 7 2
9 8 9 1
10 9 10 1
11 9 14 1
12 10 11 1
13 10 23 1
14 11 12 1
15 12 13 1
16 12 15 1
17 13 14 1
18 15 16 2
19 15 17 1
20 17 18 1
21 18 19 1
22 18 22 1
23 19 20 2
24 20 21 1
25 21 22 2
26 23 24 1
27 24 25 2
28 24 26 1
29 26 27 1
30 26 31 1
31 27 28 1
32 28 29 1
33 29 30 1
34 29 32 1
35 30 31 1
36 3 33 1
37 5 34 1
38 6 35 1
39 7 36 1
40 9 37 1
41 10 38 1
42 11 39 1
43 11 40 1
44 13 41 1
45 13 42 1
46 14 43 1
47 14 44 1
48 17 45 1
49 17 46 1
50 20 47 1
51 21 48 1
52 22 49 1
53 23 50 1
54 23 51 1
55 27 52 1
56 27 53 1
57 28 54 1
58 28 55 1
59 30 56 1
60 30 57 1
61 31 58 1
62 31 59 1
63 32 60 1
64 32 61 1
65 32 62 1
@<TRIPOS>SUBSTRUCTURE
1	UNK0	1	GROUP	1 ****	UNK
