# created with PyMOL 2.3.2
@<TRIPOS>MOLECULE
2132
58 61 1                 
SMALL
USER_CHARGES
@<TRIPOS>ATOM
1	  Cl	-5.766	1.903	-0.768	Cl	1	UNK0	0.000	
2	   C	-4.131	2.180	-0.156	C.2	1	UNK0	0.000	
3	   C	-3.095	2.378	-1.029	C.2	1	UNK0	0.000	
4	   C	-1.797	2.598	-0.576	C.2	1	UNK0	0.000	
5	   C	-1.546	2.619	0.757	C.2	1	UNK0	0.000	
6	   C	-2.625	2.413	1.643	C.2	1	UNK0	0.000	
7	   C	-3.905	2.195	1.201	C.2	1	UNK0	0.000	
8	   N	-0.288	2.808	1.334	N.pl3	1	UNK0	0.000	
9	   C	0.933	2.644	0.639	C.2	1	UNK0	0.000	
10	   O	0.914	2.296	-0.559	O.2	1	UNK0	0.000	
11	   N	2.185	2.866	1.278	N.pl3	1	UNK0	0.000	
12	   C	3.452	2.716	0.716	C.3	1	UNK0	0.000	
13	   C	4.038	1.418	0.390	C.3	1	UNK0	0.000	
14	   O	3.537	0.477	-0.433	O.3	1	UNK0	0.000	
15	   C	2.466	-0.353	-0.339	C.2	1	UNK0	0.000	
16	   N	1.600	-0.442	0.679	N.2	1	UNK0	0.000	
17	   C	0.549	-1.268	0.751	C.2	1	UNK0	0.000	
18	   N	0.360	-2.085	-0.315	N.2	1	UNK0	0.000	
19	   C	1.179	-2.069	-1.389	C.2	1	UNK0	0.000	
20	   N	2.205	-1.214	-1.383	N.2	1	UNK0	0.000	
21	   N	0.966	-2.933	-2.501	N.pl3	1	UNK0	0.000	
22	   C	-0.138	-3.862	-2.494	C.3	1	UNK0	0.000	
23	   C	-0.815	-3.803	-3.860	C.3	1	UNK0	0.000	
24	   O	0.146	-4.169	-4.808	O.3	1	UNK0	0.000	
25	   C	1.055	-3.141	-4.942	C.3	1	UNK0	0.000	
26	   C	1.839	-2.898	-3.648	C.3	1	UNK0	0.000	
27	   N	-0.326	-1.306	1.870	N.pl3	1	UNK0	0.000	
28	   C	-1.435	-2.202	1.878	C.3	1	UNK0	0.000	
29	   C	-1.999	-2.432	3.261	C.3	1	UNK0	0.000	
30	   O	-1.891	-1.332	4.092	O.3	1	UNK0	0.000	
31	   C	-0.523	-1.054	4.281	C.3	1	UNK0	0.000	
32	   C	-0.060	-0.427	2.977	C.3	1	UNK0	0.000	
33	   H	-3.324	2.356	-2.093	 H	1	UNK0	0.000	
34	   H	-1.041	2.759	-1.312	 H	1	UNK0	0.000	
35	   H	-2.421	2.429	2.714	 H	1	UNK0	0.000	
36	   H	-4.718	2.040	1.908	 H	1	UNK0	0.000	
37	   H	-0.245	3.101	2.366	 H	1	UNK0	0.000	
38	   H	2.104	3.180	2.297	 H	1	UNK0	0.000	
39	   H	3.562	3.442	-0.188	 H	1	UNK0	0.000	
40	   H	4.204	3.234	1.437	 H	1	UNK0	0.000	
41	   H	5.165	1.621	0.098	 H	1	UNK0	0.000	
42	   H	4.283	0.939	1.443	 H	1	UNK0	0.000	
43	   H	0.224	-4.912	-2.298	 H	1	UNK0	0.000	
44	   H	-0.882	-3.623	-1.706	 H	1	UNK0	0.000	
45	   H	-1.090	-2.746	-4.029	 H	1	UNK0	0.000	
46	   H	-1.699	-4.481	-3.882	 H	1	UNK0	0.000	
47	   H	0.501	-2.210	-5.228	 H	1	UNK0	0.000	
48	   H	1.800	-3.413	-5.712	 H	1	UNK0	0.000	
49	   H	2.295	-1.876	-3.784	 H	1	UNK0	0.000	
50	   H	2.606	-3.674	-3.602	 H	1	UNK0	0.000	
51	   H	-1.075	-3.212	1.526	 H	1	UNK0	0.000	
52	   H	-2.206	-1.898	1.153	 H	1	UNK0	0.000	
53	   H	-3.079	-2.671	3.160	 H	1	UNK0	0.000	
54	   H	-1.532	-3.315	3.765	 H	1	UNK0	0.000	
55	   H	-0.421	-0.267	5.062	 H	1	UNK0	0.000	
56	   H	0.035	-1.964	4.540	 H	1	UNK0	0.000	
57	   H	1.015	-0.126	3.015	 H	1	UNK0	0.000	
58	   H	-0.665	0.479	2.835	 H	1	UNK0	0.000	
@<TRIPOS>BOND
1 1 2 1
2 2 3 2
3 2 7 1
4 3 4 1
5 4 5 2
6 5 6 1
7 5 8 1
8 6 7 2
9 8 9 1
10 9 10 2
11 9 11 1
12 11 12 1
13 12 13 1
14 13 14 1
15 14 15 1
16 15 16 2
17 15 20 1
18 16 17 1
19 17 18 2
20 17 27 1
21 18 19 1
22 19 20 2
23 19 21 1
24 21 22 1
25 21 26 1
26 22 23 1
27 23 24 1
28 24 25 1
29 25 26 1
30 27 28 1
31 27 32 1
32 28 29 1
33 29 30 1
34 30 31 1
35 31 32 1
36 3 33 1
37 4 34 1
38 6 35 1
39 7 36 1
40 8 37 1
41 11 38 1
42 12 39 1
43 12 40 1
44 13 41 1
45 13 42 1
46 22 43 1
47 22 44 1
48 23 45 1
49 23 46 1
50 25 47 1
51 25 48 1
52 26 49 1
53 26 50 1
54 28 51 1
55 28 52 1
56 29 53 1
57 29 54 1
58 31 55 1
59 31 56 1
60 32 57 1
61 32 58 1
@<TRIPOS>SUBSTRUCTURE
1	UNK0	1	GROUP	1 ****	UNK
