# created with PyMOL 2.3.2
@<TRIPOS>MOLECULE
2133
51 54 1                 
SMALL
USER_CHARGES
@<TRIPOS>ATOM
1	  Cl	4.988	-7.030	3.750	Cl	1	UNK0	0.000	
2	   C	3.924	-5.650	3.510	C.2	1	UNK0	0.000	
3	   C	3.198	-5.136	4.564	C.2	1	UNK0	0.000	
4	   C	2.366	-4.059	4.383	C.2	1	UNK0	0.000	
5	   C	2.220	-3.444	3.139	C.2	1	UNK0	0.000	
6	   C	2.950	-3.971	2.106	C.2	1	UNK0	0.000	
7	   C	3.783	-5.046	2.282	C.2	1	UNK0	0.000	
8	   N	1.351	-2.350	3.035	N.pl3	1	UNK0	0.000	
9	   C	1.056	-1.582	1.891	C.2	1	UNK0	0.000	
10	   O	1.577	-1.821	0.782	O.2	1	UNK0	0.000	
11	   N	0.143	-0.489	1.938	N.pl3	1	UNK0	0.000	
12	   C	-0.133	0.264	0.773	C.3	1	UNK0	0.000	
13	   C	0.085	1.766	0.964	C.3	1	UNK0	0.000	
14	   N	-0.870	2.388	0.072	N.pl3	1	UNK0	0.000	
15	   C	-1.592	1.365	-0.651	C.3	1	UNK0	0.000	
16	   C	-1.628	0.266	0.419	C.3	1	UNK0	0.000	
17	   C	-2.920	1.787	-1.081	C.2	1	UNK0	0.000	
18	   O	-3.845	0.961	-1.137	O.2	1	UNK0	0.000	
19	   N	-3.184	3.133	-1.442	N.pl3	1	UNK0	0.000	
20	   C	-2.217	4.147	-1.166	C.3	1	UNK0	0.000	
21	   C	-1.185	3.743	-0.180	C.2	1	UNK0	0.000	
22	   O	-0.599	4.698	0.424	O.2	1	UNK0	0.000	
23	   C	-1.471	4.600	-2.423	C.3	1	UNK0	0.000	
24	   C	-0.766	3.438	-3.014	C.2	1	UNK0	0.000	
25	   C	0.525	3.095	-2.671	C.2	1	UNK0	0.000	
26	   C	1.173	2.014	-3.224	C.2	1	UNK0	0.000	
27	   C	0.527	1.231	-4.157	C.2	1	UNK0	0.000	
28	   C	-0.764	1.571	-4.502	C.2	1	UNK0	0.000	
29	   C	-1.415	2.662	-3.942	C.2	1	UNK0	0.000	
30	   O	1.167	0.123	-4.736	O.3	1	UNK0	0.000	
31	   H	3.311	-5.620	5.549	 H	1	UNK0	0.000	
32	   H	1.810	-3.690	5.260	 H	1	UNK0	0.000	
33	   H	2.899	-3.560	1.115	 H	1	UNK0	0.000	
34	   H	4.371	-5.473	1.456	 H	1	UNK0	0.000	
35	   H	0.847	-2.056	3.931	 H	1	UNK0	0.000	
36	   H	-0.342	-0.217	2.829	 H	1	UNK0	0.000	
37	   H	0.388	-0.046	-0.132	 H	1	UNK0	0.000	
38	   H	-0.099	1.988	2.018	 H	1	UNK0	0.000	
39	   H	1.135	2.011	0.646	 H	1	UNK0	0.000	
40	   H	-0.980	0.921	-1.483	 H	1	UNK0	0.000	
41	   H	-2.151	0.606	1.322	 H	1	UNK0	0.000	
42	   H	-1.958	-0.692	0.019	 H	1	UNK0	0.000	
43	   H	-4.070	3.433	-1.911	 H	1	UNK0	0.000	
44	   H	-2.795	5.043	-0.787	 H	1	UNK0	0.000	
45	   H	-0.707	5.328	-2.068	 H	1	UNK0	0.000	
46	   H	-2.164	5.079	-3.135	 H	1	UNK0	0.000	
47	   H	1.076	3.682	-1.940	 H	1	UNK0	0.000	
48	   H	2.184	1.739	-2.962	 H	1	UNK0	0.000	
49	   H	-1.279	0.963	-5.233	 H	1	UNK0	0.000	
50	   H	-2.430	2.853	-4.274	 H	1	UNK0	0.000	
51	   H	1.056	-0.762	-4.259	 H	1	UNK0	0.000	
@<TRIPOS>BOND
1 1 2 1
2 2 3 2
3 2 7 1
4 3 4 1
5 4 5 2
6 5 6 1
7 5 8 1
8 6 7 2
9 8 9 1
10 9 10 2
11 9 11 1
12 11 12 1
13 12 13 1
14 12 16 1
15 13 14 1
16 14 15 1
17 14 21 1
18 15 16 1
19 15 17 1
20 17 18 2
21 17 19 1
22 19 20 1
23 20 21 1
24 20 23 1
25 21 22 2
26 23 24 1
27 24 25 2
28 24 29 1
29 25 26 1
30 26 27 2
31 27 28 1
32 27 30 1
33 28 29 2
34 3 31 1
35 4 32 1
36 6 33 1
37 7 34 1
38 8 35 1
39 11 36 1
40 12 37 1
41 13 38 1
42 13 39 1
43 15 40 1
44 16 41 1
45 16 42 1
46 19 43 1
47 20 44 1
48 23 45 1
49 23 46 1
50 25 47 1
51 26 48 1
52 28 49 1
53 29 50 1
54 30 51 1
@<TRIPOS>SUBSTRUCTURE
1	UNK0	1	GROUP	1 ****	UNK
