# created with PyMOL 2.3.2
@<TRIPOS>MOLECULE
2135
52 55 1                 
SMALL
USER_CHARGES
@<TRIPOS>ATOM
1	  Cl	6.538	-2.177	-6.120	Cl	1	UNK0	0.000	
2	   C	5.628	-1.282	-4.909	C.2	1	UNK0	0.000	
3	   C	4.277	-1.092	-5.082	C.2	1	UNK0	0.000	
4	   C	3.555	-0.403	-4.158	C.2	1	UNK0	0.000	
5	   C	4.154	0.109	-3.047	C.2	1	UNK0	0.000	
6	   C	5.522	-0.085	-2.874	C.2	1	UNK0	0.000	
7	   C	6.252	-0.777	-3.801	C.2	1	UNK0	0.000	
8	   N	3.476	0.835	-2.042	N.pl3	1	UNK0	0.000	
9	   C	2.968	0.307	-0.926	C.2	1	UNK0	0.000	
10	   C	2.378	1.285	-0.169	C.2	1	UNK0	0.000	
11	   C	2.558	2.445	-0.894	C.2	1	UNK0	0.000	
12	   C	3.248	2.158	-2.069	C.2	1	UNK0	0.000	
13	   C	3.666	3.081	-3.154	C.3	1	UNK0	0.000	
14	   C	1.696	1.195	1.120	C.2	1	UNK0	0.000	
15	   N	1.556	0.077	1.756	N.2	1	UNK0	0.000	
16	   N	0.904	-0.014	2.990	N.pl3	1	UNK0	0.000	
17	   C	-0.503	-0.158	3.133	C.2	1	UNK0	0.000	
18	   N	-1.276	0.840	3.413	N.2	1	UNK0	0.000	
19	   C	-2.628	0.415	3.497	C.3	1	UNK0	0.000	
20	   N	-3.626	1.259	2.922	N.pl3	1	UNK0	0.000	
21	   C	-4.909	0.613	2.720	C.2	1	UNK0	0.000	
22	   O	-5.920	1.376	2.605	O.2	1	UNK0	0.000	
23	   N	-4.997	-0.805	2.659	N.pl3	1	UNK0	0.000	
24	   C	-3.789	-1.555	2.803	C.2	1	UNK0	0.000	
25	   O	-3.877	-2.766	3.107	O.2	1	UNK0	0.000	
26	   C	-2.572	-0.821	2.576	C.3	1	UNK0	0.000	
27	   N	-1.325	-1.346	3.003	N.pl3	1	UNK0	0.000	
28	   C	-6.298	-1.397	2.458	C.3	1	UNK0	0.000	
29	   C	-3.376	2.621	2.578	C.3	1	UNK0	0.000	
30	   C	3.039	-1.122	-0.572	C.3	1	UNK0	0.000	
31	   H	3.825	-1.520	-5.992	 H	1	UNK0	0.000	
32	   H	2.497	-0.266	-4.313	 H	1	UNK0	0.000	
33	   H	6.009	0.311	-2.007	 H	1	UNK0	0.000	
34	   H	7.332	-0.925	-3.655	 H	1	UNK0	0.000	
35	   H	2.249	3.456	-0.666	 H	1	UNK0	0.000	
36	   H	2.843	3.781	-3.436	 H	1	UNK0	0.000	
37	   H	4.547	3.699	-2.872	 H	1	UNK0	0.000	
38	   H	3.924	2.509	-4.043	 H	1	UNK0	0.000	
39	   H	1.273	2.063	1.606	 H	1	UNK0	0.000	
40	   H	1.478	0.026	3.849	 H	1	UNK0	0.000	
41	   H	-2.889	0.060	4.517	 H	1	UNK0	0.000	
42	   H	-2.442	-0.435	1.533	 H	1	UNK0	0.000	
43	   H	-0.962	-2.287	3.206	 H	1	UNK0	0.000	
44	   H	-6.291	-2.490	2.622	 H	1	UNK0	0.000	
45	   H	-6.552	-1.250	1.384	 H	1	UNK0	0.000	
46	   H	-7.092	-0.881	3.035	 H	1	UNK0	0.000	
47	   H	-2.370	2.759	2.105	 H	1	UNK0	0.000	
48	   H	-3.338	3.214	3.525	 H	1	UNK0	0.000	
49	   H	-4.183	3.034	1.938	 H	1	UNK0	0.000	
50	   H	2.989	-1.714	-1.519	 H	1	UNK0	0.000	
51	   H	2.136	-1.430	0.008	 H	1	UNK0	0.000	
52	   H	3.970	-1.387	-0.032	 H	1	UNK0	0.000	
@<TRIPOS>BOND
1 1 2 1
2 2 3 2
3 2 7 1
4 3 4 1
5 4 5 2
6 5 6 1
7 5 8 1
8 6 7 2
9 8 9 1
10 8 12 1
11 9 10 2
12 9 30 1
13 10 11 1
14 10 14 1
15 11 12 2
16 12 13 1
17 14 15 2
18 15 16 1
19 16 17 1
20 17 18 2
21 17 27 1
22 18 19 1
23 19 20 1
24 19 26 1
25 20 21 1
26 20 29 1
27 21 22 2
28 21 23 1
29 23 24 1
30 23 28 1
31 24 25 2
32 24 26 1
33 26 27 1
34 3 31 1
35 4 32 1
36 6 33 1
37 7 34 1
38 11 35 1
39 13 36 1
40 13 37 1
41 13 38 1
42 14 39 1
43 16 40 1
44 19 41 1
45 26 42 1
46 27 43 1
47 28 44 1
48 28 45 1
49 28 46 1
50 29 47 1
51 29 48 1
52 29 49 1
53 30 50 1
54 30 51 1
55 30 52 1
@<TRIPOS>SUBSTRUCTURE
1	UNK0	1	GROUP	1 ****	UNK
