# created with PyMOL 2.3.2
@<TRIPOS>MOLECULE
2136
53 57 1                 
SMALL
USER_CHARGES
@<TRIPOS>ATOM
1	  Cl	-6.809	0.214	0.210	Cl	1	UNK0	0.000	
2	   C	-5.371	0.265	-0.788	C.2	1	UNK0	0.000	
3	   C	-4.137	0.642	-0.299	C.2	1	UNK0	0.000	
4	   C	-3.015	0.672	-1.120	C.2	1	UNK0	0.000	
5	   C	-3.200	0.310	-2.426	C.2	1	UNK0	0.000	
6	   C	-4.421	-0.069	-2.931	C.2	1	UNK0	0.000	
7	   C	-5.518	-0.097	-2.123	C.2	1	UNK0	0.000	
8	   C	-1.871	1.109	-0.311	C.3	1	UNK0	0.000	
9	   N	-1.248	2.312	-0.833	N.3	1	UNK0	0.000	
10	   C	0.034	2.321	-0.124	C.3	1	UNK0	0.000	
11	   C	0.457	0.908	0.013	C.3	1	UNK0	0.000	
12	   C	-0.745	0.112	-0.384	C.3	1	UNK0	0.000	
13	   C	-0.899	-1.001	0.557	C.2	1	UNK0	0.000	
14	   O	-1.643	-1.993	0.354	O.2	1	UNK0	0.000	
15	   N	-0.066	-0.713	1.673	N.pl3	1	UNK0	0.000	
16	   C	0.626	0.510	1.460	C.2	1	UNK0	0.000	
17	   O	1.287	1.199	2.284	O.2	1	UNK0	0.000	
18	   C	0.051	-1.559	2.858	C.3	1	UNK0	0.000	
19	   C	1.175	-2.555	2.612	C.3	1	UNK0	0.000	
20	   O	0.905	-3.341	1.503	O.3	1	UNK0	0.000	
21	   C	1.942	-4.232	1.307	C.3	1	UNK0	0.000	
22	   C	1.057	3.131	-0.862	C.3	1	UNK0	0.000	
23	   C	1.354	2.652	-2.222	C.2	1	UNK0	0.000	
24	   C	0.504	3.057	-3.249	C.2	1	UNK0	0.000	
25	   C	0.766	2.645	-4.530	C.2	1	UNK0	0.000	
26	   C	1.836	1.845	-4.853	C.2	1	UNK0	0.000	
27	   C	2.653	1.466	-3.810	C.2	1	UNK0	0.000	
28	   C	2.436	1.852	-2.504	C.2	1	UNK0	0.000	
29	   C	-2.382	1.344	1.049	C.2	1	UNK0	0.000	
30	   O	-1.766	1.724	2.055	O.2	1	UNK0	0.000	
31	   N	-3.770	1.045	1.012	N.pl3	1	UNK0	0.000	
32	   H	-2.311	0.332	-3.080	 H	1	UNK0	0.000	
33	   H	-4.503	-0.341	-3.959	 H	1	UNK0	0.000	
34	   H	-6.485	-0.391	-2.499	 H	1	UNK0	0.000	
35	   H	-1.811	3.177	-0.606	 H	1	UNK0	0.000	
36	   H	-0.104	2.834	0.866	 H	1	UNK0	0.000	
37	   H	1.359	0.608	-0.553	 H	1	UNK0	0.000	
38	   H	-0.706	-0.223	-1.447	 H	1	UNK0	0.000	
39	   H	-0.866	-2.134	3.013	 H	1	UNK0	0.000	
40	   H	0.254	-0.962	3.765	 H	1	UNK0	0.000	
41	   H	2.113	-1.970	2.502	 H	1	UNK0	0.000	
42	   H	1.272	-3.241	3.478	 H	1	UNK0	0.000	
43	   H	2.080	-4.895	2.179	 H	1	UNK0	0.000	
44	   H	2.917	-3.738	1.113	 H	1	UNK0	0.000	
45	   H	1.707	-4.830	0.398	 H	1	UNK0	0.000	
46	   H	0.782	4.207	-0.838	 H	1	UNK0	0.000	
47	   H	2.007	3.054	-0.255	 H	1	UNK0	0.000	
48	   H	-0.358	3.698	-3.010	 H	1	UNK0	0.000	
49	   H	0.105	2.961	-5.325	 H	1	UNK0	0.000	
50	   H	2.056	1.512	-5.857	 H	1	UNK0	0.000	
51	   H	3.511	0.837	-4.004	 H	1	UNK0	0.000	
52	   H	3.134	1.528	-1.714	 H	1	UNK0	0.000	
53	   H	-4.449	1.104	1.818	 H	1	UNK0	0.000	
@<TRIPOS>BOND
1 1 2 1
2 2 3 2
3 2 7 1
4 3 4 1
5 3 31 1
6 4 5 2
7 4 8 1
8 5 6 1
9 6 7 2
10 8 9 1
11 8 12 1
12 8 29 1
13 9 10 1
14 10 11 1
15 10 22 1
16 11 12 1
17 11 16 1
18 12 13 1
19 13 14 2
20 13 15 1
21 15 16 1
22 15 18 1
23 16 17 2
24 18 19 1
25 19 20 1
26 20 21 1
27 22 23 1
28 23 24 2
29 23 28 1
30 24 25 1
31 25 26 2
32 26 27 1
33 27 28 2
34 29 30 2
35 29 31 1
36 5 32 1
37 6 33 1
38 7 34 1
39 9 35 1
40 10 36 1
41 11 37 1
42 12 38 1
43 18 39 1
44 18 40 1
45 19 41 1
46 19 42 1
47 21 43 1
48 21 44 1
49 21 45 1
50 22 46 1
51 22 47 1
52 24 48 1
53 25 49 1
54 26 50 1
55 27 51 1
56 28 52 1
57 31 53 1
@<TRIPOS>SUBSTRUCTURE
1	UNK0	1	GROUP	1 ****	UNK
