# created with PyMOL 2.3.2
@<TRIPOS>MOLECULE
2137
36 39 1                 
SMALL
USER_CHARGES
@<TRIPOS>ATOM
1	   S	-1.841	0.732	-3.093	S.O2	1	UNK0	0.000	
2	   O	-1.028	0.909	-4.364	O.2	1	UNK0	0.000	
3	   O	-3.239	1.148	-3.415	O.2	1	UNK0	0.000	
4	   N	-1.218	1.760	-1.894	N.3	1	UNK0	0.000	
5	   C	0.134	1.549	-1.539	C.3	1	UNK0	0.000	
6	   C	0.446	1.743	-0.082	C.3	1	UNK0	0.000	
7	   C	-0.611	1.183	0.800	C.2	1	UNK0	0.000	
8	   C	-1.867	1.354	0.415	C.2	1	UNK0	0.000	
9	   N	-2.954	0.854	1.191	N.pl3	1	UNK0	0.000	
10	   C	-2.748	0.153	2.408	C.2	1	UNK0	0.000	
11	   C	-3.704	-0.323	3.153	C.2	1	UNK0	0.000	
12	   N	-1.379	-0.023	2.810	N.pl3	1	UNK0	0.000	
13	   C	-0.297	0.476	2.036	C.2	1	UNK0	0.000	
14	   O	0.914	0.331	2.373	O.2	1	UNK0	0.000	
15	   C	-2.114	2.074	-0.836	C.3	1	UNK0	0.000	
16	   C	-1.822	-0.956	-2.634	C.2	1	UNK0	0.000	
17	   N	-0.824	-1.891	-2.836	N.pl3	1	UNK0	0.000	
18	   C	-1.298	-3.013	-2.305	C.2	1	UNK0	0.000	
19	   N	-2.553	-2.824	-1.778	N.2	1	UNK0	0.000	
20	   C	-2.885	-1.543	-1.980	C.2	1	UNK0	0.000	
21	  Cl	-4.390	-0.796	-1.492	Cl	1	UNK0	0.000	
22	   S	-0.041	-4.135	-2.575	S.3	1	UNK0	0.000	
23	   C	1.057	-3.103	-3.368	C.2	1	UNK0	0.000	
24	   C	0.375	-1.917	-3.383	C.2	1	UNK0	0.000	
25	   H	0.429	0.511	-1.800	 H	1	UNK0	0.000	
26	   H	0.774	2.225	-2.146	 H	1	UNK0	0.000	
27	   H	1.379	1.179	0.140	 H	1	UNK0	0.000	
28	   H	0.659	2.802	0.130	 H	1	UNK0	0.000	
29	   H	-3.944	0.997	0.875	 H	1	UNK0	0.000	
30	   H	-4.740	-0.208	2.880	 H	1	UNK0	0.000	
31	   H	-3.486	-0.848	4.069	 H	1	UNK0	0.000	
32	   H	-1.186	-0.534	3.700	 H	1	UNK0	0.000	
33	   H	-2.014	3.178	-0.623	 H	1	UNK0	0.000	
34	   H	-3.149	1.919	-1.187	 H	1	UNK0	0.000	
35	   H	2.065	-3.303	-3.779	 H	1	UNK0	0.000	
36	   H	0.875	-1.033	-3.860	 H	1	UNK0	0.000	
@<TRIPOS>BOND
1 1 2 2
2 1 3 2
3 1 4 1
4 1 16 1
5 4 5 1
6 4 15 1
7 5 6 1
8 6 7 1
9 7 8 2
10 7 13 1
11 8 9 1
12 8 15 1
13 9 10 1
14 10 11 2
15 10 12 1
16 12 13 1
17 13 14 2
18 16 17 1
19 16 20 2
20 17 18 1
21 17 24 1
22 18 19 2
23 18 22 1
24 19 20 1
25 20 21 1
26 22 23 1
27 23 24 2
28 5 25 1
29 5 26 1
30 6 27 1
31 6 28 1
32 9 29 1
33 11 30 1
34 11 31 1
35 12 32 1
36 15 33 1
37 15 34 1
38 23 35 1
39 24 36 1
@<TRIPOS>SUBSTRUCTURE
1	UNK0	1	GROUP	1 ****	UNK
