# created with PyMOL 2.3.2
@<TRIPOS>MOLECULE
2138
36 39 1                 
SMALL
USER_CHARGES
@<TRIPOS>ATOM
1	  Cl	-5.269	1.258	0.701	Cl	1	UNK0	0.000	
2	   C	-3.614	0.936	0.173	C.2	1	UNK0	0.000	
3	   C	-2.674	1.914	0.367	C.2	1	UNK0	0.000	
4	   C	-1.376	1.698	-0.031	C.2	1	UNK0	0.000	
5	   C	-0.993	0.516	-0.625	C.2	1	UNK0	0.000	
6	   C	-1.972	-0.446	-0.803	C.2	1	UNK0	0.000	
7	   C	-3.281	-0.264	-0.416	C.2	1	UNK0	0.000	
8	   C	0.390	0.293	-1.049	C.2	1	UNK0	0.000	
9	   C	1.254	-0.272	-0.137	C.2	1	UNK0	0.000	
10	   C	2.563	-0.472	-0.567	C.2	1	UNK0	0.000	
11	   N	2.942	-0.124	-1.813	N.2	1	UNK0	0.000	
12	   C	2.074	0.424	-2.674	C.2	1	UNK0	0.000	
13	   N	0.799	0.628	-2.279	N.pl3	1	UNK0	0.000	
14	   N	0.115	1.171	-3.265	N.2	1	UNK0	0.000	
15	   C	0.957	1.328	-4.330	C.2	1	UNK0	0.000	
16	   N	2.169	0.858	-3.943	N.2	1	UNK0	0.000	
17	   C	3.441	-1.032	0.317	C.2	1	UNK0	0.000	
18	   C	2.992	-1.366	1.575	C.2	1	UNK0	0.000	
19	   N	1.737	-1.172	1.983	N.pl3	1	UNK0	0.000	
20	   C	0.837	-0.614	1.118	C.2	1	UNK0	0.000	
21	   O	-0.359	-0.401	1.429	O.2	1	UNK0	0.000	
22	   N	1.232	-1.490	3.238	N.pl3	1	UNK0	0.000	
23	   C	1.936	-2.063	4.292	C.2	1	UNK0	0.000	
24	   O	3.139	-2.377	4.254	O.2	1	UNK0	0.000	
25	   C	1.248	-2.350	5.598	C.3	1	UNK0	0.000	
26	   H	-2.984	2.855	0.841	 H	1	UNK0	0.000	
27	   H	-0.663	2.490	0.137	 H	1	UNK0	0.000	
28	   H	-1.709	-1.388	-1.266	 H	1	UNK0	0.000	
29	   H	-4.049	-1.028	-0.560	 H	1	UNK0	0.000	
30	   H	0.637	1.750	-5.255	 H	1	UNK0	0.000	
31	   H	4.459	-1.214	0.057	 H	1	UNK0	0.000	
32	   H	3.714	-1.810	2.260	 H	1	UNK0	0.000	
33	   H	0.198	-1.286	3.451	 H	1	UNK0	0.000	
34	   H	0.159	-2.480	5.381	 H	1	UNK0	0.000	
35	   H	1.642	-3.282	6.020	 H	1	UNK0	0.000	
36	   H	1.341	-1.483	6.280	 H	1	UNK0	0.000	
@<TRIPOS>BOND
1 1 2 1
2 2 3 2
3 2 7 1
4 3 4 1
5 4 5 2
6 5 6 1
7 5 8 1
8 6 7 2
9 8 9 2
10 8 13 1
11 9 10 1
12 9 20 1
13 10 11 2
14 10 17 1
15 11 12 1
16 12 13 1
17 12 16 2
18 13 14 1
19 14 15 2
20 15 16 1
21 17 18 2
22 18 19 1
23 19 20 1
24 19 22 1
25 20 21 2
26 22 23 1
27 23 24 2
28 23 25 1
29 3 26 1
30 4 27 1
31 6 28 1
32 7 29 1
33 15 30 1
34 17 31 1
35 18 32 1
36 22 33 1
37 25 34 1
38 25 35 1
39 25 36 1
@<TRIPOS>SUBSTRUCTURE
1	UNK0	1	GROUP	1 ****	UNK
