# created with PyMOL 2.3.2
@<TRIPOS>MOLECULE
2140
42 45 1                 
SMALL
USER_CHARGES
@<TRIPOS>ATOM
1	  Cl	3.016	-2.949	5.426	Cl	1	UNK0	0.000	
2	   C	2.626	-1.802	4.158	C.2	1	UNK0	0.000	
3	   C	1.347	-1.290	4.069	C.2	1	UNK0	0.000	
4	   C	1.039	-0.383	3.067	C.2	1	UNK0	0.000	
5	   C	1.973	0.033	2.141	C.2	1	UNK0	0.000	
6	   N	1.630	0.915	1.185	N.2	1	UNK0	0.000	
7	   C	0.393	1.438	1.065	C.2	1	UNK0	0.000	
8	   C	-0.562	1.041	1.974	C.2	1	UNK0	0.000	
9	   C	-0.228	0.137	2.963	C.2	1	UNK0	0.000	
10	   C	0.064	2.415	-0.017	C.3	1	UNK0	0.000	
11	   N	-0.390	1.782	-1.221	N.3	1	UNK0	0.000	
12	   C	-1.583	0.997	-1.020	C.3	1	UNK0	0.000	
13	   C	-2.197	0.798	-2.415	C.3	1	UNK0	0.000	
14	   N	-1.248	0.464	-3.373	N.3	1	UNK0	0.000	
15	   C	0.062	0.137	-2.944	C.3	1	UNK0	0.000	
16	   C	0.604	0.949	-1.820	C.3	1	UNK0	0.000	
17	   C	-1.288	1.041	-4.655	C.3	1	UNK0	0.000	
18	   C	-2.552	1.734	-5.043	C.3	1	UNK0	0.000	
19	   N	-3.000	2.578	-3.958	N.pl3	1	UNK0	0.000	
20	   C	-3.027	1.976	-2.671	C.2	1	UNK0	0.000	
21	   O	-3.755	2.445	-1.759	O.2	1	UNK0	0.000	
22	   C	3.240	-0.491	2.251	C.2	1	UNK0	0.000	
23	   C	3.578	-1.401	3.245	C.2	1	UNK0	0.000	
24	   H	0.564	-1.566	4.754	 H	1	UNK0	0.000	
25	   H	-1.565	1.451	1.894	 H	1	UNK0	0.000	
26	   H	-1.008	-0.149	3.658	 H	1	UNK0	0.000	
27	   H	-0.698	3.107	0.350	 H	1	UNK0	0.000	
28	   H	0.976	2.993	-0.228	 H	1	UNK0	0.000	
29	   H	-1.314	0.017	-0.615	 H	1	UNK0	0.000	
30	   H	-2.320	1.553	-0.381	 H	1	UNK0	0.000	
31	   H	-2.906	-0.072	-2.276	 H	1	UNK0	0.000	
32	   H	0.174	-0.962	-2.713	 H	1	UNK0	0.000	
33	   H	0.754	0.290	-3.824	 H	1	UNK0	0.000	
34	   H	1.003	0.278	-1.021	 H	1	UNK0	0.000	
35	   H	1.463	1.602	-2.133	 H	1	UNK0	0.000	
36	   H	-1.080	0.261	-5.418	 H	1	UNK0	0.000	
37	   H	-0.457	1.785	-4.742	 H	1	UNK0	0.000	
38	   H	-2.368	2.367	-5.930	 H	1	UNK0	0.000	
39	   H	-3.377	1.039	-5.305	 H	1	UNK0	0.000	
40	   H	-3.291	3.580	-4.100	 H	1	UNK0	0.000	
41	   H	4.015	-0.200	1.551	 H	1	UNK0	0.000	
42	   H	4.570	-1.800	3.315	 H	1	UNK0	0.000	
@<TRIPOS>BOND
1 1 2 1
2 2 3 2
3 2 23 1
4 3 4 1
5 4 5 2
6 4 9 1
7 5 6 1
8 5 22 1
9 6 7 2
10 7 8 1
11 7 10 1
12 8 9 2
13 10 11 1
14 11 12 1
15 11 16 1
16 12 13 1
17 13 14 1
18 13 20 1
19 14 15 1
20 14 17 1
21 15 16 1
22 17 18 1
23 18 19 1
24 19 20 1
25 20 21 2
26 22 23 2
27 3 24 1
28 8 25 1
29 9 26 1
30 10 27 1
31 10 28 1
32 12 29 1
33 12 30 1
34 13 31 1
35 15 32 1
36 15 33 1
37 16 34 1
38 16 35 1
39 17 36 1
40 17 37 1
41 18 38 1
42 18 39 1
43 19 40 1
44 22 41 1
45 23 42 1
@<TRIPOS>SUBSTRUCTURE
1	UNK0	1	GROUP	1 ****	UNK
