# created with PyMOL 2.3.2
@<TRIPOS>MOLECULE
2141
47 50 1                 
SMALL
USER_CHARGES
@<TRIPOS>ATOM
1	  Cl	2.958	-0.598	6.189	Cl	1	UNK0	0.000	
2	   C	1.646	-0.369	5.041	C.2	1	UNK0	0.000	
3	   C	1.834	-0.402	3.681	C.2	1	UNK0	0.000	
4	   C	0.744	-0.212	2.865	C.2	1	UNK0	0.000	
5	   C	-0.529	0.010	3.388	C.2	1	UNK0	0.000	
6	   C	-0.718	0.043	4.758	C.2	1	UNK0	0.000	
7	   C	0.379	-0.148	5.584	C.2	1	UNK0	0.000	
8	   C	-1.666	0.208	2.489	C.3	1	UNK0	0.000	
9	   C	-1.520	-0.604	1.198	C.3	1	UNK0	0.000	
10	   C	-0.212	-0.308	0.516	C.3	1	UNK0	0.000	
11	   N	0.870	-0.234	1.464	N.pl3	1	UNK0	0.000	
12	   C	2.216	-0.176	0.906	C.3	1	UNK0	0.000	
13	   C	2.041	0.219	-0.553	C.3	1	UNK0	0.000	
14	   N	1.091	1.269	-0.726	N.3	1	UNK0	0.000	
15	   C	-0.232	0.956	-0.288	C.3	1	UNK0	0.000	
16	   C	1.616	2.493	-0.199	C.3	1	UNK0	0.000	
17	   C	-1.548	-2.065	1.477	C.2	1	UNK0	0.000	
18	   O	-1.030	-2.513	2.549	O.2	1	UNK0	0.000	
19	   N	-2.131	-3.015	0.597	N.pl3	1	UNK0	0.000	
20	   C	-3.005	-2.533	-0.415	C.2	1	UNK0	0.000	
21	   O	-3.550	-3.346	-1.226	O.2	1	UNK0	0.000	
22	   N	-3.288	-1.159	-0.549	N.pl3	1	UNK0	0.000	
23	   C	-2.686	-0.246	0.349	C.2	1	UNK0	0.000	
24	   O	-3.172	0.915	0.417	O.2	1	UNK0	0.000	
25	   C	-4.199	-0.706	-1.612	C.3	1	UNK0	0.000	
26	   C	-1.871	-4.437	0.694	C.3	1	UNK0	0.000	
27	   H	2.823	-0.574	3.294	 H	1	UNK0	0.000	
28	   H	-1.703	0.214	5.203	 H	1	UNK0	0.000	
29	   H	0.235	-0.123	6.667	 H	1	UNK0	0.000	
30	   H	-1.775	1.271	2.151	 H	1	UNK0	0.000	
31	   H	-2.619	-0.095	2.937	 H	1	UNK0	0.000	
32	   H	0.009	-1.152	-0.182	 H	1	UNK0	0.000	
33	   H	2.640	-1.193	1.000	 H	1	UNK0	0.000	
34	   H	2.874	0.518	1.456	 H	1	UNK0	0.000	
35	   H	1.811	-0.674	-1.162	 H	1	UNK0	0.000	
36	   H	3.030	0.585	-0.894	 H	1	UNK0	0.000	
37	   H	-0.728	1.801	0.224	 H	1	UNK0	0.000	
38	   H	-0.851	0.741	-1.206	 H	1	UNK0	0.000	
39	   H	0.768	3.083	0.210	 H	1	UNK0	0.000	
40	   H	2.328	2.345	0.639	 H	1	UNK0	0.000	
41	   H	2.169	3.059	-0.980	 H	1	UNK0	0.000	
42	   H	-4.246	-1.482	-2.410	 H	1	UNK0	0.000	
43	   H	-5.215	-0.705	-1.118	 H	1	UNK0	0.000	
44	   H	-3.945	0.292	-1.971	 H	1	UNK0	0.000	
45	   H	-2.805	-5.035	0.596	 H	1	UNK0	0.000	
46	   H	-1.189	-4.715	-0.138	 H	1	UNK0	0.000	
47	   H	-1.354	-4.639	1.640	 H	1	UNK0	0.000	
@<TRIPOS>BOND
1 1 2 1
2 2 3 2
3 2 7 1
4 3 4 1
5 4 5 2
6 4 11 1
7 5 6 1
8 5 8 1
9 6 7 2
10 8 9 1
11 9 10 1
12 9 17 1
13 9 23 1
14 10 11 1
15 10 15 1
16 11 12 1
17 12 13 1
18 13 14 1
19 14 15 1
20 14 16 1
21 17 18 2
22 17 19 1
23 19 20 1
24 19 26 1
25 20 21 2
26 20 22 1
27 22 23 1
28 22 25 1
29 23 24 2
30 3 27 1
31 6 28 1
32 7 29 1
33 8 30 1
34 8 31 1
35 10 32 1
36 12 33 1
37 12 34 1
38 13 35 1
39 13 36 1
40 15 37 1
41 15 38 1
42 16 39 1
43 16 40 1
44 16 41 1
45 25 42 1
46 25 43 1
47 25 44 1
48 26 45 1
49 26 46 1
50 26 47 1
@<TRIPOS>SUBSTRUCTURE
1	UNK0	1	GROUP	1 ****	UNK
