# created with PyMOL 2.3.2
@<TRIPOS>MOLECULE
2146
46 49 1                 
SMALL
USER_CHARGES
@<TRIPOS>ATOM
1	  Cl	-1.296	4.264	1.857	Cl	1	UNK0	0.000	
2	   C	-1.346	3.022	0.601	C.2	1	UNK0	0.000	
3	   N	-2.221	2.874	-0.388	N.pl3	1	UNK0	0.000	
4	   N	-1.924	1.829	-1.119	N.2	1	UNK0	0.000	
5	   C	-0.790	1.216	-0.621	C.2	1	UNK0	0.000	
6	   C	-0.431	1.951	0.443	C.2	1	UNK0	0.000	
7	   C	0.637	1.749	1.388	C.3	1	UNK0	0.000	
8	   N	1.588	0.752	1.289	N.3	1	UNK0	0.000	
9	   C	2.606	0.777	0.318	C.3	1	UNK0	0.000	
10	   C	3.198	-0.561	0.056	C.3	1	UNK0	0.000	
11	   N	2.488	-1.611	0.713	N.pl3	1	UNK0	0.000	
12	   C	2.165	-1.477	2.120	C.3	1	UNK0	0.000	
13	   C	1.871	-0.051	2.434	C.3	1	UNK0	0.000	
14	   C	2.088	-2.817	0.083	C.2	1	UNK0	0.000	
15	   C	0.800	-3.313	0.231	C.2	1	UNK0	0.000	
16	   C	0.444	-4.506	-0.385	C.2	1	UNK0	0.000	
17	   N	1.345	-5.154	-1.110	N.2	1	UNK0	0.000	
18	   C	2.589	-4.683	-1.257	C.2	1	UNK0	0.000	
19	   N	2.945	-3.511	-0.653	N.pl3	1	UNK0	0.000	
20	   C	4.231	-3.343	-0.993	C.2	1	UNK0	0.000	
21	   N	4.674	-4.356	-1.776	N.2	1	UNK0	0.000	
22	   N	3.636	-5.157	-1.915	N.2	1	UNK0	0.000	
23	   C	-0.315	0.061	-1.355	C.3	1	UNK0	0.000	
24	   C	0.688	0.143	-2.393	C.3	1	UNK0	0.000	
25	   C	-3.357	3.793	-0.586	C.3	1	UNK0	0.000	
26	   H	0.109	1.567	2.395	 H	1	UNK0	0.000	
27	   H	1.193	2.693	1.654	 H	1	UNK0	0.000	
28	   H	3.456	1.394	0.803	 H	1	UNK0	0.000	
29	   H	2.357	1.390	-0.553	 H	1	UNK0	0.000	
30	   H	4.243	-0.586	0.486	 H	1	UNK0	0.000	
31	   H	3.364	-0.760	-1.028	 H	1	UNK0	0.000	
32	   H	1.352	-2.175	2.414	 H	1	UNK0	0.000	
33	   H	3.067	-1.847	2.687	 H	1	UNK0	0.000	
34	   H	2.811	0.378	2.899	 H	1	UNK0	0.000	
35	   H	1.086	0.087	3.195	 H	1	UNK0	0.000	
36	   H	0.109	-2.746	0.831	 H	1	UNK0	0.000	
37	   H	-0.561	-4.850	-0.243	 H	1	UNK0	0.000	
38	   H	4.871	-2.539	-0.707	 H	1	UNK0	0.000	
39	   H	0.127	-0.624	-0.546	 H	1	UNK0	0.000	
40	   H	-1.167	-0.557	-1.707	 H	1	UNK0	0.000	
41	   H	1.452	-0.651	-2.435	 H	1	UNK0	0.000	
42	   H	1.121	1.175	-2.567	 H	1	UNK0	0.000	
43	   H	0.144	0.006	-3.388	 H	1	UNK0	0.000	
44	   H	-4.228	3.233	-0.152	 H	1	UNK0	0.000	
45	   H	-3.489	3.979	-1.671	 H	1	UNK0	0.000	
46	   H	-3.203	4.744	-0.056	 H	1	UNK0	0.000	
@<TRIPOS>BOND
1 1 2 1
2 2 3 1
3 2 6 2
4 3 4 1
5 3 25 1
6 4 5 2
7 5 6 1
8 5 23 1
9 6 7 1
10 7 8 1
11 8 9 1
12 8 13 1
13 9 10 1
14 10 11 1
15 11 12 1
16 11 14 1
17 12 13 1
18 14 15 2
19 14 19 1
20 15 16 1
21 16 17 2
22 17 18 1
23 18 19 1
24 18 22 2
25 19 20 1
26 20 21 2
27 21 22 1
28 23 24 1
29 7 26 1
30 7 27 1
31 9 28 1
32 9 29 1
33 10 30 1
34 10 31 1
35 12 32 1
36 12 33 1
37 13 34 1
38 13 35 1
39 15 36 1
40 16 37 1
41 20 38 1
42 23 39 1
43 23 40 1
44 24 41 1
45 24 42 1
46 24 43 1
47 25 44 1
48 25 45 1
49 25 46 1
@<TRIPOS>SUBSTRUCTURE
1	UNK0	1	GROUP	1 ****	UNK
