# created with PyMOL 2.3.2
@<TRIPOS>MOLECULE
2147
45 48 1                 
SMALL
USER_CHARGES
@<TRIPOS>ATOM
1	  Br	7.111	-0.832	-0.649	Br	1	UNK0	0.000	
2	   C	5.726	0.079	0.259	C.2	1	UNK0	0.000	
3	   C	6.021	1.307	0.846	C.2	1	UNK0	0.000	
4	   C	4.985	1.966	1.524	C.2	1	UNK0	0.000	
5	   C	3.739	1.391	1.586	C.2	1	UNK0	0.000	
6	   C	3.440	0.185	1.013	C.2	1	UNK0	0.000	
7	   C	4.445	-0.467	0.346	C.2	1	UNK0	0.000	
8	   C	2.161	-0.300	1.156	C.2	1	UNK0	0.000	
9	   O	1.847	-1.398	0.645	O.2	1	UNK0	0.000	
10	   C	1.192	0.417	1.870	C.2	1	UNK0	0.000	
11	   C	1.600	1.617	2.405	C.2	1	UNK0	0.000	
12	   N	2.861	2.123	2.277	N.pl3	1	UNK0	0.000	
13	   C	3.507	3.354	2.715	C.3	1	UNK0	0.000	
14	   C	4.914	3.255	2.249	C.3	1	UNK0	0.000	
15	   C	-0.173	-0.086	1.972	C.2	1	UNK0	0.000	
16	   O	-0.577	-0.529	3.069	O.2	1	UNK0	0.000	
17	   N	-1.041	-0.074	0.859	N.pl3	1	UNK0	0.000	
18	   C	-2.393	-0.553	0.830	C.3	1	UNK0	0.000	
19	   C	-3.071	-0.248	-0.495	C.3	1	UNK0	0.000	
20	   N	-2.400	-0.789	-1.591	N.3	1	UNK0	0.000	
21	   C	-2.770	-0.391	-2.908	C.3	1	UNK0	0.000	
22	   C	-1.435	-0.341	-3.702	C.3	1	UNK0	0.000	
23	   O	-0.869	-1.589	-3.733	O.3	1	UNK0	0.000	
24	   C	-1.436	-2.515	-2.899	C.3	1	UNK0	0.000	
25	   C	-1.705	-2.008	-1.495	C.3	1	UNK0	0.000	
26	   H	6.981	1.760	0.807	 H	1	UNK0	0.000	
27	   H	4.259	-1.414	-0.115	 H	1	UNK0	0.000	
28	   H	0.877	2.204	2.968	 H	1	UNK0	0.000	
29	   H	3.367	3.580	3.776	 H	1	UNK0	0.000	
30	   H	3.039	4.195	2.103	 H	1	UNK0	0.000	
31	   H	5.203	4.090	1.533	 H	1	UNK0	0.000	
32	   H	5.643	3.284	3.107	 H	1	UNK0	0.000	
33	   H	-0.655	0.333	-0.047	 H	1	UNK0	0.000	
34	   H	-2.989	-0.213	1.683	 H	1	UNK0	0.000	
35	   H	-2.338	-1.669	0.906	 H	1	UNK0	0.000	
36	   H	-4.103	-0.715	-0.442	 H	1	UNK0	0.000	
37	   H	-3.296	0.851	-0.591	 H	1	UNK0	0.000	
38	   H	-3.407	-1.110	-3.437	 H	1	UNK0	0.000	
39	   H	-3.168	0.642	-2.964	 H	1	UNK0	0.000	
40	   H	-1.618	0.084	-4.677	 H	1	UNK0	0.000	
41	   H	-0.754	0.324	-3.083	 H	1	UNK0	0.000	
42	   H	-0.729	-3.380	-2.813	 H	1	UNK0	0.000	
43	   H	-2.414	-2.868	-3.315	 H	1	UNK0	0.000	
44	   H	-0.736	-1.934	-0.950	 H	1	UNK0	0.000	
45	   H	-2.353	-2.767	-1.009	 H	1	UNK0	0.000	
@<TRIPOS>BOND
1 1 2 1
2 2 3 2
3 2 7 1
4 3 4 1
5 4 5 2
6 4 14 1
7 5 6 1
8 5 12 1
9 6 7 2
10 6 8 1
11 8 9 2
12 8 10 1
13 10 11 2
14 10 15 1
15 11 12 1
16 12 13 1
17 13 14 1
18 15 16 2
19 15 17 1
20 17 18 1
21 18 19 1
22 19 20 1
23 20 21 1
24 20 25 1
25 21 22 1
26 22 23 1
27 23 24 1
28 24 25 1
29 3 26 1
30 7 27 1
31 11 28 1
32 13 29 1
33 13 30 1
34 14 31 1
35 14 32 1
36 17 33 1
37 18 34 1
38 18 35 1
39 19 36 1
40 19 37 1
41 21 38 1
42 21 39 1
43 22 40 1
44 22 41 1
45 24 42 1
46 24 43 1
47 25 44 1
48 25 45 1
@<TRIPOS>SUBSTRUCTURE
1	UNK0	1	GROUP	1 ****	UNK
