# created with PyMOL 2.3.2
@<TRIPOS>MOLECULE
2150
47 50 1                 
SMALL
USER_CHARGES
@<TRIPOS>ATOM
1	  Cl	4.206	2.154	1.292	Cl	1	UNK0	0.000	
2	   C	3.656	0.568	0.746	C.2	1	UNK0	0.000	
3	   C	2.504	0.533	-0.051	C.2	1	UNK0	0.000	
4	   C	2.081	-0.706	-0.469	C.2	1	UNK0	0.000	
5	   C	2.771	-1.851	-0.117	C.2	1	UNK0	0.000	
6	   C	3.911	-1.818	0.670	C.2	1	UNK0	0.000	
7	   C	4.332	-0.580	1.091	C.2	1	UNK0	0.000	
8	  Cl	4.740	-3.301	1.083	Cl	1	UNK0	0.000	
9	   C	0.816	-0.796	-1.265	C.3	1	UNK0	0.000	
10	   C	0.266	0.530	-1.622	C.2	1	UNK0	0.000	
11	   C	0.763	1.725	-1.159	C.2	1	UNK0	0.000	
12	   N	0.188	2.920	-1.463	N.pl3	1	UNK0	0.000	
13	   C	-0.901	2.930	-2.248	C.2	1	UNK0	0.000	
14	   O	-1.464	4.036	-2.551	O.2	1	UNK0	0.000	
15	   N	-1.429	1.808	-2.732	N.pl3	1	UNK0	0.000	
16	   C	-0.850	0.622	-2.422	C.2	1	UNK0	0.000	
17	   O	-1.395	-0.378	-2.912	O.2	1	UNK0	0.000	
18	   C	-2.615	1.858	-3.585	C.3	1	UNK0	0.000	
19	   C	0.738	4.164	-0.952	C.3	1	UNK0	0.000	
20	   O	1.876	1.727	-0.374	O.3	1	UNK0	0.000	
21	   C	-0.218	-1.597	-0.467	C.3	1	UNK0	0.000	
22	   C	-0.435	-0.964	0.853	C.2	1	UNK0	0.000	
23	   O	-0.786	0.252	0.965	O.2	1	UNK0	0.000	
24	   N	-0.257	-1.697	2.036	N.pl3	1	UNK0	0.000	
25	   C	0.053	-3.069	2.065	C.2	1	UNK0	0.000	
26	   O	0.198	-3.661	3.146	O.2	1	UNK0	0.000	
27	   N	0.191	-3.736	0.828	N.pl3	1	UNK0	0.000	
28	   C	0.018	-3.023	-0.398	C.2	1	UNK0	0.000	
29	   O	0.090	-3.769	-1.435	O.2	1	UNK0	0.000	
30	   C	0.516	-5.173	0.811	C.3	1	UNK0	0.000	
31	   C	-0.397	-1.019	3.323	C.3	1	UNK0	0.000	
32	   H	2.445	-2.837	-0.464	 H	1	UNK0	0.000	
33	   H	5.221	-0.519	1.710	 H	1	UNK0	0.000	
34	   H	1.013	-1.372	-2.183	 H	1	UNK0	0.000	
35	   H	-2.396	2.302	-4.560	 H	1	UNK0	0.000	
36	   H	-3.013	0.811	-3.665	 H	1	UNK0	0.000	
37	   H	-3.411	2.453	-3.106	 H	1	UNK0	0.000	
38	   H	0.934	4.797	-1.868	 H	1	UNK0	0.000	
39	   H	0.045	4.678	-0.252	 H	1	UNK0	0.000	
40	   H	1.742	3.984	-0.514	 H	1	UNK0	0.000	
41	   H	-1.224	-1.472	-0.988	 H	1	UNK0	0.000	
42	   H	0.166	-5.591	1.766	 H	1	UNK0	0.000	
43	   H	1.613	-5.239	0.700	 H	1	UNK0	0.000	
44	   H	-0.026	-5.673	-0.028	 H	1	UNK0	0.000	
45	   H	-0.961	-1.683	4.012	 H	1	UNK0	0.000	
46	   H	-0.883	-0.027	3.205	 H	1	UNK0	0.000	
47	   H	0.637	-0.873	3.700	 H	1	UNK0	0.000	
@<TRIPOS>BOND
1 1 2 1
2 2 3 2
3 2 7 1
4 3 4 1
5 3 20 1
6 4 5 2
7 4 9 1
8 5 6 1
9 6 7 2
10 6 8 1
11 9 10 1
12 9 21 1
13 10 11 2
14 10 16 1
15 11 12 1
16 11 20 1
17 12 13 1
18 12 19 1
19 13 14 2
20 13 15 1
21 15 16 1
22 15 18 1
23 16 17 2
24 21 22 1
25 21 28 1
26 22 23 2
27 22 24 1
28 24 25 1
29 24 31 1
30 25 26 2
31 25 27 1
32 27 28 1
33 27 30 1
34 28 29 2
35 5 32 1
36 7 33 1
37 9 34 1
38 18 35 1
39 18 36 1
40 18 37 1
41 19 38 1
42 19 39 1
43 19 40 1
44 21 41 1
45 30 42 1
46 30 43 1
47 30 44 1
48 31 45 1
49 31 46 1
50 31 47 1
@<TRIPOS>SUBSTRUCTURE
1	UNK0	1	GROUP	1 ****	UNK
