# created with PyMOL 2.3.2
@<TRIPOS>MOLECULE
2151
45 48 1                 
SMALL
USER_CHARGES
@<TRIPOS>ATOM
1	   F	1.158	4.792	-3.410	 F	1	UNK0	0.000	
2	   C	1.788	4.726	-2.225	C.2	1	UNK0	0.000	
3	   C	1.952	3.497	-1.612	C.2	1	UNK0	0.000	
4	   C	2.601	3.468	-0.401	C.2	1	UNK0	0.000	
5	   C	3.057	4.646	0.150	C.2	1	UNK0	0.000	
6	   C	2.907	5.880	-0.437	C.2	1	UNK0	0.000	
7	   C	2.248	5.870	-1.658	C.2	1	UNK0	0.000	
8	   N	1.451	2.313	-2.245	N.pl3	1	UNK0	0.000	
9	   C	1.522	1.000	-1.784	C.2	1	UNK0	0.000	
10	   O	2.052	0.676	-0.720	O.2	1	UNK0	0.000	
11	   C	0.934	-0.126	-2.593	C.3	1	UNK0	0.000	
12	   N	1.104	-1.393	-1.959	N.pl3	1	UNK0	0.000	
13	   N	2.149	-2.184	-2.143	N.pl3	1	UNK0	0.000	
14	   N	2.034	-3.289	-1.427	N.pl3	1	UNK0	0.000	
15	   C	0.860	-3.205	-0.751	C.2	1	UNK0	0.000	
16	   C	0.306	-2.044	-1.086	C.2	1	UNK0	0.000	
17	   C	-0.886	-1.959	-0.400	C.2	1	UNK0	0.000	
18	   O	-1.705	-1.005	-0.449	O.2	1	UNK0	0.000	
19	   N	-1.076	-3.066	0.364	N.pl3	1	UNK0	0.000	
20	   C	0.015	-3.831	0.136	C.2	1	UNK0	0.000	
21	   O	0.204	-4.955	0.675	O.2	1	UNK0	0.000	
22	   C	-2.183	-3.313	1.192	C.2	1	UNK0	0.000	
23	   C	-3.106	-4.270	0.860	C.2	1	UNK0	0.000	
24	   C	-4.208	-4.545	1.643	C.2	1	UNK0	0.000	
25	   C	-4.421	-3.852	2.812	C.2	1	UNK0	0.000	
26	   C	-3.506	-2.886	3.165	C.2	1	UNK0	0.000	
27	   C	-2.396	-2.623	2.356	C.2	1	UNK0	0.000	
28	   O	-5.529	-4.112	3.624	O.3	1	UNK0	0.000	
29	   C	-5.787	-3.437	4.814	C.3	1	UNK0	0.000	
30	  Cl	-5.340	-5.783	1.147	Cl	1	UNK0	0.000	
31	   H	2.762	2.519	0.137	 H	1	UNK0	0.000	
32	   H	3.563	4.597	1.102	 H	1	UNK0	0.000	
33	   H	3.282	6.776	0.034	 H	1	UNK0	0.000	
34	   H	2.130	6.862	-2.126	 H	1	UNK0	0.000	
35	   H	0.967	2.491	-3.188	 H	1	UNK0	0.000	
36	   H	-0.171	0.061	-2.696	 H	1	UNK0	0.000	
37	   H	1.334	-0.098	-3.635	 H	1	UNK0	0.000	
38	   H	2.969	-1.995	-2.760	 H	1	UNK0	0.000	
39	   H	2.696	-4.082	-1.374	 H	1	UNK0	0.000	
40	   H	-2.928	-4.819	-0.077	 H	1	UNK0	0.000	
41	   H	-3.663	-2.334	4.082	 H	1	UNK0	0.000	
42	   H	-1.691	-1.853	2.663	 H	1	UNK0	0.000	
43	   H	-6.834	-3.636	5.122	 H	1	UNK0	0.000	
44	   H	-5.085	-3.697	5.644	 H	1	UNK0	0.000	
45	   H	-5.710	-2.336	4.692	 H	1	UNK0	0.000	
@<TRIPOS>BOND
1 1 2 1
2 2 3 2
3 2 7 1
4 3 4 1
5 3 8 1
6 4 5 2
7 5 6 1
8 6 7 2
9 8 9 1
10 9 10 2
11 9 11 1
12 11 12 1
13 12 13 1
14 12 16 1
15 13 14 1
16 14 15 1
17 15 16 2
18 15 20 1
19 16 17 1
20 17 18 2
21 17 19 1
22 19 20 1
23 19 22 1
24 20 21 2
25 22 23 2
26 22 27 1
27 23 24 1
28 24 25 2
29 24 30 1
30 25 26 1
31 25 28 1
32 26 27 2
33 28 29 1
34 4 31 1
35 5 32 1
36 6 33 1
37 7 34 1
38 8 35 1
39 11 36 1
40 11 37 1
41 13 38 1
42 14 39 1
43 23 40 1
44 26 41 1
45 27 42 1
46 29 43 1
47 29 44 1
48 29 45 1
@<TRIPOS>SUBSTRUCTURE
1	UNK0	1	GROUP	1 ****	UNK
