# created with PyMOL 2.3.2
@<TRIPOS>MOLECULE
2152
41 44 1                 
SMALL
USER_CHARGES
@<TRIPOS>ATOM
1	   F	-1.571	2.787	-0.986	 F	1	UNK0	0.000	
2	   C	-2.259	2.970	0.168	C.2	1	UNK0	0.000	
3	   C	-2.471	1.892	1.020	C.2	1	UNK0	0.000	
4	   C	-3.173	2.156	2.168	C.2	1	UNK0	0.000	
5	   C	-3.649	3.415	2.474	C.2	1	UNK0	0.000	
6	   C	-3.436	4.482	1.625	C.2	1	UNK0	0.000	
7	   C	-2.725	4.226	0.458	C.2	1	UNK0	0.000	
8	   N	-1.966	0.631	0.651	N.pl3	1	UNK0	0.000	
9	   C	-2.041	-0.556	1.393	C.2	1	UNK0	0.000	
10	   O	-2.586	-0.610	2.508	O.2	1	UNK0	0.000	
11	   C	-1.440	-1.827	0.832	C.3	1	UNK0	0.000	
12	   N	-0.018	-1.837	1.091	N.pl3	1	UNK0	0.000	
13	   N	0.530	-2.271	2.207	N.pl3	1	UNK0	0.000	
14	   N	1.852	-2.106	2.098	N.pl3	1	UNK0	0.000	
15	   C	2.100	-1.566	0.898	C.2	1	UNK0	0.000	
16	   C	0.957	-1.395	0.269	C.2	1	UNK0	0.000	
17	   C	1.253	-0.851	-0.949	C.2	1	UNK0	0.000	
18	   O	0.454	-0.532	-1.861	O.2	1	UNK0	0.000	
19	   N	2.592	-0.684	-1.071	N.pl3	1	UNK0	0.000	
20	   C	3.113	-1.130	0.082	C.2	1	UNK0	0.000	
21	   O	4.339	-1.159	0.399	O.2	1	UNK0	0.000	
22	   C	3.333	-0.165	-2.159	C.2	1	UNK0	0.000	
23	   C	4.258	-0.916	-2.865	C.2	1	UNK0	0.000	
24	   C	4.961	-0.379	-3.928	C.2	1	UNK0	0.000	
25	   C	4.771	0.924	-4.327	C.2	1	UNK0	0.000	
26	   C	3.847	1.688	-3.628	C.2	1	UNK0	0.000	
27	   C	3.153	1.133	-2.567	C.2	1	UNK0	0.000	
28	  Cl	6.115	-1.372	-4.785	Cl	1	UNK0	0.000	
29	   H	-3.379	1.391	2.869	 H	1	UNK0	0.000	
30	   H	-4.208	3.567	3.410	 H	1	UNK0	0.000	
31	   H	-3.789	5.470	1.827	 H	1	UNK0	0.000	
32	   H	-2.526	5.040	-0.255	 H	1	UNK0	0.000	
33	   H	-1.476	0.560	-0.291	 H	1	UNK0	0.000	
34	   H	-1.630	-1.833	-0.268	 H	1	UNK0	0.000	
35	   H	-1.910	-2.678	1.349	 H	1	UNK0	0.000	
36	   H	0.104	-2.680	3.062	 H	1	UNK0	0.000	
37	   H	2.560	-2.359	2.829	 H	1	UNK0	0.000	
38	   H	4.399	-1.941	-2.542	 H	1	UNK0	0.000	
39	   H	5.308	1.360	-5.150	 H	1	UNK0	0.000	
40	   H	3.681	2.726	-3.930	 H	1	UNK0	0.000	
41	   H	2.420	1.739	-2.013	 H	1	UNK0	0.000	
@<TRIPOS>BOND
1 1 2 1
2 2 3 2
3 2 7 1
4 3 4 1
5 3 8 1
6 4 5 2
7 5 6 1
8 6 7 2
9 8 9 1
10 9 10 2
11 9 11 1
12 11 12 1
13 12 13 1
14 12 16 1
15 13 14 1
16 14 15 1
17 15 16 2
18 15 20 1
19 16 17 1
20 17 18 2
21 17 19 1
22 19 20 1
23 19 22 1
24 20 21 2
25 22 23 2
26 22 27 1
27 23 24 1
28 24 25 2
29 24 28 1
30 25 26 1
31 26 27 2
32 4 29 1
33 5 30 1
34 6 31 1
35 7 32 1
36 8 33 1
37 11 34 1
38 11 35 1
39 13 36 1
40 14 37 1
41 23 38 1
42 25 39 1
43 26 40 1
44 27 41 1
@<TRIPOS>SUBSTRUCTURE
1	UNK0	1	GROUP	1 ****	UNK
