# created with PyMOL 2.3.2
@<TRIPOS>MOLECULE
2153
49 52 1                 
SMALL
USER_CHARGES
@<TRIPOS>ATOM
1	  Cl	6.298	1.137	-0.682	Cl	1	UNK0	0.000	
2	   C	4.850	1.157	-1.705	C.2	1	UNK0	0.000	
3	   C	3.743	0.420	-1.348	C.2	1	UNK0	0.000	
4	   C	2.670	0.502	-2.208	C.2	1	UNK0	0.000	
5	   C	2.690	1.265	-3.351	C.2	1	UNK0	0.000	
6	   C	3.813	1.981	-3.665	C.2	1	UNK0	0.000	
7	   C	4.902	1.928	-2.838	C.2	1	UNK0	0.000	
8	   C	3.739	-0.391	-0.124	C.3	1	UNK0	0.000	
9	   N	2.478	-1.073	0.047	N.pl3	1	UNK0	0.000	
10	   C	1.333	-0.555	0.749	C.3	1	UNK0	0.000	
11	   C	0.734	-1.762	1.408	C.3	1	UNK0	0.000	
12	   C	1.085	-2.921	0.535	C.3	1	UNK0	0.000	
13	   C	2.073	-2.354	-0.410	C.2	1	UNK0	0.000	
14	   O	2.497	-2.912	-1.459	O.2	1	UNK0	0.000	
15	   C	-0.679	-1.636	1.717	C.2	1	UNK0	0.000	
16	   O	-1.018	-1.730	2.949	O.2	1	UNK0	0.000	
17	   N	-1.689	-1.421	0.785	N.pl3	1	UNK0	0.000	
18	   C	-3.099	-1.308	1.255	C.3	1	UNK0	0.000	
19	   C	-3.903	-0.423	0.367	C.3	1	UNK0	0.000	
20	   C	-3.046	0.683	-0.182	C.3	1	UNK0	0.000	
21	   N	-3.820	1.618	-0.967	N.pl3	1	UNK0	0.000	
22	   C	-3.133	2.858	-0.938	C.2	1	UNK0	0.000	
23	   O	-3.237	3.829	-1.751	O.2	1	UNK0	0.000	
24	   N	-2.279	2.801	0.215	N.pl3	1	UNK0	0.000	
25	   C	-2.464	1.544	0.851	C.2	1	UNK0	0.000	
26	   O	-2.198	1.219	2.027	O.2	1	UNK0	0.000	
27	   C	-2.007	0.095	-1.111	C.3	1	UNK0	0.000	
28	   C	-1.571	-1.282	-0.645	C.3	1	UNK0	0.000	
29	   H	1.738	-0.049	-2.013	 H	1	UNK0	0.000	
30	   H	1.847	1.333	-4.032	 H	1	UNK0	0.000	
31	   H	3.878	2.603	-4.564	 H	1	UNK0	0.000	
32	   H	5.788	2.479	-3.065	 H	1	UNK0	0.000	
33	   H	3.955	0.229	0.795	 H	1	UNK0	0.000	
34	   H	4.599	-1.112	-0.169	 H	1	UNK0	0.000	
35	   H	0.607	-0.058	0.101	 H	1	UNK0	0.000	
36	   H	1.655	0.130	1.588	 H	1	UNK0	0.000	
37	   H	1.336	-1.945	2.368	 H	1	UNK0	0.000	
38	   H	0.223	-3.421	0.042	 H	1	UNK0	0.000	
39	   H	1.629	-3.714	1.158	 H	1	UNK0	0.000	
40	   H	-3.057	-0.938	2.285	 H	1	UNK0	0.000	
41	   H	-3.571	-2.311	1.274	 H	1	UNK0	0.000	
42	   H	-4.738	0.039	0.931	 H	1	UNK0	0.000	
43	   H	-4.349	-0.957	-0.489	 H	1	UNK0	0.000	
44	   H	-4.710	1.393	-1.451	 H	1	UNK0	0.000	
45	   H	-1.621	3.563	0.541	 H	1	UNK0	0.000	
46	   H	-1.190	0.803	-1.233	 H	1	UNK0	0.000	
47	   H	-2.492	-0.038	-2.100	 H	1	UNK0	0.000	
48	   H	-0.622	-1.599	-1.063	 H	1	UNK0	0.000	
49	   H	-2.325	-2.031	-1.062	 H	1	UNK0	0.000	
@<TRIPOS>BOND
1 1 2 1
2 2 3 2
3 2 7 1
4 3 4 1
5 3 8 1
6 4 5 2
7 5 6 1
8 6 7 2
9 8 9 1
10 9 10 1
11 9 13 1
12 10 11 1
13 11 12 1
14 11 15 1
15 12 13 1
16 13 14 2
17 15 16 2
18 15 17 1
19 17 18 1
20 17 28 1
21 18 19 1
22 19 20 1
23 20 21 1
24 20 25 1
25 20 27 1
26 21 22 1
27 22 23 2
28 22 24 1
29 24 25 1
30 25 26 2
31 27 28 1
32 4 29 1
33 5 30 1
34 6 31 1
35 7 32 1
36 8 33 1
37 8 34 1
38 10 35 1
39 10 36 1
40 11 37 1
41 12 38 1
42 12 39 1
43 18 40 1
44 18 41 1
45 19 42 1
46 19 43 1
47 21 44 1
48 24 45 1
49 27 46 1
50 27 47 1
51 28 48 1
52 28 49 1
@<TRIPOS>SUBSTRUCTURE
1	UNK0	1	GROUP	1 ****	UNK
