# created with PyMOL 2.3.2
@<TRIPOS>MOLECULE
2155
39 42 1                 
SMALL
USER_CHARGES
@<TRIPOS>ATOM
1	  Cl	-1.698	-7.945	1.617	Cl	1	UNK0	0.000	
2	   C	-1.188	-6.518	0.736	C.2	1	UNK0	0.000	
3	   C	-1.453	-5.249	1.249	C.2	1	UNK0	0.000	
4	   C	-1.081	-4.094	0.609	C.2	1	UNK0	0.000	
5	   C	-0.411	-4.270	-0.605	C.2	1	UNK0	0.000	
6	   C	-0.136	-5.498	-1.136	C.2	1	UNK0	0.000	
7	   C	-0.531	-6.606	-0.452	C.2	1	UNK0	0.000	
8	   N	-1.318	-2.782	1.074	N.pl3	1	UNK0	0.000	
9	   C	-1.965	-2.389	2.254	C.2	1	UNK0	0.000	
10	   O	-2.417	-3.240	3.047	O.2	1	UNK0	0.000	
11	   C	-2.134	-0.924	2.600	C.3	1	UNK0	0.000	
12	   N	-1.526	-0.141	1.524	N.pl3	1	UNK0	0.000	
13	   N	-2.142	0.289	0.435	N.2	1	UNK0	0.000	
14	   N	-1.286	0.969	-0.328	N.2	1	UNK0	0.000	
15	   C	-0.093	0.975	0.290	C.2	1	UNK0	0.000	
16	   N	-0.276	0.283	1.427	N.2	1	UNK0	0.000	
17	   C	1.135	1.611	-0.197	C.2	1	UNK0	0.000	
18	   C	1.110	2.280	-1.403	C.2	1	UNK0	0.000	
19	   C	2.266	2.875	-1.857	C.2	1	UNK0	0.000	
20	   C	3.427	2.808	-1.125	C.2	1	UNK0	0.000	
21	   C	3.468	2.138	0.091	C.2	1	UNK0	0.000	
22	   C	2.304	1.552	0.522	C.2	1	UNK0	0.000	
23	   N	-0.067	2.375	-2.193	N.pl3	1	UNK0	0.000	
24	   N	-0.927	3.393	-2.262	N.2	1	UNK0	0.000	
25	   N	-1.893	3.093	-3.112	N.2	1	UNK0	0.000	
26	   N	-1.644	1.886	-3.582	N.2	1	UNK0	0.000	
27	   C	-0.514	1.420	-3.025	C.2	1	UNK0	0.000	
28	   H	-1.972	-5.203	2.188	 H	1	UNK0	0.000	
29	   H	-0.090	-3.384	-1.160	 H	1	UNK0	0.000	
30	   H	0.380	-5.608	-2.072	 H	1	UNK0	0.000	
31	   H	-0.309	-7.585	-0.881	 H	1	UNK0	0.000	
32	   H	-0.969	-1.980	0.467	 H	1	UNK0	0.000	
33	   H	-1.550	-0.782	3.536	 H	1	UNK0	0.000	
34	   H	-3.192	-0.683	2.735	 H	1	UNK0	0.000	
35	   H	2.286	3.420	-2.818	 H	1	UNK0	0.000	
36	   H	4.365	3.264	-1.446	 H	1	UNK0	0.000	
37	   H	4.400	2.086	0.674	 H	1	UNK0	0.000	
38	   H	2.307	1.030	1.455	 H	1	UNK0	0.000	
39	   H	-0.046	0.444	-3.215	 H	1	UNK0	0.000	
@<TRIPOS>BOND
1 1 2 1
2 2 3 2
3 2 7 1
4 3 4 1
5 4 5 2
6 4 8 1
7 5 6 1
8 6 7 2
9 8 9 1
10 9 10 2
11 9 11 1
12 11 12 1
13 12 13 1
14 12 16 1
15 13 14 2
16 14 15 1
17 15 16 2
18 15 17 1
19 17 18 1
20 17 22 2
21 18 19 2
22 18 23 1
23 19 20 1
24 20 21 2
25 21 22 1
26 23 24 1
27 23 27 1
28 24 25 2
29 25 26 1
30 26 27 2
31 3 28 1
32 5 29 1
33 6 30 1
34 7 31 1
35 8 32 1
36 11 33 1
37 11 34 1
38 19 35 1
39 20 36 1
40 21 37 1
41 22 38 1
42 27 39 1
@<TRIPOS>SUBSTRUCTURE
1	UNK0	1	GROUP	1 ****	UNK
