# created with PyMOL 2.3.2
@<TRIPOS>MOLECULE
2156
64 67 1                 
SMALL
USER_CHARGES
@<TRIPOS>ATOM
1	  Cl	-1.317	2.592	5.966	Cl	1	UNK0	0.000	
2	   C	-0.383	1.224	5.410	C.2	1	UNK0	0.000	
3	   C	-0.091	1.059	4.051	C.2	1	UNK0	0.000	
4	   C	0.646	-0.023	3.617	C.2	1	UNK0	0.000	
5	   C	1.089	-0.935	4.552	C.2	1	UNK0	0.000	
6	   C	0.803	-0.774	5.895	C.2	1	UNK0	0.000	
7	   C	0.066	0.305	6.331	C.2	1	UNK0	0.000	
8	   C	0.948	-0.188	2.186	C.3	1	UNK0	0.000	
9	   N	0.739	-1.545	1.728	N.pl3	1	UNK0	0.000	
10	   C	-0.671	-1.716	1.689	C.2	1	UNK0	0.000	
11	   O	-1.357	-2.760	1.835	O.2	1	UNK0	0.000	
12	   C	-1.230	-0.383	1.435	C.2	1	UNK0	0.000	
13	   O	-2.422	0.001	1.313	O.2	1	UNK0	0.000	
14	   C	-0.080	0.514	1.337	C.2	1	UNK0	0.000	
15	   C	-0.017	1.656	0.685	C.2	1	UNK0	0.000	
16	   O	1.191	2.354	0.786	O.2	1	UNK0	0.000	
17	   C	-1.132	2.172	-0.102	C.2	1	UNK0	0.000	
18	   C	-1.522	3.499	0.032	C.2	1	UNK0	0.000	
19	   C	-2.551	4.038	-0.710	C.2	1	UNK0	0.000	
20	   C	-3.249	3.270	-1.631	C.2	1	UNK0	0.000	
21	   C	-2.850	1.949	-1.756	C.2	1	UNK0	0.000	
22	   C	-1.821	1.417	-1.012	C.2	1	UNK0	0.000	
23	   O	-4.290	3.802	-2.386	O.3	1	UNK0	0.000	
24	   C	-4.940	2.938	-3.299	C.3	1	UNK0	0.000	
25	   O	-2.958	5.359	-0.592	O.3	1	UNK0	0.000	
26	   C	-2.276	6.180	0.336	C.3	1	UNK0	0.000	
27	   C	1.690	-2.557	1.372	C.3	1	UNK0	0.000	
28	   C	2.075	-2.545	-0.083	C.3	1	UNK0	0.000	
29	   C	0.913	-2.758	-1.008	C.3	1	UNK0	0.000	
30	   N	1.400	-2.725	-2.382	N.4	1	UNK0	0.000	
31	   C	2.210	-1.591	-2.661	C.3	1	UNK0	0.000	
32	   C	2.200	-1.091	-4.063	C.3	1	UNK0	0.000	
33	   O	1.956	-2.177	-4.913	O.3	1	UNK0	0.000	
34	   C	0.594	-2.495	-4.704	C.3	1	UNK0	0.000	
35	   C	0.333	-2.968	-3.325	C.3	1	UNK0	0.000	
36	   H	-0.464	1.804	3.370	 H	1	UNK0	0.000	
37	   H	1.673	-1.806	4.283	 H	1	UNK0	0.000	
38	   H	1.163	-1.511	6.630	 H	1	UNK0	0.000	
39	   H	-0.160	0.430	7.396	 H	1	UNK0	0.000	
40	   H	1.958	0.191	2.006	 H	1	UNK0	0.000	
41	   H	-0.991	4.103	0.742	 H	1	UNK0	0.000	
42	   H	-3.373	1.319	-2.469	 H	1	UNK0	0.000	
43	   H	-1.561	0.388	-1.178	 H	1	UNK0	0.000	
44	   H	-5.685	3.458	-3.921	 H	1	UNK0	0.000	
45	   H	-4.163	2.463	-3.959	 H	1	UNK0	0.000	
46	   H	-5.365	2.103	-2.696	 H	1	UNK0	0.000	
47	   H	-1.176	6.076	0.258	 H	1	UNK0	0.000	
48	   H	-2.552	7.249	0.229	 H	1	UNK0	0.000	
49	   H	-2.628	5.888	1.360	 H	1	UNK0	0.000	
50	   H	2.576	-2.425	2.026	 H	1	UNK0	0.000	
51	   H	1.308	-3.588	1.590	 H	1	UNK0	0.000	
52	   H	2.598	-1.587	-0.277	 H	1	UNK0	0.000	
53	   H	2.820	-3.340	-0.293	 H	1	UNK0	0.000	
54	   H	0.496	-3.776	-0.862	 H	1	UNK0	0.000	
55	   H	0.081	-2.056	-0.845	 H	1	UNK0	0.000	
56	   H	2.030	-3.583	-2.453	 H	1	UNK0	0.000	
57	   H	1.939	-0.728	-2.002	 H	1	UNK0	0.000	
58	   H	3.285	-1.818	-2.395	 H	1	UNK0	0.000	
59	   H	3.161	-0.592	-4.272	 H	1	UNK0	0.000	
60	   H	1.331	-0.414	-4.178	 H	1	UNK0	0.000	
61	   H	0.336	-3.272	-5.450	 H	1	UNK0	0.000	
62	   H	0.050	-1.541	-4.953	 H	1	UNK0	0.000	
63	   H	0.043	-4.037	-3.353	 H	1	UNK0	0.000	
64	   H	-0.579	-2.423	-2.948	 H	1	UNK0	0.000	
@<TRIPOS>BOND
1 1 2 1
2 2 3 2
3 2 7 1
4 3 4 1
5 4 5 2
6 4 8 1
7 5 6 1
8 6 7 2
9 8 9 1
10 8 14 1
11 9 10 1
12 9 27 1
13 10 11 2
14 10 12 1
15 12 13 2
16 12 14 1
17 14 15 2
18 15 16 1
19 15 17 1
20 17 18 2
21 17 22 1
22 18 19 1
23 19 20 2
24 19 25 1
25 20 21 1
26 20 23 1
27 21 22 2
28 23 24 1
29 25 26 1
30 27 28 1
31 28 29 1
32 29 30 1
33 30 31 1
34 30 35 1
35 31 32 1
36 32 33 1
37 33 34 1
38 34 35 1
39 3 36 1
40 5 37 1
41 6 38 1
42 7 39 1
43 8 40 1
44 18 41 1
45 21 42 1
46 22 43 1
47 24 44 1
48 24 45 1
49 24 46 1
50 26 47 1
51 26 48 1
52 26 49 1
53 27 50 1
54 27 51 1
55 28 52 1
56 28 53 1
57 29 54 1
58 29 55 1
59 30 56 1
60 31 57 1
61 31 58 1
62 32 59 1
63 32 60 1
64 34 61 1
65 34 62 1
66 35 63 1
67 35 64 1
@<TRIPOS>SUBSTRUCTURE
1	UNK0	1	GROUP	1 ****	UNK
