# created with PyMOL 2.3.2
@<TRIPOS>MOLECULE
2162
55 58 1                 
SMALL
USER_CHARGES
@<TRIPOS>ATOM
1	  Br	-1.596	6.205	2.476	Br	1	UNK0	0.000	
2	   C	-1.301	5.132	0.918	C.2	1	UNK0	0.000	
3	   C	-1.422	3.756	0.973	C.2	1	UNK0	0.000	
4	   C	-1.216	2.952	-0.121	C.2	1	UNK0	0.000	
5	   C	-0.872	3.603	-1.315	C.2	1	UNK0	0.000	
6	   C	-0.750	4.970	-1.380	C.2	1	UNK0	0.000	
7	   C	-0.962	5.768	-0.262	C.2	1	UNK0	0.000	
8	   O	-0.665	2.793	-2.415	O.3	1	UNK0	0.000	
9	   C	-0.313	3.302	-3.685	C.3	1	UNK0	0.000	
10	   C	-0.156	2.174	-4.690	C.3	1	UNK0	0.000	
11	   C	-1.336	1.504	-0.079	C.2	1	UNK0	0.000	
12	   N	-1.640	0.803	0.936	N.2	1	UNK0	0.000	
13	   N	-1.731	-0.612	0.873	N.pl3	1	UNK0	0.000	
14	   C	-0.816	-1.353	0.057	C.2	1	UNK0	0.000	
15	   N	0.351	-1.943	0.367	N.pl3	1	UNK0	0.000	
16	   C	0.809	-2.487	-0.749	C.2	1	UNK0	0.000	
17	   N	1.896	-3.181	-1.028	N.2	1	UNK0	0.000	
18	   C	2.201	-3.661	-2.232	C.2	1	UNK0	0.000	
19	   N	1.327	-3.415	-3.242	N.2	1	UNK0	0.000	
20	   C	0.197	-2.716	-3.044	C.2	1	UNK0	0.000	
21	   C	-0.090	-2.233	-1.788	C.2	1	UNK0	0.000	
22	   N	-1.081	-1.534	-1.262	N.2	1	UNK0	0.000	
23	   O	-0.712	-2.448	-4.049	O.3	1	UNK0	0.000	
24	   N	3.382	-4.405	-2.503	N.pl3	1	UNK0	0.000	
25	   C	0.911	-1.938	1.663	C.3	1	UNK0	0.000	
26	   O	0.417	-0.841	2.367	O.3	1	UNK0	0.000	
27	   C	1.194	-0.670	3.490	C.3	1	UNK0	0.000	
28	   C	2.568	-0.952	2.995	C.3	1	UNK0	0.000	
29	   C	2.344	-1.918	1.851	C.3	1	UNK0	0.000	
30	   O	3.163	-1.522	0.836	O.3	1	UNK0	0.000	
31	   O	3.070	0.265	2.485	O.3	1	UNK0	0.000	
32	   C	0.838	-1.578	4.641	C.3	1	UNK0	0.000	
33	   O	-0.477	-1.393	5.063	O.3	1	UNK0	0.000	
34	   H	-1.695	3.279	1.926	 H	1	UNK0	0.000	
35	   H	-0.482	5.475	-2.303	 H	1	UNK0	0.000	
36	   H	-0.859	6.843	-0.334	 H	1	UNK0	0.000	
37	   H	0.686	3.795	-3.619	 H	1	UNK0	0.000	
38	   H	-1.078	3.995	-4.068	 H	1	UNK0	0.000	
39	   H	0.567	2.429	-5.491	 H	1	UNK0	0.000	
40	   H	0.130	1.255	-4.127	 H	1	UNK0	0.000	
41	   H	-1.142	1.926	-5.175	 H	1	UNK0	0.000	
42	   H	-1.150	0.938	-1.002	 H	1	UNK0	0.000	
43	   H	-2.451	-1.104	1.409	 H	1	UNK0	0.000	
44	   H	-0.914	-3.211	-4.693	 H	1	UNK0	0.000	
45	   H	3.684	-5.115	-1.806	 H	1	UNK0	0.000	
46	   H	3.972	-4.294	-3.356	 H	1	UNK0	0.000	
47	   H	0.493	-2.823	2.208	 H	1	UNK0	0.000	
48	   H	1.111	0.396	3.807	 H	1	UNK0	0.000	
49	   H	3.249	-1.364	3.764	 H	1	UNK0	0.000	
50	   H	2.739	-2.910	2.218	 H	1	UNK0	0.000	
51	   H	4.095	-1.818	0.959	 H	1	UNK0	0.000	
52	   H	2.927	0.340	1.528	 H	1	UNK0	0.000	
53	   H	1.100	-2.613	4.435	 H	1	UNK0	0.000	
54	   H	1.472	-1.235	5.509	 H	1	UNK0	0.000	
55	   H	-1.080	-1.360	4.286	 H	1	UNK0	0.000	
@<TRIPOS>BOND
1 1 2 1
2 2 3 2
3 2 7 1
4 3 4 1
5 4 5 2
6 4 11 1
7 5 6 1
8 5 8 1
9 6 7 2
10 8 9 1
11 9 10 1
12 11 12 2
13 12 13 1
14 13 14 1
15 14 15 1
16 14 22 2
17 15 16 1
18 15 25 1
19 16 17 2
20 16 21 1
21 17 18 1
22 18 19 2
23 18 24 1
24 19 20 1
25 20 21 2
26 20 23 1
27 21 22 1
28 25 26 1
29 25 29 1
30 26 27 1
31 27 28 1
32 27 32 1
33 28 29 1
34 28 31 1
35 29 30 1
36 32 33 1
37 3 34 1
38 6 35 1
39 7 36 1
40 9 37 1
41 9 38 1
42 10 39 1
43 10 40 1
44 10 41 1
45 11 42 1
46 13 43 1
47 23 44 1
48 24 45 1
49 24 46 1
50 25 47 1
51 27 48 1
52 28 49 1
53 29 50 1
54 30 51 1
55 31 52 1
56 32 53 1
57 32 54 1
58 33 55 1
@<TRIPOS>SUBSTRUCTURE
1	UNK0	1	GROUP	1 ****	UNK
