# created with PyMOL 2.3.2
@<TRIPOS>MOLECULE
2166
41 44 1                 
SMALL
USER_CHARGES
@<TRIPOS>ATOM
1	  Br	0.612	3.728	-5.769	Br	1	UNK0	0.000	
2	   C	0.891	3.478	-3.902	C.2	1	UNK0	0.000	
3	   C	0.082	2.631	-3.160	C.2	1	UNK0	0.000	
4	   C	0.283	2.449	-1.806	C.2	1	UNK0	0.000	
5	   C	1.323	3.146	-1.229	C.2	1	UNK0	0.000	
6	   C	2.133	3.990	-1.959	C.2	1	UNK0	0.000	
7	   C	1.929	4.171	-3.315	C.2	1	UNK0	0.000	
8	   N	-0.570	1.566	-1.058	N.pl3	1	UNK0	0.000	
9	   C	-0.564	0.224	-1.056	C.2	1	UNK0	0.000	
10	   O	0.227	-0.493	-1.742	O.2	1	UNK0	0.000	
11	   C	-1.538	-0.257	-0.204	C.2	1	UNK0	0.000	
12	   C	-2.136	0.802	0.312	C.2	1	UNK0	0.000	
13	   N	-3.100	0.340	1.155	N.pl3	1	UNK0	0.000	
14	   N	-3.061	-0.979	1.127	N.pl3	1	UNK0	0.000	
15	   N	-2.115	-1.388	0.305	N.pl3	1	UNK0	0.000	
16	   C	-1.733	-2.734	-0.022	C.3	1	UNK0	0.000	
17	   C	-0.649	-3.216	0.945	C.2	1	UNK0	0.000	
18	   O	-0.257	-2.436	1.835	O.2	1	UNK0	0.000	
19	   N	-0.126	-4.511	0.809	N.pl3	1	UNK0	0.000	
20	   C	0.884	-5.018	1.663	C.2	1	UNK0	0.000	
21	   C	1.100	-6.415	1.673	C.2	1	UNK0	0.000	
22	   C	2.072	-6.954	2.461	C.2	1	UNK0	0.000	
23	   C	2.877	-6.175	3.275	C.2	1	UNK0	0.000	
24	   C	2.692	-4.814	3.288	C.2	1	UNK0	0.000	
25	   C	1.698	-4.284	2.478	C.2	1	UNK0	0.000	
26	   C	-1.537	1.936	-0.216	C.2	1	UNK0	0.000	
27	   O	-1.887	3.110	0.084	O.2	1	UNK0	0.000	
28	   H	-0.733	2.088	-3.620	 H	1	UNK0	0.000	
29	   H	1.505	3.025	-0.177	 H	1	UNK0	0.000	
30	   H	2.955	4.543	-1.510	 H	1	UNK0	0.000	
31	   H	2.576	4.839	-3.875	 H	1	UNK0	0.000	
32	   H	-3.739	0.971	1.709	 H	1	UNK0	0.000	
33	   H	-3.712	-1.588	1.698	 H	1	UNK0	0.000	
34	   H	-2.586	-3.416	0.174	 H	1	UNK0	0.000	
35	   H	-1.315	-2.843	-1.039	 H	1	UNK0	0.000	
36	   H	-0.507	-5.133	0.027	 H	1	UNK0	0.000	
37	   H	0.462	-7.019	1.030	 H	1	UNK0	0.000	
38	   H	2.239	-8.030	2.468	 H	1	UNK0	0.000	
39	   H	3.624	-6.665	3.871	 H	1	UNK0	0.000	
40	   H	3.319	-4.215	3.920	 H	1	UNK0	0.000	
41	   H	1.607	-3.212	2.517	 H	1	UNK0	0.000	
@<TRIPOS>BOND
1 1 2 1
2 2 3 2
3 2 7 1
4 3 4 1
5 4 5 2
6 4 8 1
7 5 6 1
8 6 7 2
9 8 9 1
10 8 26 1
11 9 10 2
12 9 11 1
13 11 12 2
14 11 15 1
15 12 13 1
16 12 26 1
17 13 14 1
18 14 15 1
19 15 16 1
20 16 17 1
21 17 18 2
22 17 19 1
23 19 20 1
24 20 21 2
25 20 25 1
26 21 22 1
27 22 23 2
28 23 24 1
29 24 25 2
30 26 27 2
31 3 28 1
32 5 29 1
33 6 30 1
34 7 31 1
35 13 32 1
36 14 33 1
37 16 34 1
38 16 35 1
39 19 36 1
40 21 37 1
41 22 38 1
42 23 39 1
43 24 40 1
44 25 41 1
@<TRIPOS>SUBSTRUCTURE
1	UNK0	1	GROUP	1 ****	UNK
