# created with PyMOL 2.3.2
@<TRIPOS>MOLECULE
2167
56 59 1                 
SMALL
USER_CHARGES
@<TRIPOS>ATOM
1	   S	0.479	-1.990	4.410	S.O2	1	UNK0	0.000	
2	   O	1.452	-2.659	5.308	O.2	1	UNK0	0.000	
3	   O	-0.857	-1.870	5.136	O.2	1	UNK0	0.000	
4	   N	0.948	-0.438	3.920	N.3	1	UNK0	0.000	
5	   C	0.049	0.265	3.103	C.3	1	UNK0	0.000	
6	   C	0.454	1.752	3.124	C.3	1	UNK0	0.000	
7	   C	1.837	1.902	2.539	C.3	1	UNK0	0.000	
8	   C	2.498	0.534	2.393	C.3	1	UNK0	0.000	
9	   C	2.317	-0.221	3.715	C.3	1	UNK0	0.000	
10	   C	1.943	2.729	1.351	C.2	1	UNK0	0.000	
11	   O	2.741	3.752	1.454	O.2	1	UNK0	0.000	
12	   N	1.320	2.601	0.104	N.pl3	1	UNK0	0.000	
13	   C	0.398	1.551	-0.248	C.3	1	UNK0	0.000	
14	   C	-0.197	1.777	-1.641	C.3	1	UNK0	0.000	
15	   N	0.867	1.925	-2.586	N.pl3	1	UNK0	0.000	
16	   C	1.896	2.912	-2.277	C.3	1	UNK0	0.000	
17	   C	1.582	3.579	-0.970	C.3	1	UNK0	0.000	
18	   C	0.946	1.168	-3.768	C.2	1	UNK0	0.000	
19	   C	0.004	0.264	-4.196	C.2	1	UNK0	0.000	
20	   C	0.124	-0.468	-5.365	C.2	1	UNK0	0.000	
21	   C	1.226	-0.307	-6.161	C.2	1	UNK0	0.000	
22	   C	2.201	0.599	-5.760	C.2	1	UNK0	0.000	
23	   C	2.065	1.312	-4.602	C.2	1	UNK0	0.000	
24	  Cl	-1.119	-1.593	-5.832	Cl	1	UNK0	0.000	
25	   C	0.279	-2.994	2.991	C.2	1	UNK0	0.000	
26	   N	1.272	-3.251	2.116	N.2	1	UNK0	0.000	
27	   C	0.799	-4.060	1.131	C.2	1	UNK0	0.000	
28	   N	-0.499	-4.294	1.416	N.pl3	1	UNK0	0.000	
29	   C	-0.837	-3.657	2.542	C.2	1	UNK0	0.000	
30	   C	-1.387	-5.125	0.603	C.3	1	UNK0	0.000	
31	   H	-0.065	-0.127	2.098	 H	1	UNK0	0.000	
32	   H	-0.978	0.250	3.561	 H	1	UNK0	0.000	
33	   H	0.464	2.119	4.170	 H	1	UNK0	0.000	
34	   H	-0.234	2.386	2.569	 H	1	UNK0	0.000	
35	   H	2.456	2.388	3.362	 H	1	UNK0	0.000	
36	   H	1.906	-0.041	1.663	 H	1	UNK0	0.000	
37	   H	3.539	0.605	2.083	 H	1	UNK0	0.000	
38	   H	2.716	0.493	4.497	 H	1	UNK0	0.000	
39	   H	2.930	-1.151	3.700	 H	1	UNK0	0.000	
40	   H	0.903	0.549	-0.350	 H	1	UNK0	0.000	
41	   H	-0.479	1.489	0.424	 H	1	UNK0	0.000	
42	   H	-0.878	0.954	-1.845	 H	1	UNK0	0.000	
43	   H	-0.716	2.768	-1.575	 H	1	UNK0	0.000	
44	   H	2.911	2.459	-2.292	 H	1	UNK0	0.000	
45	   H	1.847	3.661	-3.092	 H	1	UNK0	0.000	
46	   H	2.447	4.229	-0.707	 H	1	UNK0	0.000	
47	   H	0.705	4.235	-1.100	 H	1	UNK0	0.000	
48	   H	-0.877	0.094	-3.625	 H	1	UNK0	0.000	
49	   H	1.347	-0.868	-7.082	 H	1	UNK0	0.000	
50	   H	3.055	0.687	-6.429	 H	1	UNK0	0.000	
51	   H	2.833	2.010	-4.310	 H	1	UNK0	0.000	
52	   H	1.331	-4.455	0.273	 H	1	UNK0	0.000	
53	   H	-1.785	-3.632	3.047	 H	1	UNK0	0.000	
54	   H	-2.379	-5.189	1.076	 H	1	UNK0	0.000	
55	   H	-1.424	-4.742	-0.440	 H	1	UNK0	0.000	
56	   H	-0.964	-6.165	0.555	 H	1	UNK0	0.000	
@<TRIPOS>BOND
1 1 2 2
2 1 3 2
3 1 4 1
4 1 25 1
5 4 5 1
6 4 9 1
7 5 6 1
8 6 7 1
9 7 8 1
10 7 10 1
11 8 9 1
12 10 11 2
13 10 12 1
14 12 13 1
15 12 17 1
16 13 14 1
17 14 15 1
18 15 16 1
19 15 18 1
20 16 17 1
21 18 19 2
22 18 23 1
23 19 20 1
24 20 21 2
25 20 24 1
26 21 22 1
27 22 23 2
28 25 26 1
29 25 29 2
30 26 27 2
31 27 28 1
32 28 29 1
33 28 30 1
34 5 31 1
35 5 32 1
36 6 33 1
37 6 34 1
38 7 35 1
39 8 36 1
40 8 37 1
41 9 38 1
42 9 39 1
43 13 40 1
44 13 41 1
45 14 42 1
46 14 43 1
47 16 44 1
48 16 45 1
49 17 46 1
50 17 47 1
51 19 48 1
52 21 49 1
53 22 50 1
54 23 51 1
55 27 52 1
56 29 53 1
57 30 54 1
58 30 55 1
59 30 56 1
@<TRIPOS>SUBSTRUCTURE
1	UNK0	1	GROUP	1 ****	UNK
