# created with PyMOL 2.3.2
@<TRIPOS>MOLECULE
2168
55 58 1                 
SMALL
USER_CHARGES
@<TRIPOS>ATOM
1	   S	1.010	-0.775	-2.030	S.O2	1	UNK0	0.000	
2	   O	1.221	-2.076	-2.793	O.2	1	UNK0	0.000	
3	   O	2.041	0.191	-2.552	O.2	1	UNK0	0.000	
4	   N	1.236	-1.077	-0.340	N.3	1	UNK0	0.000	
5	   C	2.196	-0.206	0.225	C.3	1	UNK0	0.000	
6	   C	1.701	0.870	1.079	C.2	1	UNK0	0.000	
7	   O	2.653	1.676	1.489	O.2	1	UNK0	0.000	
8	   N	0.447	1.198	1.533	N.pl3	1	UNK0	0.000	
9	   C	-0.735	0.431	1.299	C.3	1	UNK0	0.000	
10	   C	-1.002	-0.578	2.408	C.3	1	UNK0	0.000	
11	   O	0.061	-1.454	2.518	O.3	1	UNK0	0.000	
12	   C	0.751	-1.743	3.682	C.2	1	UNK0	0.000	
13	   C	0.433	-1.042	4.828	C.2	1	UNK0	0.000	
14	   C	1.102	-1.305	6.008	C.2	1	UNK0	0.000	
15	   C	2.101	-2.263	6.090	C.2	1	UNK0	0.000	
16	   C	2.421	-2.966	4.949	C.2	1	UNK0	0.000	
17	   C	1.741	-2.696	3.755	C.2	1	UNK0	0.000	
18	   O	-0.550	-0.097	4.750	O.3	1	UNK0	0.000	
19	   C	-1.442	0.072	3.679	C.3	1	UNK0	0.000	
20	   C	0.297	2.435	2.322	C.3	1	UNK0	0.000	
21	   C	1.633	-2.471	-0.136	C.3	1	UNK0	0.000	
22	   C	-0.564	-0.186	-2.449	C.2	1	UNK0	0.000	
23	   C	-0.764	1.052	-3.024	C.2	1	UNK0	0.000	
24	   C	-2.024	1.474	-3.335	C.2	1	UNK0	0.000	
25	   C	-3.122	0.680	-3.085	C.2	1	UNK0	0.000	
26	   C	-2.905	-0.563	-2.506	C.2	1	UNK0	0.000	
27	   C	-1.647	-1.004	-2.186	C.2	1	UNK0	0.000	
28	  Cl	-1.398	-2.595	-1.449	Cl	1	UNK0	0.000	
29	   N	-4.432	1.093	-3.395	N.pl3	1	UNK0	0.000	
30	   C	-4.606	2.391	-3.992	C.2	1	UNK0	0.000	
31	   O	-5.673	2.740	-4.528	O.2	1	UNK0	0.000	
32	   C	-3.474	3.379	-3.981	C.3	1	UNK0	0.000	
33	   O	-2.237	2.734	-3.922	O.3	1	UNK0	0.000	
34	   H	2.808	0.205	-0.635	 H	1	UNK0	0.000	
35	   H	2.955	-0.846	0.762	 H	1	UNK0	0.000	
36	   H	-1.649	1.105	1.212	 H	1	UNK0	0.000	
37	   H	-0.728	-0.137	0.363	 H	1	UNK0	0.000	
38	   H	-1.887	-1.176	2.033	 H	1	UNK0	0.000	
39	   H	0.881	-0.777	6.923	 H	1	UNK0	0.000	
40	   H	2.636	-2.485	7.000	 H	1	UNK0	0.000	
41	   H	3.197	-3.717	4.992	 H	1	UNK0	0.000	
42	   H	1.975	-3.231	2.853	 H	1	UNK0	0.000	
43	   H	-2.437	-0.323	4.044	 H	1	UNK0	0.000	
44	   H	-1.628	1.147	3.472	 H	1	UNK0	0.000	
45	   H	1.088	3.163	1.972	 H	1	UNK0	0.000	
46	   H	-0.676	2.857	2.064	 H	1	UNK0	0.000	
47	   H	0.488	2.274	3.381	 H	1	UNK0	0.000	
48	   H	0.885	-3.039	0.438	 H	1	UNK0	0.000	
49	   H	1.829	-2.933	-1.140	 H	1	UNK0	0.000	
50	   H	2.580	-2.493	0.434	 H	1	UNK0	0.000	
51	   H	0.071	1.701	-3.234	 H	1	UNK0	0.000	
52	   H	-3.739	-1.222	-2.291	 H	1	UNK0	0.000	
53	   H	-5.252	0.486	-3.202	 H	1	UNK0	0.000	
54	   H	-3.662	4.038	-3.098	 H	1	UNK0	0.000	
55	   H	-3.541	3.974	-4.927	 H	1	UNK0	0.000	
@<TRIPOS>BOND
1 1 2 2
2 1 3 2
3 1 4 1
4 1 22 1
5 4 5 1
6 4 21 1
7 5 6 1
8 6 7 2
9 6 8 1
10 8 9 1
11 8 20 1
12 9 10 1
13 10 11 1
14 10 19 1
15 11 12 1
16 12 13 2
17 12 17 1
18 13 14 1
19 13 18 1
20 14 15 2
21 15 16 1
22 16 17 2
23 18 19 1
24 22 23 2
25 22 27 1
26 23 24 1
27 24 25 2
28 24 33 1
29 25 26 1
30 25 29 1
31 26 27 2
32 27 28 1
33 29 30 1
34 30 31 2
35 30 32 1
36 32 33 1
37 5 34 1
38 5 35 1
39 9 36 1
40 9 37 1
41 10 38 1
42 14 39 1
43 15 40 1
44 16 41 1
45 17 42 1
46 19 43 1
47 19 44 1
48 20 45 1
49 20 46 1
50 20 47 1
51 21 48 1
52 21 49 1
53 21 50 1
54 23 51 1
55 26 52 1
56 29 53 1
57 32 54 1
58 32 55 1
@<TRIPOS>SUBSTRUCTURE
1	UNK0	1	GROUP	1 ****	UNK
