# created with PyMOL 2.3.2
@<TRIPOS>MOLECULE
2169
48 51 1                 
SMALL
USER_CHARGES
@<TRIPOS>ATOM
1	  Cl	5.621	2.278	-2.948	Cl	1	UNK0	0.000	
2	   C	3.977	1.620	-2.750	C.2	1	UNK0	0.000	
3	   C	3.455	1.597	-1.492	C.2	1	UNK0	0.000	
4	   C	2.153	1.075	-1.382	C.2	1	UNK0	0.000	
5	   C	1.398	0.607	-2.386	C.2	1	UNK0	0.000	
6	   C	2.038	0.674	-3.674	C.2	1	UNK0	0.000	
7	   C	3.283	1.163	-3.847	C.2	1	UNK0	0.000	
8	   C	0.135	-0.113	-2.367	C.2	1	UNK0	0.000	
9	   O	-0.807	0.348	-3.041	O.2	1	UNK0	0.000	
10	   C	-0.052	-1.344	-1.643	C.2	1	UNK0	0.000	
11	   C	-0.273	-1.656	-0.341	C.2	1	UNK0	0.000	
12	   C	-0.164	-3.033	-0.231	C.2	1	UNK0	0.000	
13	   O	0.102	-3.523	-1.426	O.3	1	UNK0	0.000	
14	   C	0.178	-2.594	-2.309	C.2	1	UNK0	0.000	
15	   C	-0.335	-3.677	0.983	C.2	1	UNK0	0.000	
16	   C	-0.619	-2.981	2.120	C.2	1	UNK0	0.000	
17	   C	-0.727	-1.607	1.965	C.2	1	UNK0	0.000	
18	   C	-0.571	-0.938	0.789	C.2	1	UNK0	0.000	
19	   C	-0.796	0.502	0.591	C.3	1	UNK0	0.000	
20	   N	-2.168	0.892	0.784	N.4	1	UNK0	0.000	
21	   C	-2.392	2.107	-0.108	C.3	1	UNK0	0.000	
22	   C	-1.576	3.218	0.477	C.3	1	UNK0	0.000	
23	   N	-2.038	3.548	1.777	N.3	1	UNK0	0.000	
24	   C	-2.320	2.450	2.659	C.3	1	UNK0	0.000	
25	   C	-2.795	1.200	1.970	C.3	1	UNK0	0.000	
26	   C	-0.954	4.298	2.437	C.3	1	UNK0	0.000	
27	   O	-1.001	-0.934	3.168	O.2	1	UNK0	0.000	
28	   H	3.937	1.960	-0.588	 H	1	UNK0	0.000	
29	   H	1.742	1.071	-0.361	 H	1	UNK0	0.000	
30	   H	1.444	0.275	-4.507	 H	1	UNK0	0.000	
31	   H	3.763	1.191	-4.829	 H	1	UNK0	0.000	
32	   H	0.369	-2.624	-3.382	 H	1	UNK0	0.000	
33	   H	-0.247	-4.775	1.028	 H	1	UNK0	0.000	
34	   H	-0.755	-3.479	3.077	 H	1	UNK0	0.000	
35	   H	-0.268	0.983	1.490	 H	1	UNK0	0.000	
36	   H	-0.387	0.965	-0.273	 H	1	UNK0	0.000	
37	   H	-2.804	0.160	0.270	 H	1	UNK0	0.000	
38	   H	-2.189	1.854	-1.141	 H	1	UNK0	0.000	
39	   H	-3.457	2.333	0.018	 H	1	UNK0	0.000	
40	   H	-1.730	4.095	-0.189	 H	1	UNK0	0.000	
41	   H	-0.477	3.040	0.468	 H	1	UNK0	0.000	
42	   H	-1.480	2.230	3.339	 H	1	UNK0	0.000	
43	   H	-3.182	2.777	3.310	 H	1	UNK0	0.000	
44	   H	-3.014	0.448	2.719	 H	1	UNK0	0.000	
45	   H	-3.893	1.483	1.642	 H	1	UNK0	0.000	
46	   H	-0.585	5.062	1.732	 H	1	UNK0	0.000	
47	   H	-1.361	4.769	3.342	 H	1	UNK0	0.000	
48	   H	-0.109	3.605	2.670	 H	1	UNK0	0.000	
@<TRIPOS>BOND
1 1 2 1
2 2 3 2
3 2 7 1
4 3 4 1
5 4 5 2
6 5 6 1
7 5 8 1
8 6 7 2
9 8 9 2
10 8 10 1
11 10 11 1
12 10 14 2
13 11 12 2
14 11 18 1
15 12 13 1
16 12 15 1
17 13 14 1
18 15 16 2
19 16 17 1
20 17 18 2
21 17 27 1
22 18 19 1
23 19 20 1
24 20 21 1
25 20 25 1
26 21 22 1
27 22 23 1
28 23 24 1
29 23 26 1
30 24 25 1
31 3 28 1
32 4 29 1
33 6 30 1
34 7 31 1
35 14 32 1
36 15 33 1
37 16 34 1
38 19 35 1
39 19 36 1
40 20 37 1
41 21 38 1
42 21 39 1
43 22 40 1
44 22 41 1
45 24 42 1
46 24 43 1
47 25 44 1
48 25 45 1
49 26 46 1
50 26 47 1
51 26 48 1
@<TRIPOS>SUBSTRUCTURE
1	UNK0	1	GROUP	1 ****	UNK
