# created with PyMOL 2.3.2
@<TRIPOS>MOLECULE
2171
42 45 1                 
SMALL
USER_CHARGES
@<TRIPOS>ATOM
1	  Cl	1.507	5.809	-2.904	Cl	1	UNK0	0.000	
2	   C	0.348	5.137	-1.769	C.2	1	UNK0	0.000	
3	   C	0.263	3.782	-1.600	C.2	1	UNK0	0.000	
4	   C	-0.675	3.304	-0.684	C.2	1	UNK0	0.000	
5	   C	-1.490	4.130	0.030	C.2	1	UNK0	0.000	
6	   C	-1.394	5.505	-0.152	C.2	1	UNK0	0.000	
7	   C	-0.482	5.996	-1.043	C.2	1	UNK0	0.000	
8	   C	-2.421	3.622	1.008	C.2	1	UNK0	0.000	
9	   O	-3.294	4.461	1.458	O.2	1	UNK0	0.000	
10	   C	-2.489	2.276	1.544	C.3	1	UNK0	0.000	
11	   O	-1.337	1.490	1.402	O.3	1	UNK0	0.000	
12	   C	-0.132	1.843	2.032	C.2	1	UNK0	0.000	
13	   O	-0.149	2.888	2.714	O.co2	1	UNK0	0.000	
14	   C	1.086	1.061	1.918	C.3	1	UNK0	0.000	
15	   N	0.984	-0.123	1.128	N.pl3	1	UNK0	0.000	
16	   C	0.629	-1.433	1.552	C.2	1	UNK0	0.000	
17	   O	0.590	-1.771	2.758	O.2	1	UNK0	0.000	
18	   C	0.335	-2.261	0.383	C.3	1	UNK0	0.000	
19	   C	0.854	-1.457	-0.813	C.3	1	UNK0	0.000	
20	   C	2.013	-2.254	-1.351	C.3	1	UNK0	0.000	
21	   C	2.532	-2.886	-0.047	C.3	1	UNK0	0.000	
22	   C	1.165	-3.501	0.306	C.3	1	UNK0	0.000	
23	   C	0.874	-4.174	-1.000	C.2	1	UNK0	0.000	
24	   C	1.443	-3.467	-2.001	C.2	1	UNK0	0.000	
25	   C	1.244	-0.146	-0.290	C.2	1	UNK0	0.000	
26	   O	1.723	0.775	-0.996	O.2	1	UNK0	0.000	
27	   H	0.899	3.122	-2.155	 H	1	UNK0	0.000	
28	   H	-0.721	2.228	-0.622	 H	1	UNK0	0.000	
29	   H	-2.044	6.153	0.418	 H	1	UNK0	0.000	
30	   H	-0.398	7.082	-1.195	 H	1	UNK0	0.000	
31	   H	-3.392	1.717	1.140	 H	1	UNK0	0.000	
32	   H	-2.763	2.376	2.645	 H	1	UNK0	0.000	
33	   H	1.959	1.651	1.540	 H	1	UNK0	0.000	
34	   H	1.396	0.737	2.954	 H	1	UNK0	0.000	
35	   H	-0.746	-2.465	0.243	 H	1	UNK0	0.000	
36	   H	0.058	-1.395	-1.574	 H	1	UNK0	0.000	
37	   H	2.749	-1.723	-1.904	 H	1	UNK0	0.000	
38	   H	3.274	-3.660	-0.252	 H	1	UNK0	0.000	
39	   H	2.807	-2.138	0.694	 H	1	UNK0	0.000	
40	   H	1.183	-4.141	1.156	 H	1	UNK0	0.000	
41	   H	0.316	-5.070	-1.201	 H	1	UNK0	0.000	
42	   H	1.490	-3.704	-3.049	 H	1	UNK0	0.000	
@<TRIPOS>BOND
1 1 2 1
2 2 3 2
3 2 7 1
4 3 4 1
5 4 5 2
6 5 6 1
7 5 8 1
8 6 7 2
9 8 9 2
10 8 10 1
11 10 11 1
12 11 12 1
13 12 13 2
14 12 14 1
15 14 15 1
16 15 16 1
17 15 25 1
18 16 17 2
19 16 18 1
20 18 19 1
21 18 22 1
22 19 20 1
23 19 25 1
24 20 21 1
25 20 24 1
26 21 22 1
27 22 23 1
28 23 24 2
29 25 26 2
30 3 27 1
31 4 28 1
32 6 29 1
33 7 30 1
34 10 31 1
35 10 32 1
36 14 33 1
37 14 34 1
38 18 35 1
39 19 36 1
40 20 37 1
41 21 38 1
42 21 39 1
43 22 40 1
44 23 41 1
45 24 42 1
@<TRIPOS>SUBSTRUCTURE
1	UNK0	1	GROUP	1 ****	UNK
