# created with PyMOL 2.3.2
@<TRIPOS>MOLECULE
2176
42 45 1                 
SMALL
USER_CHARGES
@<TRIPOS>ATOM
1	  Cl	0.919	-0.331	6.965	Cl	1	UNK0	0.000	
2	   C	0.312	-0.048	5.344	C.2	1	UNK0	0.000	
3	   C	-0.761	0.789	5.137	C.2	1	UNK0	0.000	
4	   C	-1.209	0.985	3.833	C.2	1	UNK0	0.000	
5	   C	-0.601	0.361	2.763	C.2	1	UNK0	0.000	
6	   C	0.469	-0.465	3.037	C.2	1	UNK0	0.000	
7	   C	0.950	-0.692	4.309	C.2	1	UNK0	0.000	
8	   N	-1.110	0.607	1.470	N.pl3	1	UNK0	0.000	
9	   C	-2.216	1.462	1.199	C.2	1	UNK0	0.000	
10	   C	-2.650	1.655	-0.042	C.2	1	UNK0	0.000	
11	   N	-2.026	1.015	-1.134	N.pl3	1	UNK0	0.000	
12	   C	-2.617	-0.165	-1.715	C.3	1	UNK0	0.000	
13	   C	-1.692	-1.357	-1.591	C.3	1	UNK0	0.000	
14	   N	-0.373	-0.937	-1.971	N.pl3	1	UNK0	0.000	
15	   C	-0.149	0.350	-2.553	C.3	1	UNK0	0.000	
16	   C	-0.779	1.469	-1.748	C.3	1	UNK0	0.000	
17	   C	0.723	-1.810	-1.766	C.2	1	UNK0	0.000	
18	   N	1.985	-1.442	-2.114	N.2	1	UNK0	0.000	
19	   C	3.006	-2.295	-1.906	C.2	1	UNK0	0.000	
20	   C	2.839	-3.543	-1.351	C.2	1	UNK0	0.000	
21	   N	1.588	-3.911	-1.005	N.2	1	UNK0	0.000	
22	   C	0.561	-3.061	-1.210	C.2	1	UNK0	0.000	
23	   N	-2.848	2.109	2.296	N.pl3	1	UNK0	0.000	
24	   C	-2.349	1.875	3.617	C.2	1	UNK0	0.000	
25	   O	-2.924	2.456	4.553	O.2	1	UNK0	0.000	
26	   H	-1.250	1.287	5.959	 H	1	UNK0	0.000	
27	   H	0.971	-0.972	2.227	 H	1	UNK0	0.000	
28	   H	1.801	-1.352	4.504	 H	1	UNK0	0.000	
29	   H	-0.647	0.134	0.674	 H	1	UNK0	0.000	
30	   H	-3.493	2.313	-0.204	 H	1	UNK0	0.000	
31	   H	-2.857	-0.030	-2.791	 H	1	UNK0	0.000	
32	   H	-3.516	-0.422	-1.116	 H	1	UNK0	0.000	
33	   H	-1.736	-1.652	-0.500	 H	1	UNK0	0.000	
34	   H	-2.055	-2.221	-2.184	 H	1	UNK0	0.000	
35	   H	-0.624	0.378	-3.556	 H	1	UNK0	0.000	
36	   H	0.931	0.591	-2.641	 H	1	UNK0	0.000	
37	   H	-1.022	2.314	-2.428	 H	1	UNK0	0.000	
38	   H	-0.047	1.766	-0.978	 H	1	UNK0	0.000	
39	   H	4.017	-1.990	-2.190	 H	1	UNK0	0.000	
40	   H	3.699	-4.198	-1.203	 H	1	UNK0	0.000	
41	   H	-0.470	-3.326	-0.940	 H	1	UNK0	0.000	
42	   H	-3.660	2.740	2.110	 H	1	UNK0	0.000	
@<TRIPOS>BOND
1 1 2 1
2 2 3 2
3 2 7 1
4 3 4 1
5 4 5 2
6 4 24 1
7 5 6 1
8 5 8 1
9 6 7 2
10 8 9 1
11 9 10 2
12 9 23 1
13 10 11 1
14 11 12 1
15 11 16 1
16 12 13 1
17 13 14 1
18 14 15 1
19 14 17 1
20 15 16 1
21 17 18 2
22 17 22 1
23 18 19 1
24 19 20 2
25 20 21 1
26 21 22 2
27 23 24 1
28 24 25 2
29 3 26 1
30 6 27 1
31 7 28 1
32 8 29 1
33 10 30 1
34 12 31 1
35 12 32 1
36 13 33 1
37 13 34 1
38 15 35 1
39 15 36 1
40 16 37 1
41 16 38 1
42 19 39 1
43 20 40 1
44 22 41 1
45 23 42 1
@<TRIPOS>SUBSTRUCTURE
1	UNK0	1	GROUP	1 ****	UNK
