# created with PyMOL 2.3.2
@<TRIPOS>MOLECULE
2179
61 64 1                 
SMALL
USER_CHARGES
@<TRIPOS>ATOM
1	  Cl	-7.027	2.859	-3.291	Cl	1	UNK0	0.000	
2	   C	-5.443	2.338	-2.755	C.2	1	UNK0	0.000	
3	   C	-4.579	3.180	-2.107	C.2	1	UNK0	0.000	
4	   C	-3.340	2.734	-1.699	C.2	1	UNK0	0.000	
5	   C	-2.996	1.429	-1.957	C.2	1	UNK0	0.000	
6	   C	-3.868	0.564	-2.617	C.2	1	UNK0	0.000	
7	   C	-5.093	1.028	-3.013	C.2	1	UNK0	0.000	
8	   C	-1.727	0.917	-1.513	C.2	1	UNK0	0.000	
9	   C	-1.414	0.887	-0.233	C.2	1	UNK0	0.000	
10	   C	-0.145	0.394	0.336	C.3	1	UNK0	0.000	
11	   N	-0.538	-0.248	1.530	N.pl3	1	UNK0	0.000	
12	   C	-1.623	0.515	2.057	C.2	1	UNK0	0.000	
13	   O	-2.038	0.572	3.255	O.2	1	UNK0	0.000	
14	   C	-2.204	1.255	0.933	C.2	1	UNK0	0.000	
15	   O	-3.177	2.046	0.933	O.2	1	UNK0	0.000	
16	   C	-0.018	-1.447	2.202	C.3	1	UNK0	0.000	
17	   C	1.089	-1.056	3.174	C.3	1	UNK0	0.000	
18	   N	1.618	-2.224	3.850	N.4	1	UNK0	0.000	
19	   C	2.797	-1.838	4.595	C.3	1	UNK0	0.000	
20	   C	2.466	-1.266	5.935	C.3	1	UNK0	0.000	
21	   O	1.561	-1.998	6.664	O.3	1	UNK0	0.000	
22	   C	1.160	-3.175	6.067	C.3	1	UNK0	0.000	
23	   C	0.603	-2.827	4.697	C.3	1	UNK0	0.000	
24	   C	0.693	-0.317	-0.598	C.2	1	UNK0	0.000	
25	   C	0.404	-1.582	-1.003	C.2	1	UNK0	0.000	
26	   C	1.249	-2.208	-1.893	C.2	1	UNK0	0.000	
27	   C	2.394	-1.617	-2.408	C.2	1	UNK0	0.000	
28	   C	2.666	-0.329	-1.980	C.2	1	UNK0	0.000	
29	   C	1.820	0.298	-1.089	C.2	1	UNK0	0.000	
30	   N	3.240	-2.293	-3.323	N.pl3	1	UNK0	0.000	
31	   C	2.917	-3.632	-3.740	C.3	1	UNK0	0.000	
32	   C	4.415	-1.657	-3.837	C.3	1	UNK0	0.000	
33	   O	-0.836	0.450	-2.500	O.2	1	UNK0	0.000	
34	   H	-4.843	4.198	-1.902	 H	1	UNK0	0.000	
35	   H	-2.650	3.442	-1.202	 H	1	UNK0	0.000	
36	   H	-3.538	-0.458	-2.793	 H	1	UNK0	0.000	
37	   H	-5.754	0.331	-3.526	 H	1	UNK0	0.000	
38	   H	0.400	1.332	0.660	 H	1	UNK0	0.000	
39	   H	-0.796	-1.959	2.804	 H	1	UNK0	0.000	
40	   H	0.415	-2.174	1.528	 H	1	UNK0	0.000	
41	   H	0.719	-0.359	3.955	 H	1	UNK0	0.000	
42	   H	1.934	-0.562	2.669	 H	1	UNK0	0.000	
43	   H	1.912	-2.946	3.152	 H	1	UNK0	0.000	
44	   H	3.510	-2.680	4.720	 H	1	UNK0	0.000	
45	   H	3.293	-1.027	4.003	 H	1	UNK0	0.000	
46	   H	2.086	-0.218	5.884	 H	1	UNK0	0.000	
47	   H	3.431	-1.190	6.510	 H	1	UNK0	0.000	
48	   H	0.308	-3.583	6.652	 H	1	UNK0	0.000	
49	   H	2.001	-3.881	6.007	 H	1	UNK0	0.000	
50	   H	0.154	-3.698	4.210	 H	1	UNK0	0.000	
51	   H	-0.213	-2.094	4.869	 H	1	UNK0	0.000	
52	   H	-0.482	-2.147	-0.664	 H	1	UNK0	0.000	
53	   H	1.042	-3.232	-2.240	 H	1	UNK0	0.000	
54	   H	3.559	0.182	-2.358	 H	1	UNK0	0.000	
55	   H	2.109	1.316	-0.802	 H	1	UNK0	0.000	
56	   H	1.844	-3.720	-4.051	 H	1	UNK0	0.000	
57	   H	3.153	-4.314	-2.897	 H	1	UNK0	0.000	
58	   H	3.509	-3.976	-4.600	 H	1	UNK0	0.000	
59	   H	5.091	-1.294	-3.036	 H	1	UNK0	0.000	
60	   H	4.195	-0.788	-4.503	 H	1	UNK0	0.000	
61	   H	5.015	-2.359	-4.449	 H	1	UNK0	0.000	
@<TRIPOS>BOND
1 1 2 1
2 2 3 2
3 2 7 1
4 3 4 1
5 4 5 2
6 5 6 1
7 5 8 1
8 6 7 2
9 8 9 2
10 8 33 1
11 9 10 1
12 9 14 1
13 10 11 1
14 10 24 1
15 11 12 1
16 11 16 1
17 12 13 2
18 12 14 1
19 14 15 2
20 16 17 1
21 17 18 1
22 18 19 1
23 18 23 1
24 19 20 1
25 20 21 1
26 21 22 1
27 22 23 1
28 24 25 2
29 24 29 1
30 25 26 1
31 26 27 2
32 27 28 1
33 27 30 1
34 28 29 2
35 30 31 1
36 30 32 1
37 3 34 1
38 4 35 1
39 6 36 1
40 7 37 1
41 10 38 1
42 16 39 1
43 16 40 1
44 17 41 1
45 17 42 1
46 18 43 1
47 19 44 1
48 19 45 1
49 20 46 1
50 20 47 1
51 22 48 1
52 22 49 1
53 23 50 1
54 23 51 1
55 25 52 1
56 26 53 1
57 28 54 1
58 29 55 1
59 31 56 1
60 31 57 1
61 31 58 1
62 32 59 1
63 32 60 1
64 32 61 1
@<TRIPOS>SUBSTRUCTURE
1	UNK0	1	GROUP	1 ****	UNK
