# created with PyMOL 2.3.2
@<TRIPOS>MOLECULE
2181
50 53 1                 
SMALL
USER_CHARGES
@<TRIPOS>ATOM
1	  Br	-2.733	2.982	-3.784	Br	1	UNK0	0.000	
2	   C	-1.712	1.946	-2.549	C.2	1	UNK0	0.000	
3	   C	-2.278	1.137	-1.568	C.2	1	UNK0	0.000	
4	   C	-1.479	0.433	-0.705	C.2	1	UNK0	0.000	
5	   C	-0.090	0.483	-0.759	C.2	1	UNK0	0.000	
6	   C	0.424	1.296	-1.741	C.2	1	UNK0	0.000	
7	   C	-0.321	2.013	-2.622	C.2	1	UNK0	0.000	
8	   N	0.640	-0.258	0.172	N.pl3	1	UNK0	0.000	
9	   C	0.957	0.191	1.582	C.3	1	UNK0	0.000	
10	   C	2.362	-0.071	1.601	C.3	1	UNK0	0.000	
11	   N	2.458	-1.428	0.973	N.4	1	UNK0	0.000	
12	   C	2.509	-2.494	1.906	C.3	1	UNK0	0.000	
13	   C	2.872	-3.771	1.165	C.3	1	UNK0	0.000	
14	   C	1.622	-4.396	0.554	C.3	1	UNK0	0.000	
15	   C	1.362	-3.832	-0.861	C.3	1	UNK0	0.000	
16	   C	0.847	-2.466	-0.647	C.2	1	UNK0	0.000	
17	   C	1.293	-1.499	0.111	C.2	1	UNK0	0.000	
18	   O	0.292	-0.799	2.372	O.3	1	UNK0	0.000	
19	   C	0.272	1.473	1.711	C.2	1	UNK0	0.000	
20	   C	0.612	2.606	1.058	C.2	1	UNK0	0.000	
21	   C	-0.201	3.762	0.958	C.2	1	UNK0	0.000	
22	   C	-1.450	3.690	1.596	C.2	1	UNK0	0.000	
23	   C	-1.786	2.576	2.249	C.2	1	UNK0	0.000	
24	   C	-1.005	1.438	2.357	C.2	1	UNK0	0.000	
25	   O	-2.281	4.832	1.487	O.3	1	UNK0	0.000	
26	   C	-3.555	4.946	2.041	C.3	1	UNK0	0.000	
27	   H	-3.365	1.130	-1.560	 H	1	UNK0	0.000	
28	   H	-1.970	-0.174	0.041	 H	1	UNK0	0.000	
29	   H	1.522	1.345	-1.801	 H	1	UNK0	0.000	
30	   H	0.206	2.605	-3.352	 H	1	UNK0	0.000	
31	   H	2.996	0.659	1.041	 H	1	UNK0	0.000	
32	   H	2.789	-0.153	2.659	 H	1	UNK0	0.000	
33	   H	3.325	-1.407	0.446	 H	1	UNK0	0.000	
34	   H	1.608	-2.678	2.505	 H	1	UNK0	0.000	
35	   H	3.351	-2.329	2.622	 H	1	UNK0	0.000	
36	   H	3.552	-3.535	0.354	 H	1	UNK0	0.000	
37	   H	3.309	-4.484	1.926	 H	1	UNK0	0.000	
38	   H	1.753	-5.476	0.484	 H	1	UNK0	0.000	
39	   H	0.757	-4.069	1.196	 H	1	UNK0	0.000	
40	   H	0.657	-4.497	-1.342	 H	1	UNK0	0.000	
41	   H	2.291	-3.805	-1.428	 H	1	UNK0	0.000	
42	   H	-0.057	-2.231	-1.227	 H	1	UNK0	0.000	
43	   H	0.653	-0.655	3.304	 H	1	UNK0	0.000	
44	   H	1.604	2.617	0.561	 H	1	UNK0	0.000	
45	   H	0.114	4.631	0.440	 H	1	UNK0	0.000	
46	   H	-2.780	2.543	2.747	 H	1	UNK0	0.000	
47	   H	-1.278	0.552	2.864	 H	1	UNK0	0.000	
48	   H	-4.067	3.929	2.115	 H	1	UNK0	0.000	
49	   H	-4.253	5.529	1.381	 H	1	UNK0	0.000	
50	   H	-3.520	5.334	3.069	 H	1	UNK0	0.000	
@<TRIPOS>BOND
1 1 2 1
2 2 3 2
3 2 7 1
4 3 4 1
5 4 5 2
6 5 6 1
7 5 8 1
8 6 7 2
9 8 9 1
10 8 17 1
11 9 10 1
12 9 18 1
13 9 19 1
14 10 11 1
15 11 12 1
16 11 17 1
17 12 13 1
18 13 14 1
19 14 15 1
20 15 16 1
21 16 17 2
22 19 20 2
23 19 24 1
24 20 21 1
25 21 22 2
26 22 23 1
27 22 25 1
28 23 24 2
29 25 26 1
30 3 27 1
31 4 28 1
32 6 29 1
33 7 30 1
34 10 31 1
35 10 32 1
36 11 33 1
37 12 34 1
38 12 35 1
39 13 36 1
40 13 37 1
41 14 38 1
42 14 39 1
43 15 40 1
44 15 41 1
45 16 42 1
46 18 43 1
47 20 44 1
48 21 45 1
49 23 46 1
50 24 47 1
51 26 48 1
52 26 49 1
53 26 50 1
@<TRIPOS>SUBSTRUCTURE
1	UNK0	1	GROUP	1 ****	UNK
