# created with PyMOL 2.3.2
@<TRIPOS>MOLECULE
2182
41 44 1                 
SMALL
USER_CHARGES
@<TRIPOS>ATOM
1	  Cl	-0.013	2.404	-0.923	Cl	1	UNK0	0.000	
2	   C	-1.236	1.163	-0.857	C.2	1	UNK0	0.000	
3	   C	-1.054	-0.196	-0.671	C.2	1	UNK0	0.000	
4	   N	-2.320	-0.719	-0.723	N.pl3	1	UNK0	0.000	
5	   N	-3.191	0.240	-0.920	N.2	1	UNK0	0.000	
6	   C	-2.585	1.429	-1.012	C.2	1	UNK0	0.000	
7	   C	-3.245	2.762	-1.256	C.3	1	UNK0	0.000	
8	   C	-4.767	2.780	-0.996	C.3	1	UNK0	0.000	
9	   C	-4.235	2.756	-2.381	C.3	1	UNK0	0.000	
10	   C	0.169	-0.916	-0.393	C.2	1	UNK0	0.000	
11	   O	0.318	-2.109	-0.661	O.2	1	UNK0	0.000	
12	   N	1.284	-0.229	0.237	N.pl3	1	UNK0	0.000	
13	   C	2.522	-0.991	0.507	C.3	1	UNK0	0.000	
14	   C	3.733	-0.259	0.096	C.3	1	UNK0	0.000	
15	   N	4.391	0.436	1.195	N.pl3	1	UNK0	0.000	
16	   C	3.870	0.607	2.469	C.2	1	UNK0	0.000	
17	   O	4.318	1.391	3.350	O.2	1	UNK0	0.000	
18	   C	2.671	-0.187	2.880	C.3	1	UNK0	0.000	
19	   C	2.530	-1.369	1.986	C.3	1	UNK0	0.000	
20	   C	4.769	-0.965	-0.683	C.3	1	UNK0	0.000	
21	   C	5.453	-2.182	-0.205	C.3	1	UNK0	0.000	
22	   C	4.572	-2.214	-1.457	C.3	1	UNK0	0.000	
23	   H	-2.474	-1.741	-0.611	 H	1	UNK0	0.000	
24	   H	-2.731	3.683	-0.988	 H	1	UNK0	0.000	
25	   H	-5.167	1.852	-0.520	 H	1	UNK0	0.000	
26	   H	-5.200	3.730	-0.613	 H	1	UNK0	0.000	
27	   H	-4.362	1.786	-2.951	 H	1	UNK0	0.000	
28	   H	-4.445	3.651	-2.989	 H	1	UNK0	0.000	
29	   H	1.166	0.757	0.480	 H	1	UNK0	0.000	
30	   H	2.417	-1.940	-0.028	 H	1	UNK0	0.000	
31	   H	3.368	0.596	-0.567	 H	1	UNK0	0.000	
32	   H	5.332	0.835	0.985	 H	1	UNK0	0.000	
33	   H	2.828	-0.517	3.910	 H	1	UNK0	0.000	
34	   H	1.809	0.510	2.837	 H	1	UNK0	0.000	
35	   H	1.607	-1.922	2.197	 H	1	UNK0	0.000	
36	   H	3.388	-2.046	2.140	 H	1	UNK0	0.000	
37	   H	5.460	-0.232	-1.217	 H	1	UNK0	0.000	
38	   H	5.113	-2.787	0.639	 H	1	UNK0	0.000	
39	   H	6.544	-2.300	-0.409	 H	1	UNK0	0.000	
40	   H	5.125	-2.349	-2.439	 H	1	UNK0	0.000	
41	   H	3.587	-2.685	-1.429	 H	1	UNK0	0.000	
@<TRIPOS>BOND
1 1 2 1
2 2 3 2
3 2 6 1
4 3 4 1
5 3 10 1
6 4 5 1
7 5 6 2
8 6 7 1
9 7 8 1
10 7 9 1
11 8 9 1
12 10 11 2
13 10 12 1
14 12 13 1
15 13 14 1
16 13 19 1
17 14 15 1
18 14 20 1
19 15 16 1
20 16 17 2
21 16 18 1
22 18 19 1
23 20 21 1
24 20 22 1
25 21 22 1
26 4 23 1
27 7 24 1
28 8 25 1
29 8 26 1
30 9 27 1
31 9 28 1
32 12 29 1
33 13 30 1
34 14 31 1
35 15 32 1
36 18 33 1
37 18 34 1
38 19 35 1
39 19 36 1
40 20 37 1
41 21 38 1
42 21 39 1
43 22 40 1
44 22 41 1
@<TRIPOS>SUBSTRUCTURE
1	UNK0	1	GROUP	1 ****	UNK
