# created with PyMOL 2.3.2
@<TRIPOS>MOLECULE
2183
38 41 1                 
SMALL
USER_CHARGES
@<TRIPOS>ATOM
1	  Cl	-0.292	1.136	-3.478	Cl	1	UNK0	0.000	
2	   C	-0.086	-0.283	-2.503	C.2	1	UNK0	0.000	
3	   C	-0.602	-0.503	-1.214	C.2	1	UNK0	0.000	
4	   N	-0.170	-1.727	-0.902	N.pl3	1	UNK0	0.000	
5	   N	0.557	-2.253	-1.895	N.2	1	UNK0	0.000	
6	   C	0.632	-1.385	-2.906	C.2	1	UNK0	0.000	
7	   C	1.338	-1.551	-4.209	C.3	1	UNK0	0.000	
8	   C	2.127	-2.764	-4.467	C.3	1	UNK0	0.000	
9	   C	0.832	-2.571	-5.158	C.3	1	UNK0	0.000	
10	   C	-1.421	0.472	-0.524	C.2	1	UNK0	0.000	
11	   O	-1.599	1.614	-1.130	O.2	1	UNK0	0.000	
12	   N	-2.054	0.379	0.702	N.pl3	1	UNK0	0.000	
13	   C	-2.130	-0.709	1.622	C.3	1	UNK0	0.000	
14	   C	-1.181	-0.495	2.790	C.3	1	UNK0	0.000	
15	   N	-1.129	0.941	3.037	N.pl3	1	UNK0	0.000	
16	   C	-2.167	1.769	2.587	C.2	1	UNK0	0.000	
17	   O	-2.623	2.659	3.362	O.2	1	UNK0	0.000	
18	   C	-2.733	1.609	1.206	C.3	1	UNK0	0.000	
19	   C	-0.023	1.534	3.774	C.3	1	UNK0	0.000	
20	   C	0.870	0.705	4.600	C.3	1	UNK0	0.000	
21	   C	1.354	1.060	3.221	C.3	1	UNK0	0.000	
22	   H	-0.349	-2.228	-0.003	 H	1	UNK0	0.000	
23	   H	1.649	-0.597	-4.685	 H	1	UNK0	0.000	
24	   H	2.251	-3.453	-3.609	 H	1	UNK0	0.000	
25	   H	3.089	-2.634	-5.038	 H	1	UNK0	0.000	
26	   H	0.877	-2.384	-6.241	 H	1	UNK0	0.000	
27	   H	0.042	-3.298	-4.865	 H	1	UNK0	0.000	
28	   H	-3.196	-0.685	2.071	 H	1	UNK0	0.000	
29	   H	-2.079	-1.692	1.172	 H	1	UNK0	0.000	
30	   H	-1.663	-0.953	3.684	 H	1	UNK0	0.000	
31	   H	-0.228	-0.952	2.549	 H	1	UNK0	0.000	
32	   H	-3.788	1.334	1.302	 H	1	UNK0	0.000	
33	   H	-2.501	2.476	0.591	 H	1	UNK0	0.000	
34	   H	-0.089	2.614	3.948	 H	1	UNK0	0.000	
35	   H	0.628	-0.338	4.865	 H	1	UNK0	0.000	
36	   H	1.407	1.252	5.411	 H	1	UNK0	0.000	
37	   H	2.111	1.876	3.113	 H	1	UNK0	0.000	
38	   H	1.376	0.252	2.495	 H	1	UNK0	0.000	
@<TRIPOS>BOND
1 1 2 1
2 2 3 2
3 2 6 1
4 3 4 1
5 3 10 1
6 4 5 1
7 5 6 2
8 6 7 1
9 7 8 1
10 7 9 1
11 8 9 1
12 10 11 2
13 10 12 1
14 12 13 1
15 12 18 1
16 13 14 1
17 14 15 1
18 15 16 1
19 15 19 1
20 16 17 2
21 16 18 1
22 19 20 1
23 19 21 1
24 20 21 1
25 4 22 1
26 7 23 1
27 8 24 1
28 8 25 1
29 9 26 1
30 9 27 1
31 13 28 1
32 13 29 1
33 14 30 1
34 14 31 1
35 18 32 1
36 18 33 1
37 19 34 1
38 20 35 1
39 20 36 1
40 21 37 1
41 21 38 1
@<TRIPOS>SUBSTRUCTURE
1	UNK0	1	GROUP	1 ****	UNK
