# created with PyMOL 2.3.2
@<TRIPOS>MOLECULE
2184
49 52 1                 
SMALL
USER_CHARGES
@<TRIPOS>ATOM
1	  Cl	6.215	-0.929	1.256	Cl	1	UNK0	0.000	
2	   C	4.574	-0.955	1.911	C.2	1	UNK0	0.000	
3	   C	3.573	-0.123	1.486	C.2	1	UNK0	0.000	
4	   C	2.323	-0.222	1.989	C.2	1	UNK0	0.000	
5	   C	2.015	-1.157	2.938	C.2	1	UNK0	0.000	
6	   C	3.048	-2.017	3.382	C.2	1	UNK0	0.000	
7	   C	4.318	-1.925	2.886	C.2	1	UNK0	0.000	
8	   O	5.332	-2.783	3.368	O.2	1	UNK0	0.000	
9	   O	0.816	-1.299	3.427	O.3	1	UNK0	0.000	
10	   C	-0.172	-0.518	3.005	C.2	1	UNK0	0.000	
11	   O	-1.303	-0.671	3.483	O.co2	1	UNK0	0.000	
12	   C	0.061	0.470	2.027	C.2	1	UNK0	0.000	
13	   C	1.294	0.645	1.502	C.2	1	UNK0	0.000	
14	   C	1.801	1.659	0.563	C.3	1	UNK0	0.000	
15	   N	1.208	1.895	-0.680	N.4	1	UNK0	0.000	
16	   C	-0.150	1.903	-0.936	C.3	1	UNK0	0.000	
17	   C	-0.456	1.199	-2.303	C.3	1	UNK0	0.000	
18	   N	-0.157	-0.248	-1.866	N.pl3	1	UNK0	0.000	
19	   C	1.188	-0.442	-1.623	C.3	1	UNK0	0.000	
20	   C	1.843	0.957	-1.651	C.3	1	UNK0	0.000	
21	   C	-1.328	-1.027	-1.744	C.2	1	UNK0	0.000	
22	   C	-1.612	-1.906	-0.758	C.2	1	UNK0	0.000	
23	   C	-2.917	-2.452	-0.592	C.2	1	UNK0	0.000	
24	   C	-3.948	-2.111	-1.426	C.2	1	UNK0	0.000	
25	   C	-3.664	-1.213	-2.450	C.2	1	UNK0	0.000	
26	   C	-2.389	-0.690	-2.606	C.2	1	UNK0	0.000	
27	   O	-5.203	-2.672	-1.225	O.3	1	UNK0	0.000	
28	   C	-6.326	-2.275	-2.027	C.3	1	UNK0	0.000	
29	   H	3.833	0.585	0.747	 H	1	UNK0	0.000	
30	   H	2.823	-2.761	4.136	 H	1	UNK0	0.000	
31	   H	-0.769	1.102	1.768	 H	1	UNK0	0.000	
32	   H	2.799	2.077	0.731	 H	1	UNK0	0.000	
33	   H	1.252	2.625	1.139	 H	1	UNK0	0.000	
34	   H	1.601	2.833	-1.016	 H	1	UNK0	0.000	
35	   H	-0.825	1.300	-0.262	 H	1	UNK0	0.000	
36	   H	-0.678	2.884	-1.018	 H	1	UNK0	0.000	
37	   H	0.109	1.422	-3.118	 H	1	UNK0	0.000	
38	   H	-1.541	1.298	-2.380	 H	1	UNK0	0.000	
39	   H	1.328	-0.886	-0.602	 H	1	UNK0	0.000	
40	   H	1.787	-1.078	-2.325	 H	1	UNK0	0.000	
41	   H	1.757	1.374	-2.628	 H	1	UNK0	0.000	
42	   H	2.930	0.902	-1.428	 H	1	UNK0	0.000	
43	   H	-0.796	-2.200	-0.087	 H	1	UNK0	0.000	
44	   H	-3.068	-3.132	0.217	 H	1	UNK0	0.000	
45	   H	-4.452	-0.912	-3.133	 H	1	UNK0	0.000	
46	   H	-2.205	-0.037	-3.422	 H	1	UNK0	0.000	
47	   H	-7.031	-1.667	-1.358	 H	1	UNK0	0.000	
48	   H	-6.835	-3.091	-2.530	 H	1	UNK0	0.000	
49	   H	-6.060	-1.532	-2.807	 H	1	UNK0	0.000	
@<TRIPOS>BOND
1 1 2 1
2 2 3 2
3 2 7 1
4 3 4 1
5 4 5 2
6 4 13 1
7 5 6 1
8 5 9 1
9 6 7 2
10 7 8 1
11 9 10 1
12 10 11 2
13 10 12 1
14 12 13 2
15 13 14 1
16 14 15 1
17 15 16 1
18 15 20 1
19 16 17 1
20 17 18 1
21 18 19 1
22 18 21 1
23 19 20 1
24 21 22 2
25 21 26 1
26 22 23 1
27 23 24 2
28 24 25 1
29 24 27 1
30 25 26 2
31 27 28 1
32 3 29 1
33 6 30 1
34 12 31 1
35 14 32 1
36 14 33 1
37 15 34 1
38 16 35 1
39 16 36 1
40 17 37 1
41 17 38 1
42 19 39 1
43 19 40 1
44 20 41 1
45 20 42 1
46 22 43 1
47 23 44 1
48 25 45 1
49 26 46 1
50 28 47 1
51 28 48 1
52 28 49 1
@<TRIPOS>SUBSTRUCTURE
1	UNK0	1	GROUP	1 ****	UNK
