# created with PyMOL 2.3.2
@<TRIPOS>MOLECULE
2185
55 59 1                 
SMALL
USER_CHARGES
@<TRIPOS>ATOM
1	  Cl	-1.337	1.212	1.814	Cl	1	UNK0	0.000	
2	   C	-2.107	2.278	0.658	C.2	1	UNK0	0.000	
3	   C	-2.935	1.735	-0.303	C.2	1	UNK0	0.000	
4	   C	-3.517	2.634	-1.192	C.2	1	UNK0	0.000	
5	   N	-3.273	3.955	-1.105	N.2	1	UNK0	0.000	
6	   N	-2.479	4.486	-0.186	N.pl3	1	UNK0	0.000	
7	   C	-1.899	3.641	0.693	C.2	1	UNK0	0.000	
8	   O	-1.145	4.087	1.575	O.2	1	UNK0	0.000	
9	   C	-2.223	5.884	-0.097	C.2	1	UNK0	0.000	
10	   C	-1.896	6.639	-1.205	C.2	1	UNK0	0.000	
11	   C	-1.666	7.986	-1.025	C.2	1	UNK0	0.000	
12	   C	-1.756	8.572	0.216	C.2	1	UNK0	0.000	
13	   C	-2.086	7.801	1.325	C.2	1	UNK0	0.000	
14	   C	-2.319	6.454	1.163	C.2	1	UNK0	0.000	
15	   N	-3.184	0.337	-0.382	N.pl3	1	UNK0	0.000	
16	   C	-3.792	-0.331	0.755	C.3	1	UNK0	0.000	
17	   C	-3.073	-1.616	1.120	C.3	1	UNK0	0.000	
18	   N	-2.168	-1.940	0.046	N.pl3	1	UNK0	0.000	
19	   C	-2.667	-1.874	-1.285	C.3	1	UNK0	0.000	
20	   C	-2.819	-0.375	-1.609	C.3	1	UNK0	0.000	
21	   C	-0.802	-2.315	0.413	C.2	1	UNK0	0.000	
22	   O	-0.668	-2.318	1.648	O.2	1	UNK0	0.000	
23	   C	0.160	-2.614	-0.570	C.2	1	UNK0	0.000	
24	   C	1.380	-2.972	-0.791	C.2	1	UNK0	0.000	
25	   N	1.758	-3.110	-2.214	N.pl3	1	UNK0	0.000	
26	   N	3.043	-3.490	-2.577	N.pl3	1	UNK0	0.000	
27	   C	4.025	-3.755	-1.602	C.2	1	UNK0	0.000	
28	   O	5.168	-4.093	-1.971	O.2	1	UNK0	0.000	
29	   C	3.728	-3.641	-0.186	C.2	1	UNK0	0.000	
30	   C	2.440	-3.260	0.169	C.2	1	UNK0	0.000	
31	   C	2.184	-3.160	1.518	C.2	1	UNK0	0.000	
32	   C	3.119	-3.411	2.509	C.2	1	UNK0	0.000	
33	   C	4.383	-3.785	2.121	C.2	1	UNK0	0.000	
34	   C	4.678	-3.897	0.777	C.2	1	UNK0	0.000	
35	   H	-4.168	2.239	-1.952	 H	1	UNK0	0.000	
36	   H	-1.826	6.168	-2.190	 H	1	UNK0	0.000	
37	   H	-1.406	8.621	-1.864	 H	1	UNK0	0.000	
38	   H	-1.578	9.636	0.387	 H	1	UNK0	0.000	
39	   H	-2.165	8.227	2.314	 H	1	UNK0	0.000	
40	   H	-2.573	5.883	2.046	 H	1	UNK0	0.000	
41	   H	-3.720	0.325	1.645	 H	1	UNK0	0.000	
42	   H	-4.856	-0.558	0.480	 H	1	UNK0	0.000	
43	   H	-3.832	-2.437	1.202	 H	1	UNK0	0.000	
44	   H	-2.547	-1.547	2.094	 H	1	UNK0	0.000	
45	   H	-3.767	-2.221	-1.270	 H	1	UNK0	0.000	
46	   H	-2.175	-2.431	-2.063	 H	1	UNK0	0.000	
47	   H	-1.830	-0.019	-1.951	 H	1	UNK0	0.000	
48	   H	-3.571	-0.204	-2.401	 H	1	UNK0	0.000	
49	   H	-0.370	-2.457	-1.605	 H	1	UNK0	0.000	
50	   H	1.094	-2.933	-2.976	 H	1	UNK0	0.000	
51	   H	3.291	-3.582	-3.604	 H	1	UNK0	0.000	
52	   H	1.210	-2.873	1.815	 H	1	UNK0	0.000	
53	   H	2.868	-3.318	3.553	 H	1	UNK0	0.000	
54	   H	5.114	-3.982	2.890	 H	1	UNK0	0.000	
55	   H	5.671	-4.190	0.500	 H	1	UNK0	0.000	
@<TRIPOS>BOND
1 1 2 1
2 2 3 2
3 2 7 1
4 3 4 1
5 3 15 1
6 4 5 2
7 5 6 1
8 6 7 1
9 6 9 1
10 7 8 2
11 9 10 2
12 9 14 1
13 10 11 1
14 11 12 2
15 12 13 1
16 13 14 2
17 15 16 1
18 15 20 1
19 16 17 1
20 17 18 1
21 18 19 1
22 18 21 1
23 19 20 1
24 21 22 2
25 21 23 1
26 23 24 2
27 24 25 1
28 24 30 1
29 25 26 1
30 26 27 1
31 27 28 2
32 27 29 1
33 29 30 2
34 29 34 1
35 30 31 1
36 31 32 2
37 32 33 1
38 33 34 2
39 4 35 1
40 10 36 1
41 11 37 1
42 12 38 1
43 13 39 1
44 14 40 1
45 16 41 1
46 16 42 1
47 17 43 1
48 17 44 1
49 19 45 1
50 19 46 1
51 20 47 1
52 20 48 1
53 23 49 1
54 25 50 1
55 26 51 1
56 31 52 1
57 32 53 1
58 33 54 1
59 34 55 1
@<TRIPOS>SUBSTRUCTURE
1	UNK0	1	GROUP	1 ****	UNK
