# created with PyMOL 2.3.2
@<TRIPOS>MOLECULE
2191
42 45 1                 
SMALL
USER_CHARGES
@<TRIPOS>ATOM
1	  Cl	1.827	0.428	-3.839	Cl	1	UNK0	0.000	
2	   C	1.628	-1.068	-2.981	C.2	1	UNK0	0.000	
3	   C	1.587	-2.309	-3.579	C.2	1	UNK0	0.000	
4	   C	1.418	-3.199	-2.544	C.2	1	UNK0	0.000	
5	   N	1.361	-2.499	-1.372	N.pl3	1	UNK0	0.000	
6	   C	1.486	-1.182	-1.596	C.2	1	UNK0	0.000	
7	   C	1.487	-0.055	-0.681	C.2	1	UNK0	0.000	
8	   O	1.627	1.109	-1.163	O.2	1	UNK0	0.000	
9	   N	1.342	-0.178	0.721	N.pl3	1	UNK0	0.000	
10	   C	1.357	1.030	1.581	C.3	1	UNK0	0.000	
11	   C	0.459	0.596	2.698	C.3	1	UNK0	0.000	
12	   O	0.654	1.387	3.798	O.3	1	UNK0	0.000	
13	   C	0.260	2.698	3.582	C.3	1	UNK0	0.000	
14	   C	-1.207	2.693	3.374	C.2	1	UNK0	0.000	
15	   O	-1.906	3.677	3.674	O.2	1	UNK0	0.000	
16	   N	-1.800	1.534	2.823	N.pl3	1	UNK0	0.000	
17	   C	-0.983	0.465	2.280	C.3	1	UNK0	0.000	
18	   C	-3.246	1.444	2.815	C.3	1	UNK0	0.000	
19	   C	1.017	-0.787	2.967	C.3	1	UNK0	0.000	
20	   C	1.168	-1.333	1.554	C.3	1	UNK0	0.000	
21	   C	1.343	-4.537	-2.871	C.2	1	UNK0	0.000	
22	   C	1.432	-4.987	-4.169	C.2	1	UNK0	0.000	
23	   C	1.601	-4.089	-5.201	C.2	1	UNK0	0.000	
24	   C	1.679	-2.728	-4.891	C.2	1	UNK0	0.000	
25	   H	1.237	-2.966	-0.456	 H	1	UNK0	0.000	
26	   H	1.020	1.912	1.045	 H	1	UNK0	0.000	
27	   H	2.385	1.089	1.974	 H	1	UNK0	0.000	
28	   H	0.766	3.166	2.705	 H	1	UNK0	0.000	
29	   H	0.493	3.293	4.491	 H	1	UNK0	0.000	
30	   H	-1.075	0.418	1.170	 H	1	UNK0	0.000	
31	   H	-1.370	-0.484	2.706	 H	1	UNK0	0.000	
32	   H	-3.668	2.064	2.022	 H	1	UNK0	0.000	
33	   H	-3.589	1.783	3.814	 H	1	UNK0	0.000	
34	   H	-3.591	0.394	2.669	 H	1	UNK0	0.000	
35	   H	0.346	-1.410	3.578	 H	1	UNK0	0.000	
36	   H	2.025	-0.652	3.394	 H	1	UNK0	0.000	
37	   H	2.037	-2.003	1.529	 H	1	UNK0	0.000	
38	   H	0.231	-1.899	1.369	 H	1	UNK0	0.000	
39	   H	1.211	-5.265	-2.084	 H	1	UNK0	0.000	
40	   H	1.371	-6.054	-4.415	 H	1	UNK0	0.000	
41	   H	1.668	-4.456	-6.212	 H	1	UNK0	0.000	
42	   H	1.809	-2.001	-5.654	 H	1	UNK0	0.000	
@<TRIPOS>BOND
1 1 2 1
2 2 3 1
3 2 6 2
4 3 4 2
5 3 24 1
6 4 5 1
7 4 21 1
8 5 6 1
9 6 7 1
10 7 8 2
11 7 9 1
12 9 10 1
13 9 20 1
14 10 11 1
15 11 12 1
16 11 17 1
17 11 19 1
18 12 13 1
19 13 14 1
20 14 15 2
21 14 16 1
22 16 17 1
23 16 18 1
24 19 20 1
25 21 22 2
26 22 23 1
27 23 24 2
28 5 25 1
29 10 26 1
30 10 27 1
31 13 28 1
32 13 29 1
33 17 30 1
34 17 31 1
35 18 32 1
36 18 33 1
37 18 34 1
38 19 35 1
39 19 36 1
40 20 37 1
41 20 38 1
42 21 39 1
43 22 40 1
44 23 41 1
45 24 42 1
@<TRIPOS>SUBSTRUCTURE
1	UNK0	1	GROUP	1 ****	UNK
