# created with PyMOL 2.3.2
@<TRIPOS>MOLECULE
2192
50 53 1                 
SMALL
USER_CHARGES
@<TRIPOS>ATOM
1	   S	-2.548	1.956	-0.552	S.O2	1	UNK0	0.000	
2	   O	-1.587	2.504	0.445	O.2	1	UNK0	0.000	
3	   O	-3.850	2.725	-0.366	O.2	1	UNK0	0.000	
4	   N	-2.030	2.217	-2.151	N.3	1	UNK0	0.000	
5	   C	-0.808	1.566	-2.489	C.3	1	UNK0	0.000	
6	   C	-0.386	1.826	-3.921	C.3	1	UNK0	0.000	
7	   O	-1.348	1.375	-4.787	O.3	1	UNK0	0.000	
8	   C	-1.796	2.400	-5.574	C.3	1	UNK0	0.000	
9	   C	-0.853	3.554	-5.481	C.3	1	UNK0	0.000	
10	   C	-0.091	3.255	-4.211	C.3	1	UNK0	0.000	
11	   C	-2.864	0.279	-0.204	C.2	1	UNK0	0.000	
12	   C	-3.817	-0.402	-0.920	C.2	1	UNK0	0.000	
13	   C	-4.061	-1.738	-0.636	C.2	1	UNK0	0.000	
14	   C	-3.340	-2.361	0.362	C.2	1	UNK0	0.000	
15	   C	-2.374	-1.680	1.092	C.2	1	UNK0	0.000	
16	   C	-2.161	-0.365	0.784	C.2	1	UNK0	0.000	
17	   C	-1.645	-2.390	2.134	C.2	1	UNK0	0.000	
18	   O	-1.929	-3.595	2.359	O.2	1	UNK0	0.000	
19	   N	-0.634	-1.807	2.913	N.pl3	1	UNK0	0.000	
20	   C	0.079	-2.556	3.956	C.3	1	UNK0	0.000	
21	   C	1.098	-1.718	4.633	C.2	1	UNK0	0.000	
22	   N	2.399	-1.594	4.242	N.pl3	1	UNK0	0.000	
23	   C	3.036	-0.759	5.077	C.2	1	UNK0	0.000	
24	   N	2.139	-0.359	5.990	N.2	1	UNK0	0.000	
25	   N	0.979	-0.936	5.719	N.2	1	UNK0	0.000	
26	   C	4.368	-0.470	4.894	C.2	1	UNK0	0.000	
27	   C	5.021	-1.065	3.829	C.2	1	UNK0	0.000	
28	   C	4.372	-1.916	2.976	C.2	1	UNK0	0.000	
29	   C	3.024	-2.177	3.205	C.2	1	UNK0	0.000	
30	  Cl	-4.740	0.403	-2.202	Cl	1	UNK0	0.000	
31	   H	-1.944	3.239	-2.336	 H	1	UNK0	0.000	
32	   H	0.013	1.849	-1.789	 H	1	UNK0	0.000	
33	   H	-0.930	0.468	-2.385	 H	1	UNK0	0.000	
34	   H	0.553	1.246	-4.164	 H	1	UNK0	0.000	
35	   H	-1.790	2.022	-6.638	 H	1	UNK0	0.000	
36	   H	-2.850	2.658	-5.342	 H	1	UNK0	0.000	
37	   H	-0.173	3.637	-6.358	 H	1	UNK0	0.000	
38	   H	-1.438	4.493	-5.380	 H	1	UNK0	0.000	
39	   H	0.996	3.440	-4.436	 H	1	UNK0	0.000	
40	   H	-0.377	3.961	-3.420	 H	1	UNK0	0.000	
41	   H	-4.817	-2.299	-1.196	 H	1	UNK0	0.000	
42	   H	-3.520	-3.411	0.598	 H	1	UNK0	0.000	
43	   H	-1.398	0.141	1.373	 H	1	UNK0	0.000	
44	   H	-0.333	-0.815	2.797	 H	1	UNK0	0.000	
45	   H	-0.695	-2.917	4.656	 H	1	UNK0	0.000	
46	   H	0.575	-3.422	3.456	 H	1	UNK0	0.000	
47	   H	4.932	0.187	5.524	 H	1	UNK0	0.000	
48	   H	6.075	-0.874	3.632	 H	1	UNK0	0.000	
49	   H	4.825	-2.408	2.133	 H	1	UNK0	0.000	
50	   H	2.497	-2.853	2.534	 H	1	UNK0	0.000	
@<TRIPOS>BOND
1 1 2 2
2 1 3 2
3 1 4 1
4 1 11 1
5 4 5 1
6 5 6 1
7 6 7 1
8 6 10 1
9 7 8 1
10 8 9 1
11 9 10 1
12 11 12 2
13 11 16 1
14 12 13 1
15 12 30 1
16 13 14 2
17 14 15 1
18 15 16 2
19 15 17 1
20 17 18 2
21 17 19 1
22 19 20 1
23 20 21 1
24 21 22 1
25 21 25 2
26 22 23 1
27 22 29 1
28 23 24 2
29 23 26 1
30 24 25 1
31 26 27 2
32 27 28 1
33 28 29 2
34 4 31 1
35 5 32 1
36 5 33 1
37 6 34 1
38 8 35 1
39 8 36 1
40 9 37 1
41 9 38 1
42 10 39 1
43 10 40 1
44 13 41 1
45 14 42 1
46 16 43 1
47 19 44 1
48 20 45 1
49 20 46 1
50 26 47 1
51 27 48 1
52 28 49 1
53 29 50 1
@<TRIPOS>SUBSTRUCTURE
1	UNK0	1	GROUP	1 ****	UNK
