# created with PyMOL 2.3.2
@<TRIPOS>MOLECULE
2193
41 44 1                 
SMALL
USER_CHARGES
@<TRIPOS>ATOM
1	  Cl	4.794	4.103	-5.954	Cl	1	UNK0	0.000	
2	   C	3.793	3.942	-4.517	C.2	1	UNK0	0.000	
3	   C	2.950	2.882	-4.300	C.2	1	UNK0	0.000	
4	   N	2.194	2.794	-3.181	N.pl3	1	UNK0	0.000	
5	   C	2.258	3.765	-2.244	C.2	1	UNK0	0.000	
6	   N	1.415	3.445	-1.232	N.2	1	UNK0	0.000	
7	   C	0.808	2.285	-1.499	C.2	1	UNK0	0.000	
8	   C	1.302	1.879	-2.727	C.2	1	UNK0	0.000	
9	   C	-0.171	1.582	-0.682	C.2	1	UNK0	0.000	
10	   O	-0.527	2.115	0.403	O.2	1	UNK0	0.000	
11	   N	-0.695	0.344	-1.103	N.pl3	1	UNK0	0.000	
12	   C	-1.666	-0.428	-0.368	C.3	1	UNK0	0.000	
13	   C	-1.215	-1.842	-0.119	C.3	1	UNK0	0.000	
14	   C	-2.526	-2.563	-0.131	C.3	1	UNK0	0.000	
15	   O	-3.269	-1.962	-1.144	O.3	1	UNK0	0.000	
16	   C	-2.866	-0.660	-1.250	C.3	1	UNK0	0.000	
17	   N	-0.467	-1.997	1.087	N.3	1	UNK0	0.000	
18	   C	-1.135	-1.707	2.302	C.3	1	UNK0	0.000	
19	   C	-0.072	-2.127	3.332	C.3	1	UNK0	0.000	
20	   C	0.496	-3.361	2.660	C.3	1	UNK0	0.000	
21	   C	-0.105	-3.389	1.249	C.3	1	UNK0	0.000	
22	   N	3.088	4.800	-2.467	N.2	1	UNK0	0.000	
23	   C	3.857	4.930	-3.560	C.2	1	UNK0	0.000	
24	   H	2.880	2.103	-5.026	 H	1	UNK0	0.000	
25	   H	1.015	0.970	-3.239	 H	1	UNK0	0.000	
26	   H	-0.373	-0.066	-2.010	 H	1	UNK0	0.000	
27	   H	-2.013	0.069	0.558	 H	1	UNK0	0.000	
28	   H	-0.583	-2.160	-0.964	 H	1	UNK0	0.000	
29	   H	-2.404	-3.665	-0.289	 H	1	UNK0	0.000	
30	   H	-3.085	-2.359	0.813	 H	1	UNK0	0.000	
31	   H	-2.534	-0.516	-2.311	 H	1	UNK0	0.000	
32	   H	-3.676	0.076	-1.057	 H	1	UNK0	0.000	
33	   H	-1.991	-2.407	2.523	 H	1	UNK0	0.000	
34	   H	-1.378	-0.667	2.505	 H	1	UNK0	0.000	
35	   H	-0.524	-2.335	4.311	 H	1	UNK0	0.000	
36	   H	0.707	-1.342	3.341	 H	1	UNK0	0.000	
37	   H	1.607	-3.252	2.523	 H	1	UNK0	0.000	
38	   H	0.303	-4.278	3.217	 H	1	UNK0	0.000	
39	   H	-0.999	-4.056	1.265	 H	1	UNK0	0.000	
40	   H	0.627	-3.745	0.511	 H	1	UNK0	0.000	
41	   H	4.510	5.787	-3.690	 H	1	UNK0	0.000	
@<TRIPOS>BOND
1 1 2 1
2 2 3 2
3 2 23 1
4 3 4 1
5 4 5 1
6 4 8 1
7 5 6 2
8 5 22 1
9 6 7 1
10 7 8 2
11 7 9 1
12 9 10 2
13 9 11 1
14 11 12 1
15 12 13 1
16 12 16 1
17 13 14 1
18 13 17 1
19 14 15 1
20 15 16 1
21 17 18 1
22 17 21 1
23 18 19 1
24 19 20 1
25 20 21 1
26 22 23 2
27 3 24 1
28 8 25 1
29 11 26 1
30 12 27 1
31 13 28 1
32 14 29 1
33 14 30 1
34 16 31 1
35 16 32 1
36 18 33 1
37 18 34 1
38 19 35 1
39 19 36 1
40 20 37 1
41 20 38 1
42 21 39 1
43 21 40 1
44 23 41 1
@<TRIPOS>SUBSTRUCTURE
1	UNK0	1	GROUP	1 ****	UNK
