# created with PyMOL 2.3.2
@<TRIPOS>MOLECULE
2194
46 49 1                 
SMALL
USER_CHARGES
@<TRIPOS>ATOM
1	  Cl	-2.345	-8.013	-1.970	Cl	1	UNK0	0.000	
2	   C	-1.778	-6.380	-1.673	C.2	1	UNK0	0.000	
3	   C	-1.754	-5.828	-0.416	C.2	1	UNK0	0.000	
4	   N	-1.323	-4.577	-0.166	N.pl3	1	UNK0	0.000	
5	   C	-0.885	-3.796	-1.179	C.2	1	UNK0	0.000	
6	   N	-0.518	-2.613	-0.661	N.2	1	UNK0	0.000	
7	   C	-0.697	-2.579	0.671	C.2	1	UNK0	0.000	
8	   C	-1.216	-3.855	0.960	C.2	1	UNK0	0.000	
9	   C	-0.445	-1.531	1.633	C.2	1	UNK0	0.000	
10	   O	-0.709	-1.760	2.851	O.2	1	UNK0	0.000	
11	   N	0.074	-0.271	1.314	N.pl3	1	UNK0	0.000	
12	   C	0.292	0.741	2.368	C.3	1	UNK0	0.000	
13	   C	-0.408	2.019	2.073	C.3	1	UNK0	0.000	
14	   C	-0.854	2.268	0.691	C.3	1	UNK0	0.000	
15	   C	-0.511	1.316	-0.373	C.3	1	UNK0	0.000	
16	   C	0.457	0.228	0.016	C.3	1	UNK0	0.000	
17	   C	-0.482	3.689	0.339	C.2	1	UNK0	0.000	
18	   N	0.758	4.169	0.249	N.pl3	1	UNK0	0.000	
19	   C	0.647	5.483	-0.067	C.2	1	UNK0	0.000	
20	   C	-0.680	5.830	-0.177	C.2	1	UNK0	0.000	
21	   N	-1.354	4.702	0.079	N.2	1	UNK0	0.000	
22	   C	2.047	3.551	0.402	C.3	1	UNK0	0.000	
23	   C	2.599	3.079	-0.898	C.2	1	UNK0	0.000	
24	   O	2.021	3.254	-1.995	O.2	1	UNK0	0.000	
25	   N	3.849	2.383	-0.963	N.pl3	1	UNK0	0.000	
26	   C	-0.897	-4.325	-2.454	C.2	1	UNK0	0.000	
27	   C	-1.333	-5.598	-2.727	C.2	1	UNK0	0.000	
28	   H	-2.098	-6.429	0.410	 H	1	UNK0	0.000	
29	   H	-1.473	-4.157	1.957	 H	1	UNK0	0.000	
30	   H	1.390	0.874	2.429	 H	1	UNK0	0.000	
31	   H	-0.003	0.282	3.345	 H	1	UNK0	0.000	
32	   H	-1.302	2.032	2.773	 H	1	UNK0	0.000	
33	   H	0.198	2.879	2.492	 H	1	UNK0	0.000	
34	   H	-1.994	2.303	0.716	 H	1	UNK0	0.000	
35	   H	-1.418	0.741	-0.751	 H	1	UNK0	0.000	
36	   H	-0.130	1.787	-1.298	 H	1	UNK0	0.000	
37	   H	0.488	-0.594	-0.707	 H	1	UNK0	0.000	
38	   H	1.494	0.619	0.135	 H	1	UNK0	0.000	
39	   H	1.452	6.193	-0.220	 H	1	UNK0	0.000	
40	   H	-1.101	6.817	-0.421	 H	1	UNK0	0.000	
41	   H	2.109	2.720	1.093	 H	1	UNK0	0.000	
42	   H	2.816	4.298	0.771	 H	1	UNK0	0.000	
43	   H	4.601	2.670	-0.328	 H	1	UNK0	0.000	
44	   H	3.984	1.610	-1.636	 H	1	UNK0	0.000	
45	   H	-0.547	-3.700	-3.262	 H	1	UNK0	0.000	
46	   H	-1.357	-6.042	-3.709	 H	1	UNK0	0.000	
@<TRIPOS>BOND
1 1 2 1
2 2 3 2
3 2 27 1
4 3 4 1
5 4 5 1
6 4 8 1
7 5 6 2
8 5 26 1
9 6 7 1
10 7 8 2
11 7 9 1
12 9 10 2
13 9 11 1
14 11 12 1
15 11 16 1
16 12 13 1
17 13 14 1
18 14 15 1
19 14 17 1
20 15 16 1
21 17 18 1
22 17 21 2
23 18 19 1
24 18 22 1
25 19 20 2
26 20 21 1
27 22 23 1
28 23 24 2
29 23 25 1
30 26 27 2
31 3 28 1
32 8 29 1
33 12 30 1
34 12 31 1
35 13 32 1
36 13 33 1
37 14 34 1
38 15 35 1
39 15 36 1
40 16 37 1
41 16 38 1
42 19 39 1
43 20 40 1
44 22 41 1
45 22 42 1
46 25 43 1
47 25 44 1
48 26 45 1
49 27 46 1
@<TRIPOS>SUBSTRUCTURE
1	UNK0	1	GROUP	1 ****	UNK
