# created with PyMOL 2.3.2
@<TRIPOS>MOLECULE
2195
47 50 1                 
SMALL
USER_CHARGES
@<TRIPOS>ATOM
1	   S	-1.391	4.143	-3.006	S.O2	1	UNK0	0.000	
2	   O	-1.416	5.630	-3.067	O.2	1	UNK0	0.000	
3	   O	-2.609	3.620	-2.272	O.2	1	UNK0	0.000	
4	   N	-0.011	3.526	-2.240	N.3	1	UNK0	0.000	
5	   C	0.002	2.141	-2.092	C.3	1	UNK0	0.000	
6	   C	0.925	1.489	-1.161	C.3	1	UNK0	0.000	
7	   C	2.031	2.424	-0.745	C.3	1	UNK0	0.000	
8	   C	1.423	3.686	-0.247	C.3	1	UNK0	0.000	
9	   C	0.663	4.356	-1.355	C.3	1	UNK0	0.000	
10	   C	0.296	0.926	0.065	C.2	1	UNK0	0.000	
11	   N	0.491	-0.324	0.480	N.2	1	UNK0	0.000	
12	   C	-0.098	-0.804	1.589	C.2	1	UNK0	0.000	
13	   N	-0.073	-2.009	2.222	N.pl3	1	UNK0	0.000	
14	   N	-0.854	-1.892	3.275	N.2	1	UNK0	0.000	
15	   N	-1.379	-0.684	3.355	N.2	1	UNK0	0.000	
16	   C	-0.932	0.033	2.318	C.2	1	UNK0	0.000	
17	   C	-1.144	1.335	1.898	C.2	1	UNK0	0.000	
18	   N	-0.510	1.716	0.781	N.2	1	UNK0	0.000	
19	   O	-1.974	2.187	2.613	O.3	1	UNK0	0.000	
20	   C	0.661	-3.166	1.814	C.3	1	UNK0	0.000	
21	   C	-0.095	-4.059	0.903	C.2	1	UNK0	0.000	
22	   C	0.516	-5.201	0.450	C.2	1	UNK0	0.000	
23	   C	-0.122	-6.094	-0.408	C.2	1	UNK0	0.000	
24	   C	-1.410	-5.842	-0.829	C.2	1	UNK0	0.000	
25	   C	-2.030	-4.698	-0.378	C.2	1	UNK0	0.000	
26	   C	-1.382	-3.812	0.480	C.2	1	UNK0	0.000	
27	  Cl	2.152	-5.581	0.946	Cl	1	UNK0	0.000	
28	   C	-1.538	3.503	-4.681	C.3	1	UNK0	0.000	
29	   H	0.109	1.681	-3.121	 H	1	UNK0	0.000	
30	   H	-1.047	1.825	-1.797	 H	1	UNK0	0.000	
31	   H	1.460	0.643	-1.706	 H	1	UNK0	0.000	
32	   H	2.692	1.928	-0.004	 H	1	UNK0	0.000	
33	   H	2.670	2.686	-1.623	 H	1	UNK0	0.000	
34	   H	2.294	4.366	0.017	 H	1	UNK0	0.000	
35	   H	0.841	3.622	0.673	 H	1	UNK0	0.000	
36	   H	-0.004	5.119	-0.875	 H	1	UNK0	0.000	
37	   H	1.408	4.970	-1.939	 H	1	UNK0	0.000	
38	   H	-2.949	1.959	2.735	 H	1	UNK0	0.000	
39	   H	0.994	-3.799	2.668	 H	1	UNK0	0.000	
40	   H	1.557	-2.820	1.224	 H	1	UNK0	0.000	
41	   H	0.347	-6.997	-0.773	 H	1	UNK0	0.000	
42	   H	-1.920	-6.541	-1.506	 H	1	UNK0	0.000	
43	   H	-3.057	-4.497	-0.714	 H	1	UNK0	0.000	
44	   H	-1.885	-2.919	0.823	 H	1	UNK0	0.000	
45	   H	-0.753	3.917	-5.328	 H	1	UNK0	0.000	
46	   H	-1.495	2.399	-4.589	 H	1	UNK0	0.000	
47	   H	-2.512	3.875	-5.058	 H	1	UNK0	0.000	
@<TRIPOS>BOND
1 1 2 2
2 1 3 2
3 1 4 1
4 1 28 1
5 4 5 1
6 4 9 1
7 5 6 1
8 6 7 1
9 6 10 1
10 7 8 1
11 8 9 1
12 10 11 2
13 10 18 1
14 11 12 1
15 12 13 1
16 12 16 2
17 13 14 1
18 13 20 1
19 14 15 2
20 15 16 1
21 16 17 1
22 17 18 2
23 17 19 1
24 20 21 1
25 21 22 2
26 21 26 1
27 22 23 1
28 22 27 1
29 23 24 2
30 24 25 1
31 25 26 2
32 5 29 1
33 5 30 1
34 6 31 1
35 7 32 1
36 7 33 1
37 8 34 1
38 8 35 1
39 9 36 1
40 9 37 1
41 19 38 1
42 20 39 1
43 20 40 1
44 23 41 1
45 24 42 1
46 25 43 1
47 26 44 1
48 28 45 1
49 28 46 1
50 28 47 1
@<TRIPOS>SUBSTRUCTURE
1	UNK0	1	GROUP	1 ****	UNK
