# created with PyMOL 2.3.2
@<TRIPOS>MOLECULE
2196
47 50 1                 
SMALL
USER_CHARGES
@<TRIPOS>ATOM
1	   S	-0.619	3.986	-0.867	S.O2	1	UNK0	0.000	
2	   O	0.022	5.075	-0.057	O.2	1	UNK0	0.000	
3	   O	-1.498	4.622	-1.913	O.2	1	UNK0	0.000	
4	   N	-1.506	2.958	0.187	N.3	1	UNK0	0.000	
5	   C	-2.131	1.880	-0.431	C.3	1	UNK0	0.000	
6	   C	-2.609	0.741	0.389	C.3	1	UNK0	0.000	
7	   C	-2.075	0.700	1.796	C.3	1	UNK0	0.000	
8	   C	-0.744	1.363	1.894	C.3	1	UNK0	0.000	
9	   C	-0.920	2.796	1.461	C.3	1	UNK0	0.000	
10	   C	-2.291	-0.573	-0.229	C.2	1	UNK0	0.000	
11	   N	-1.004	-0.934	-0.488	N.2	1	UNK0	0.000	
12	   C	-0.786	-2.135	-1.047	C.2	1	UNK0	0.000	
13	   N	0.346	-2.764	-1.416	N.pl3	1	UNK0	0.000	
14	   N	-0.025	-3.927	-1.914	N.2	1	UNK0	0.000	
15	   N	-1.334	-4.074	-1.883	N.2	1	UNK0	0.000	
16	   C	-1.855	-2.968	-1.344	C.2	1	UNK0	0.000	
17	   C	-3.157	-2.595	-1.078	C.2	1	UNK0	0.000	
18	   N	-3.319	-1.389	-0.521	N.2	1	UNK0	0.000	
19	   O	-4.260	-3.385	-1.353	O.3	1	UNK0	0.000	
20	   C	1.714	-2.271	-1.295	C.3	1	UNK0	0.000	
21	   C	2.316	-2.664	0.019	C.2	1	UNK0	0.000	
22	   C	3.006	-3.848	0.169	C.2	1	UNK0	0.000	
23	   C	3.574	-4.239	1.369	C.2	1	UNK0	0.000	
24	   C	3.422	-3.378	2.441	C.2	1	UNK0	0.000	
25	   C	2.741	-2.184	2.337	C.2	1	UNK0	0.000	
26	   C	2.197	-1.846	1.120	C.2	1	UNK0	0.000	
27	  Cl	4.448	-5.758	1.529	Cl	1	UNK0	0.000	
28	   C	0.672	3.032	-1.616	C.3	1	UNK0	0.000	
29	   H	-1.430	1.453	-1.211	 H	1	UNK0	0.000	
30	   H	-2.993	2.267	-1.055	 H	1	UNK0	0.000	
31	   H	-3.710	0.798	0.494	 H	1	UNK0	0.000	
32	   H	-1.970	-0.349	2.137	 H	1	UNK0	0.000	
33	   H	-2.775	1.184	2.508	 H	1	UNK0	0.000	
34	   H	-0.467	1.384	2.988	 H	1	UNK0	0.000	
35	   H	0.067	0.848	1.383	 H	1	UNK0	0.000	
36	   H	-1.468	3.316	2.278	 H	1	UNK0	0.000	
37	   H	0.101	3.250	1.448	 H	1	UNK0	0.000	
38	   H	-4.752	-3.838	-0.597	 H	1	UNK0	0.000	
39	   H	1.780	-1.197	-1.487	 H	1	UNK0	0.000	
40	   H	2.304	-2.791	-2.078	 H	1	UNK0	0.000	
41	   H	3.101	-4.499	-0.708	 H	1	UNK0	0.000	
42	   H	3.862	-3.665	3.398	 H	1	UNK0	0.000	
43	   H	2.638	-1.519	3.212	 H	1	UNK0	0.000	
44	   H	1.659	-0.911	1.025	 H	1	UNK0	0.000	
45	   H	0.270	2.546	-2.515	 H	1	UNK0	0.000	
46	   H	0.981	2.257	-0.859	 H	1	UNK0	0.000	
47	   H	1.583	3.629	-1.808	 H	1	UNK0	0.000	
@<TRIPOS>BOND
1 1 2 2
2 1 3 2
3 1 4 1
4 1 28 1
5 4 5 1
6 4 9 1
7 5 6 1
8 6 7 1
9 6 10 1
10 7 8 1
11 8 9 1
12 10 11 2
13 10 18 1
14 11 12 1
15 12 13 1
16 12 16 2
17 13 14 1
18 13 20 1
19 14 15 2
20 15 16 1
21 16 17 1
22 17 18 2
23 17 19 1
24 20 21 1
25 21 22 2
26 21 26 1
27 22 23 1
28 23 24 2
29 23 27 1
30 24 25 1
31 25 26 2
32 5 29 1
33 5 30 1
34 6 31 1
35 7 32 1
36 7 33 1
37 8 34 1
38 8 35 1
39 9 36 1
40 9 37 1
41 19 38 1
42 20 39 1
43 20 40 1
44 22 41 1
45 24 42 1
46 25 43 1
47 26 44 1
48 28 45 1
49 28 46 1
50 28 47 1
@<TRIPOS>SUBSTRUCTURE
1	UNK0	1	GROUP	1 ****	UNK
