# created with PyMOL 2.3.2
@<TRIPOS>MOLECULE
2198
48 51 1                 
SMALL
USER_CHARGES
@<TRIPOS>ATOM
1	  Cl	6.259	-1.191	0.608	Cl	1	UNK0	0.000	
2	   C	5.119	0.014	0.034	C.2	1	UNK0	0.000	
3	   C	4.171	0.571	0.867	C.2	1	UNK0	0.000	
4	   C	3.294	1.510	0.393	C.2	1	UNK0	0.000	
5	   C	3.354	1.905	-0.927	C.2	1	UNK0	0.000	
6	   C	4.310	1.350	-1.786	C.2	1	UNK0	0.000	
7	   C	5.192	0.402	-1.298	C.2	1	UNK0	0.000	
8	   O	2.539	2.847	-1.577	O.3	1	UNK0	0.000	
9	   C	1.361	3.427	-0.994	C.3	1	UNK0	0.000	
10	   C	0.550	2.250	-0.449	C.3	1	UNK0	0.000	
11	   N	0.954	1.878	0.888	N.pl3	1	UNK0	0.000	
12	   C	2.326	2.026	1.399	C.3	1	UNK0	0.000	
13	   C	-0.000	1.334	1.788	C.2	1	UNK0	0.000	
14	   O	0.387	1.027	2.946	O.2	1	UNK0	0.000	
15	   C	-1.391	1.153	1.332	C.3	1	UNK0	0.000	
16	   N	-2.243	0.605	2.379	N.3	1	UNK0	0.000	
17	   C	-3.315	-0.092	1.647	C.3	1	UNK0	0.000	
18	   C	-2.474	-0.880	0.663	C.3	1	UNK0	0.000	
19	   C	-1.456	0.115	0.242	C.3	1	UNK0	0.000	
20	   C	-1.905	-2.059	1.413	C.3	1	UNK0	0.000	
21	   C	-0.818	-2.751	0.600	C.3	1	UNK0	0.000	
22	   N	-1.169	-2.589	-0.790	N.3	1	UNK0	0.000	
23	   C	-2.588	-2.663	-1.022	C.3	1	UNK0	0.000	
24	   C	-3.285	-1.405	-0.495	C.3	1	UNK0	0.000	
25	   H	4.118	0.273	1.885	 H	1	UNK0	0.000	
26	   H	4.342	1.669	-2.810	 H	1	UNK0	0.000	
27	   H	5.942	-0.044	-1.940	 H	1	UNK0	0.000	
28	   H	0.817	3.947	-1.782	 H	1	UNK0	0.000	
29	   H	1.639	4.091	-0.152	 H	1	UNK0	0.000	
30	   H	0.703	1.406	-1.151	 H	1	UNK0	0.000	
31	   H	-0.526	2.572	-0.448	 H	1	UNK0	0.000	
32	   H	2.486	3.108	1.535	 H	1	UNK0	0.000	
33	   H	2.438	1.510	2.371	 H	1	UNK0	0.000	
34	   H	-1.847	2.106	1.027	 H	1	UNK0	0.000	
35	   H	-2.634	1.335	3.001	 H	1	UNK0	0.000	
36	   H	-3.876	-0.721	2.337	 H	1	UNK0	0.000	
37	   H	-3.946	0.669	1.139	 H	1	UNK0	0.000	
38	   H	-1.811	0.573	-0.711	 H	1	UNK0	0.000	
39	   H	-0.445	-0.295	0.076	 H	1	UNK0	0.000	
40	   H	-2.730	-2.791	1.532	 H	1	UNK0	0.000	
41	   H	-1.562	-1.798	2.432	 H	1	UNK0	0.000	
42	   H	-0.667	-3.785	0.908	 H	1	UNK0	0.000	
43	   H	0.117	-2.175	0.801	 H	1	UNK0	0.000	
44	   H	-0.596	-3.143	-1.434	 H	1	UNK0	0.000	
45	   H	-3.065	-3.560	-0.578	 H	1	UNK0	0.000	
46	   H	-2.740	-2.737	-2.126	 H	1	UNK0	0.000	
47	   H	-3.320	-0.651	-1.292	 H	1	UNK0	0.000	
48	   H	-4.313	-1.683	-0.184	 H	1	UNK0	0.000	
@<TRIPOS>BOND
1 1 2 1
2 2 3 2
3 2 7 1
4 3 4 1
5 4 5 2
6 4 12 1
7 5 6 1
8 5 8 1
9 6 7 2
10 8 9 1
11 9 10 1
12 10 11 1
13 11 12 1
14 11 13 1
15 13 14 2
16 13 15 1
17 15 16 1
18 15 19 1
19 16 17 1
20 17 18 1
21 18 19 1
22 18 20 1
23 18 24 1
24 20 21 1
25 21 22 1
26 22 23 1
27 23 24 1
28 3 25 1
29 6 26 1
30 7 27 1
31 9 28 1
32 9 29 1
33 10 30 1
34 10 31 1
35 12 32 1
36 12 33 1
37 15 34 1
38 16 35 1
39 17 36 1
40 17 37 1
41 19 38 1
42 19 39 1
43 20 40 1
44 20 41 1
45 21 42 1
46 21 43 1
47 22 44 1
48 23 45 1
49 23 46 1
50 24 47 1
51 24 48 1
@<TRIPOS>SUBSTRUCTURE
1	UNK0	1	GROUP	1 ****	UNK
