# created with PyMOL 2.3.2
@<TRIPOS>MOLECULE
2199
38 41 1                 
SMALL
USER_CHARGES
@<TRIPOS>ATOM
1	  Cl	-5.006	3.785	-1.712	Cl	1	UNK0	0.000	
2	   C	-3.505	2.880	-1.752	C.2	1	UNK0	0.000	
3	   C	-3.237	2.169	-2.900	C.2	1	UNK0	0.000	
4	   N	-2.092	1.479	-2.928	N.2	1	UNK0	0.000	
5	   C	-1.211	1.449	-1.906	C.2	1	UNK0	0.000	
6	   C	-1.424	2.135	-0.743	C.2	1	UNK0	0.000	
7	   C	-2.625	2.862	-0.707	C.2	1	UNK0	0.000	
8	   C	-0.536	2.174	0.398	C.2	1	UNK0	0.000	
9	   O	-1.040	2.889	1.403	O.2	1	UNK0	0.000	
10	   N	0.715	1.628	0.660	N.pl3	1	UNK0	0.000	
11	   C	1.653	0.844	-0.071	C.3	1	UNK0	0.000	
12	   C	1.761	-0.550	0.568	C.3	1	UNK0	0.000	
13	   N	0.923	-0.558	1.759	N.pl3	1	UNK0	0.000	
14	   C	1.117	0.485	2.726	C.3	1	UNK0	0.000	
15	   C	1.251	1.851	2.074	C.3	1	UNK0	0.000	
16	   C	-0.075	-1.521	1.898	C.2	1	UNK0	0.000	
17	   C	-0.944	-1.829	0.831	C.2	1	UNK0	0.000	
18	   C	-1.934	-2.751	0.924	C.2	1	UNK0	0.000	
19	   N	-2.109	-3.411	2.076	N.2	1	UNK0	0.000	
20	   C	-1.286	-3.136	3.122	C.2	1	UNK0	0.000	
21	   N	-0.304	-2.228	3.043	N.pl3	1	UNK0	0.000	
22	   C	0.329	-2.200	4.230	C.2	1	UNK0	0.000	
23	   N	-0.255	-3.076	5.028	N.2	1	UNK0	0.000	
24	   N	-1.238	-3.654	4.369	N.2	1	UNK0	0.000	
25	   H	-3.887	2.139	-3.761	 H	1	UNK0	0.000	
26	   H	-0.315	0.851	-2.013	 H	1	UNK0	0.000	
27	   H	-2.859	3.433	0.187	 H	1	UNK0	0.000	
28	   H	1.471	0.736	-1.112	 H	1	UNK0	0.000	
29	   H	2.655	1.352	0.079	 H	1	UNK0	0.000	
30	   H	1.344	-1.273	-0.142	 H	1	UNK0	0.000	
31	   H	2.815	-0.721	0.798	 H	1	UNK0	0.000	
32	   H	0.206	0.503	3.396	 H	1	UNK0	0.000	
33	   H	1.982	0.382	3.378	 H	1	UNK0	0.000	
34	   H	2.296	2.115	1.947	 H	1	UNK0	0.000	
35	   H	0.619	2.546	2.606	 H	1	UNK0	0.000	
36	   H	-0.762	-1.263	-0.083	 H	1	UNK0	0.000	
37	   H	-2.567	-2.931	0.049	 H	1	UNK0	0.000	
38	   H	1.175	-1.542	4.429	 H	1	UNK0	0.000	
@<TRIPOS>BOND
1 1 2 1
2 2 3 2
3 2 7 1
4 3 4 1
5 4 5 2
6 5 6 1
7 6 7 2
8 6 8 1
9 8 9 2
10 8 10 1
11 10 11 1
12 10 15 1
13 11 12 1
14 12 13 1
15 13 14 1
16 13 16 1
17 14 15 1
18 16 17 2
19 16 21 1
20 17 18 1
21 18 19 2
22 19 20 1
23 20 21 1
24 20 24 2
25 21 22 1
26 22 23 2
27 23 24 1
28 3 25 1
29 5 26 1
30 7 27 1
31 11 28 1
32 11 29 1
33 12 30 1
34 12 31 1
35 14 32 1
36 14 33 1
37 15 34 1
38 15 35 1
39 17 36 1
40 18 37 1
41 22 38 1
@<TRIPOS>SUBSTRUCTURE
1	UNK0	1	GROUP	1 ****	UNK
