# created with PyMOL 2.3.2
@<TRIPOS>MOLECULE
2200
44 47 1                 
SMALL
USER_CHARGES
@<TRIPOS>ATOM
1	  Cl	-2.972	3.966	4.033	Cl	1	UNK0	0.000	
2	   C	-1.849	3.381	2.841	C.2	1	UNK0	0.000	
3	   C	-2.140	2.902	1.587	C.2	1	UNK0	0.000	
4	   N	-1.001	2.545	0.958	N.pl3	1	UNK0	0.000	
5	   N	-0.023	2.800	1.813	N.2	1	UNK0	0.000	
6	   C	-0.484	3.309	2.969	C.2	1	UNK0	0.000	
7	   C	-0.906	1.994	-0.377	C.3	1	UNK0	0.000	
8	   C	0.334	2.390	-1.115	C.3	1	UNK0	0.000	
9	   O	1.035	1.294	-1.656	O.3	1	UNK0	0.000	
10	   C	0.077	0.725	-2.491	C.3	1	UNK0	0.000	
11	   C	-0.793	-0.144	-1.617	C.3	1	UNK0	0.000	
12	   C	-1.025	0.466	-0.271	C.3	1	UNK0	0.000	
13	   O	-2.374	0.267	0.131	O.3	1	UNK0	0.000	
14	   N	-0.568	-1.493	-1.602	N.3	1	UNK0	0.000	
15	   C	0.584	-2.165	-1.253	C.3	1	UNK0	0.000	
16	   C	1.085	-2.186	0.143	C.3	1	UNK0	0.000	
17	   C	2.380	-3.041	0.195	C.3	1	UNK0	0.000	
18	   C	2.525	-3.334	1.682	C.3	1	UNK0	0.000	
19	   C	1.161	-3.140	2.293	C.3	1	UNK0	0.000	
20	   C	0.239	-2.989	1.100	C.3	1	UNK0	0.000	
21	   C	-0.637	1.948	-2.998	C.3	1	UNK0	0.000	
22	   O	-0.075	3.038	-2.297	O.3	1	UNK0	0.000	
23	   H	-3.116	2.816	1.151	 H	1	UNK0	0.000	
24	   H	0.059	3.616	3.855	 H	1	UNK0	0.000	
25	   H	-1.841	2.311	-0.917	 H	1	UNK0	0.000	
26	   H	1.048	2.995	-0.545	 H	1	UNK0	0.000	
27	   H	0.483	0.198	-3.349	 H	1	UNK0	0.000	
28	   H	-1.837	-0.006	-2.133	 H	1	UNK0	0.000	
29	   H	-0.428	0.114	0.554	 H	1	UNK0	0.000	
30	   H	-2.453	-0.115	1.017	 H	1	UNK0	0.000	
31	   H	-1.449	-2.082	-1.619	 H	1	UNK0	0.000	
32	   H	1.484	-1.960	-1.898	 H	1	UNK0	0.000	
33	   H	0.401	-3.268	-1.501	 H	1	UNK0	0.000	
34	   H	1.412	-1.225	0.570	 H	1	UNK0	0.000	
35	   H	3.232	-2.473	-0.216	 H	1	UNK0	0.000	
36	   H	2.235	-3.987	-0.361	 H	1	UNK0	0.000	
37	   H	2.856	-4.377	1.820	 H	1	UNK0	0.000	
38	   H	3.254	-2.602	2.116	 H	1	UNK0	0.000	
39	   H	1.161	-2.163	2.815	 H	1	UNK0	0.000	
40	   H	0.866	-3.990	2.944	 H	1	UNK0	0.000	
41	   H	-0.719	-2.523	1.360	 H	1	UNK0	0.000	
42	   H	0.126	-4.014	0.683	 H	1	UNK0	0.000	
43	   H	-1.721	1.912	-2.937	 H	1	UNK0	0.000	
44	   H	-0.383	2.162	-4.076	 H	1	UNK0	0.000	
@<TRIPOS>BOND
1 1 2 1
2 2 3 2
3 2 6 1
4 3 4 1
5 4 5 1
6 4 7 1
7 5 6 2
8 7 8 1
9 7 12 1
10 8 9 1
11 8 22 1
12 9 10 1
13 10 11 1
14 10 21 1
15 11 12 1
16 11 14 1
17 12 13 1
18 14 15 1
19 15 16 1
20 16 17 1
21 16 20 1
22 17 18 1
23 18 19 1
24 19 20 1
25 21 22 1
26 3 23 1
27 6 24 1
28 7 25 1
29 8 26 1
30 10 27 1
31 11 28 1
32 12 29 1
33 13 30 1
34 14 31 1
35 15 32 1
36 15 33 1
37 16 34 1
38 17 35 1
39 17 36 1
40 18 37 1
41 18 38 1
42 19 39 1
43 19 40 1
44 20 41 1
45 20 42 1
46 21 43 1
47 21 44 1
@<TRIPOS>SUBSTRUCTURE
1	UNK0	1	GROUP	1 ****	UNK
