# created with PyMOL 2.3.2
@<TRIPOS>MOLECULE
2201
47 50 1                 
SMALL
USER_CHARGES
@<TRIPOS>ATOM
1	  Cl	4.328	-4.716	4.953	Cl	1	UNK0	0.000	
2	   C	3.503	-3.305	4.291	C.2	1	UNK0	0.000	
3	   C	2.590	-3.337	3.240	C.2	1	UNK0	0.000	
4	   N	2.193	-2.073	3.042	N.pl3	1	UNK0	0.000	
5	   N	2.803	-1.281	3.897	N.2	1	UNK0	0.000	
6	   C	3.615	-1.997	4.680	C.2	1	UNK0	0.000	
7	   C	1.238	-1.639	2.059	C.3	1	UNK0	0.000	
8	   C	-0.135	-1.655	2.738	C.3	1	UNK0	0.000	
9	   O	-0.271	-0.357	3.285	O.3	1	UNK0	0.000	
10	   C	-0.798	0.297	2.167	C.3	1	UNK0	0.000	
11	   C	0.183	0.228	0.971	C.3	1	UNK0	0.000	
12	   C	1.494	-0.196	1.597	C.3	1	UNK0	0.000	
13	   O	2.585	-0.123	0.789	O.3	1	UNK0	0.000	
14	   N	0.141	1.466	0.349	N.3	1	UNK0	0.000	
15	   C	0.747	1.789	-0.851	C.3	1	UNK0	0.000	
16	   C	0.207	1.181	-2.122	C.3	1	UNK0	0.000	
17	   C	-1.232	1.560	-2.277	C.3	1	UNK0	0.000	
18	   C	-1.994	0.812	-3.309	C.3	1	UNK0	0.000	
19	   C	-1.292	-0.373	-3.900	C.3	1	UNK0	0.000	
20	   C	-0.660	-1.113	-2.707	C.3	1	UNK0	0.000	
21	   C	0.557	-0.244	-2.354	C.3	1	UNK0	0.000	
22	   C	-1.965	-0.674	1.908	C.3	1	UNK0	0.000	
23	   O	-1.178	-1.858	1.874	O.3	1	UNK0	0.000	
24	   H	2.283	-4.242	2.707	 H	1	UNK0	0.000	
25	   H	4.230	-1.609	5.465	 H	1	UNK0	0.000	
26	   H	1.256	-2.261	1.151	 H	1	UNK0	0.000	
27	   H	-0.152	-2.445	3.501	 H	1	UNK0	0.000	
28	   H	-1.124	1.314	2.370	 H	1	UNK0	0.000	
29	   H	-0.168	-0.627	0.369	 H	1	UNK0	0.000	
30	   H	1.601	0.444	2.520	 H	1	UNK0	0.000	
31	   H	3.059	0.743	0.997	 H	1	UNK0	0.000	
32	   H	-0.072	2.237	1.004	 H	1	UNK0	0.000	
33	   H	0.652	2.906	-1.006	 H	1	UNK0	0.000	
34	   H	1.853	1.635	-0.912	 H	1	UNK0	0.000	
35	   H	0.735	1.744	-2.969	 H	1	UNK0	0.000	
36	   H	-1.249	2.646	-2.609	 H	1	UNK0	0.000	
37	   H	-1.770	1.602	-1.300	 H	1	UNK0	0.000	
38	   H	-2.918	0.392	-2.801	 H	1	UNK0	0.000	
39	   H	-2.400	1.465	-4.135	 H	1	UNK0	0.000	
40	   H	-1.982	-1.032	-4.430	 H	1	UNK0	0.000	
41	   H	-0.474	-0.046	-4.543	 H	1	UNK0	0.000	
42	   H	-0.287	-2.095	-3.013	 H	1	UNK0	0.000	
43	   H	-1.416	-1.119	-1.912	 H	1	UNK0	0.000	
44	   H	1.226	-0.387	-3.268	 H	1	UNK0	0.000	
45	   H	1.171	-0.715	-1.553	 H	1	UNK0	0.000	
46	   H	-2.453	-0.465	0.957	 H	1	UNK0	0.000	
47	   H	-2.598	-0.636	2.794	 H	1	UNK0	0.000	
@<TRIPOS>BOND
1 1 2 1
2 2 3 2
3 2 6 1
4 3 4 1
5 4 5 1
6 4 7 1
7 5 6 2
8 7 8 1
9 7 12 1
10 8 9 1
11 8 23 1
12 9 10 1
13 10 11 1
14 10 22 1
15 11 12 1
16 11 14 1
17 12 13 1
18 14 15 1
19 15 16 1
20 16 17 1
21 16 21 1
22 17 18 1
23 18 19 1
24 19 20 1
25 20 21 1
26 22 23 1
27 3 24 1
28 6 25 1
29 7 26 1
30 8 27 1
31 10 28 1
32 11 29 1
33 12 30 1
34 13 31 1
35 14 32 1
36 15 33 1
37 15 34 1
38 16 35 1
39 17 36 1
40 17 37 1
41 18 38 1
42 18 39 1
43 19 40 1
44 19 41 1
45 20 42 1
46 20 43 1
47 21 44 1
48 21 45 1
49 22 46 1
50 22 47 1
@<TRIPOS>SUBSTRUCTURE
1	UNK0	1	GROUP	1 ****	UNK
