# created with PyMOL 2.3.2
@<TRIPOS>MOLECULE
2206
50 53 1                 
SMALL
USER_CHARGES
@<TRIPOS>ATOM
1	  Cl	5.954	-0.434	-3.709	Cl	1	UNK0	0.000	
2	   C	4.313	-0.243	-3.108	C.2	1	UNK0	0.000	
3	   C	3.230	-0.009	-3.958	C.2	1	UNK0	0.000	
4	   C	1.971	0.127	-3.435	C.2	1	UNK0	0.000	
5	   C	1.699	0.043	-2.058	C.2	1	UNK0	0.000	
6	   C	2.788	-0.187	-1.260	C.2	1	UNK0	0.000	
7	   C	4.074	-0.329	-1.760	C.2	1	UNK0	0.000	
8	   C	0.311	0.186	-1.537	C.3	1	UNK0	0.000	
9	   N	0.183	1.220	-0.575	N.4	1	UNK0	0.000	
10	   C	0.653	0.618	0.670	C.2	1	UNK0	0.000	
11	   C	1.155	0.922	1.840	C.2	1	UNK0	0.000	
12	   C	1.390	-0.336	2.622	C.3	1	UNK0	0.000	
13	   C	0.920	-1.469	1.747	C.3	1	UNK0	0.000	
14	   N	0.504	-0.769	0.547	N.pl3	1	UNK0	0.000	
15	   C	-0.032	-1.042	-0.785	C.3	1	UNK0	0.000	
16	   C	0.525	-2.328	-1.329	C.3	1	UNK0	0.000	
17	   C	0.071	-2.639	-2.722	C.3	1	UNK0	0.000	
18	   C	-1.036	1.770	-0.280	C.2	1	UNK0	0.000	
19	   C	-1.063	2.820	0.651	C.2	1	UNK0	0.000	
20	   C	-2.250	3.416	1.018	C.2	1	UNK0	0.000	
21	   C	-3.463	3.004	0.483	C.2	1	UNK0	0.000	
22	   C	-3.442	1.975	-0.431	C.2	1	UNK0	0.000	
23	   C	-2.226	1.387	-0.788	C.2	1	UNK0	0.000	
24	   O	-4.655	3.618	0.866	O.3	1	UNK0	0.000	
25	   C	-5.885	3.221	0.346	C.3	1	UNK0	0.000	
26	   O	-0.465	0.410	-2.685	O.3	1	UNK0	0.000	
27	   H	3.464	0.052	-5.012	 H	1	UNK0	0.000	
28	   H	1.156	0.308	-4.127	 H	1	UNK0	0.000	
29	   H	2.682	-0.276	-0.212	 H	1	UNK0	0.000	
30	   H	4.888	-0.505	-1.081	 H	1	UNK0	0.000	
31	   H	0.852	1.993	-0.841	 H	1	UNK0	0.000	
32	   H	1.393	1.882	2.259	 H	1	UNK0	0.000	
33	   H	0.852	-0.262	3.583	 H	1	UNK0	0.000	
34	   H	2.496	-0.476	2.797	 H	1	UNK0	0.000	
35	   H	1.726	-2.163	1.436	 H	1	UNK0	0.000	
36	   H	0.107	-2.062	2.172	 H	1	UNK0	0.000	
37	   H	-1.110	-1.235	-0.615	 H	1	UNK0	0.000	
38	   H	1.607	-2.428	-1.239	 H	1	UNK0	0.000	
39	   H	0.091	-3.135	-0.660	 H	1	UNK0	0.000	
40	   H	-0.342	-3.676	-2.806	 H	1	UNK0	0.000	
41	   H	0.921	-2.621	-3.447	 H	1	UNK0	0.000	
42	   H	-0.672	-1.879	-3.021	 H	1	UNK0	0.000	
43	   H	-0.179	3.212	1.117	 H	1	UNK0	0.000	
44	   H	-2.305	4.225	1.732	 H	1	UNK0	0.000	
45	   H	-4.373	1.647	-0.855	 H	1	UNK0	0.000	
46	   H	-2.292	0.599	-1.494	 H	1	UNK0	0.000	
47	   H	-6.106	3.636	-0.665	 H	1	UNK0	0.000	
48	   H	-6.020	2.123	0.280	 H	1	UNK0	0.000	
49	   H	-6.717	3.606	1.005	 H	1	UNK0	0.000	
50	   H	-0.194	1.333	-2.996	 H	1	UNK0	0.000	
@<TRIPOS>BOND
1 1 2 1
2 2 3 2
3 2 7 1
4 3 4 1
5 4 5 2
6 5 6 1
7 5 8 1
8 6 7 2
9 8 9 1
10 8 15 1
11 8 26 1
12 9 10 1
13 9 18 1
14 10 11 2
15 10 14 1
16 11 12 1
17 12 13 1
18 13 14 1
19 14 15 1
20 15 16 1
21 16 17 1
22 18 19 2
23 18 23 1
24 19 20 1
25 20 21 2
26 21 22 1
27 21 24 1
28 22 23 2
29 24 25 1
30 3 27 1
31 4 28 1
32 6 29 1
33 7 30 1
34 9 31 1
35 11 32 1
36 12 33 1
37 12 34 1
38 13 35 1
39 13 36 1
40 15 37 1
41 16 38 1
42 16 39 1
43 17 40 1
44 17 41 1
45 17 42 1
46 19 43 1
47 20 44 1
48 22 45 1
49 23 46 1
50 25 47 1
51 25 48 1
52 25 49 1
53 26 50 1
@<TRIPOS>SUBSTRUCTURE
1	UNK0	1	GROUP	1 ****	UNK
