# created with PyMOL 2.3.2
@<TRIPOS>MOLECULE
2207
64 67 1                 
SMALL
USER_CHARGES
@<TRIPOS>ATOM
1	  Cl	3.198	-4.233	2.914	Cl	1	UNK0	0.000	
2	   C	2.953	-2.798	1.949	C.2	1	UNK0	0.000	
3	   C	2.154	-2.899	0.837	C.2	1	UNK0	0.000	
4	   C	1.913	-1.806	0.023	C.2	1	UNK0	0.000	
5	   C	2.480	-0.581	0.322	C.2	1	UNK0	0.000	
6	   C	3.277	-0.490	1.437	C.2	1	UNK0	0.000	
7	   C	3.513	-1.587	2.244	C.2	1	UNK0	0.000	
8	   N	2.097	0.295	-0.625	N.pl3	1	UNK0	0.000	
9	   C	1.314	-0.382	-1.481	C.2	1	UNK0	0.000	
10	   O	0.774	0.121	-2.495	O.2	1	UNK0	0.000	
11	   N	1.181	-1.677	-1.107	N.pl3	1	UNK0	0.000	
12	   C	0.389	-2.670	-1.781	C.3	1	UNK0	0.000	
13	   C	-1.061	-2.622	-1.393	C.3	1	UNK0	0.000	
14	   O	-1.689	-3.635	-2.117	O.3	1	UNK0	0.000	
15	   C	-2.913	-3.991	-1.624	C.3	1	UNK0	0.000	
16	   C	-3.524	-2.941	-0.747	C.3	1	UNK0	0.000	
17	   C	-2.681	-2.824	0.503	C.3	1	UNK0	0.000	
18	   C	-1.228	-2.740	0.072	C.3	1	UNK0	0.000	
19	   O	-0.754	-1.541	0.646	O.3	1	UNK0	0.000	
20	   O	-2.928	-3.956	1.268	O.3	1	UNK0	0.000	
21	   C	-3.541	-3.665	2.478	C.3	1	UNK0	0.000	
22	   O	-3.723	-1.727	-1.382	O.3	1	UNK0	0.000	
23	   O	-2.859	-5.183	-0.936	O.3	1	UNK0	0.000	
24	   C	2.481	1.691	-0.672	C.3	1	UNK0	0.000	
25	   C	1.496	2.558	0.079	C.3	1	UNK0	0.000	
26	   O	1.388	2.225	1.404	O.3	1	UNK0	0.000	
27	   C	0.923	3.259	2.200	C.3	1	UNK0	0.000	
28	   C	-0.066	4.142	1.472	C.3	1	UNK0	0.000	
29	   C	0.535	4.785	0.245	C.3	1	UNK0	0.000	
30	   C	1.817	4.027	-0.069	C.3	1	UNK0	0.000	
31	   O	2.231	4.239	-1.379	O.3	1	UNK0	0.000	
32	   O	0.785	6.141	0.436	O.3	1	UNK0	0.000	
33	   C	0.103	6.852	-0.539	C.3	1	UNK0	0.000	
34	   O	-1.214	3.411	1.106	O.3	1	UNK0	0.000	
35	   O	0.215	2.672	3.265	O.3	1	UNK0	0.000	
36	   H	1.697	-3.851	0.562	 H	1	UNK0	0.000	
37	   H	3.731	0.475	1.683	 H	1	UNK0	0.000	
38	   H	4.137	-1.492	3.108	 H	1	UNK0	0.000	
39	   H	0.483	-2.427	-2.882	 H	1	UNK0	0.000	
40	   H	0.829	-3.678	-1.587	 H	1	UNK0	0.000	
41	   H	-1.424	-1.614	-1.775	 H	1	UNK0	0.000	
42	   H	-3.604	-4.143	-2.488	 H	1	UNK0	0.000	
43	   H	-4.522	-3.295	-0.417	 H	1	UNK0	0.000	
44	   H	-3.035	-1.926	1.040	 H	1	UNK0	0.000	
45	   H	-0.628	-3.555	0.467	 H	1	UNK0	0.000	
46	   H	-1.152	-0.788	0.125	 H	1	UNK0	0.000	
47	   H	-4.512	-3.168	2.371	 H	1	UNK0	0.000	
48	   H	-2.870	-3.105	3.173	 H	1	UNK0	0.000	
49	   H	-3.734	-4.646	2.976	 H	1	UNK0	0.000	
50	   H	-4.575	-1.302	-1.159	 H	1	UNK0	0.000	
51	   H	-3.801	-5.488	-0.750	 H	1	UNK0	0.000	
52	   H	2.611	2.053	-1.711	 H	1	UNK0	0.000	
53	   H	3.476	1.844	-0.168	 H	1	UNK0	0.000	
54	   H	0.497	2.391	-0.390	 H	1	UNK0	0.000	
55	   H	1.712	3.896	2.604	 H	1	UNK0	0.000	
56	   H	-0.397	4.921	2.172	 H	1	UNK0	0.000	
57	   H	-0.135	4.621	-0.625	 H	1	UNK0	0.000	
58	   H	2.631	4.331	0.652	 H	1	UNK0	0.000	
59	   H	2.934	4.947	-1.338	 H	1	UNK0	0.000	
60	   H	0.442	6.556	-1.571	 H	1	UNK0	0.000	
61	   H	-0.995	6.686	-0.454	 H	1	UNK0	0.000	
62	   H	0.268	7.939	-0.476	 H	1	UNK0	0.000	
63	   H	-1.816	3.362	1.887	 H	1	UNK0	0.000	
64	   H	-0.580	3.233	3.510	 H	1	UNK0	0.000	
@<TRIPOS>BOND
1 1 2 1
2 2 3 2
3 2 7 1
4 3 4 1
5 4 5 2
6 4 11 1
7 5 6 1
8 5 8 1
9 6 7 2
10 8 9 1
11 8 24 1
12 9 10 2
13 9 11 1
14 11 12 1
15 12 13 1
16 13 14 1
17 13 18 1
18 14 15 1
19 15 16 1
20 15 23 1
21 16 17 1
22 16 22 1
23 17 18 1
24 17 20 1
25 18 19 1
26 20 21 1
27 24 25 1
28 25 26 1
29 25 30 1
30 26 27 1
31 27 28 1
32 27 35 1
33 28 29 1
34 28 34 1
35 29 30 1
36 29 32 1
37 30 31 1
38 32 33 1
39 3 36 1
40 6 37 1
41 7 38 1
42 12 39 1
43 12 40 1
44 13 41 1
45 15 42 1
46 16 43 1
47 17 44 1
48 18 45 1
49 19 46 1
50 21 47 1
51 21 48 1
52 21 49 1
53 22 50 1
54 23 51 1
55 24 52 1
56 24 53 1
57 25 54 1
58 27 55 1
59 28 56 1
60 29 57 1
61 30 58 1
62 31 59 1
63 33 60 1
64 33 61 1
65 33 62 1
66 34 63 1
67 35 64 1
@<TRIPOS>SUBSTRUCTURE
1	UNK0	1	GROUP	1 ****	UNK
