# created with PyMOL 2.3.2
@<TRIPOS>MOLECULE
2208
45 48 1                 
SMALL
USER_CHARGES
@<TRIPOS>ATOM
1	  Cl	1.550	0.968	2.435	Cl	1	UNK0	0.000	
2	   C	2.051	-0.645	2.920	C.2	1	UNK0	0.000	
3	   C	3.117	-0.819	3.781	C.2	1	UNK0	0.000	
4	   C	3.545	-2.066	4.188	C.2	1	UNK0	0.000	
5	   C	2.846	-3.152	3.686	C.2	1	UNK0	0.000	
6	   C	1.780	-2.989	2.826	C.2	1	UNK0	0.000	
7	   C	1.358	-1.727	2.422	C.2	1	UNK0	0.000	
8	   C	0.206	-1.599	1.495	C.3	1	UNK0	0.000	
9	   C	0.700	-1.286	0.135	C.2	1	UNK0	0.000	
10	   O	1.933	-1.174	-0.056	O.2	1	UNK0	0.000	
11	   N	-0.237	-1.122	-0.912	N.pl3	1	UNK0	0.000	
12	   C	-1.678	-1.182	-1.014	C.3	1	UNK0	0.000	
13	   C	-1.559	-0.178	-2.147	C.3	1	UNK0	0.000	
14	   C	-0.241	-0.833	-2.331	C.3	1	UNK0	0.000	
15	   N	-2.573	-0.448	-3.123	N.3	1	UNK0	0.000	
16	   C	-3.881	-0.298	-2.610	C.3	1	UNK0	0.000	
17	   C	-4.989	-0.146	-3.583	C.3	1	UNK0	0.000	
18	   O	-4.617	-0.215	-4.922	O.3	1	UNK0	0.000	
19	   C	-3.517	0.604	-5.142	C.3	1	UNK0	0.000	
20	   C	-2.326	-0.003	-4.431	C.3	1	UNK0	0.000	
21	   O	3.282	-4.401	4.100	O.3	1	UNK0	0.000	
22	   C	4.328	-4.604	5.012	C.3	1	UNK0	0.000	
23	   C	5.335	-3.501	4.989	C.3	1	UNK0	0.000	
24	   O	4.619	-2.258	5.057	O.3	1	UNK0	0.000	
25	   H	3.667	0.050	4.175	 H	1	UNK0	0.000	
26	   H	1.238	-3.852	2.437	 H	1	UNK0	0.000	
27	   H	-0.414	-2.516	1.488	 H	1	UNK0	0.000	
28	   H	-0.387	-0.710	1.832	 H	1	UNK0	0.000	
29	   H	-2.105	-2.161	-1.286	 H	1	UNK0	0.000	
30	   H	-2.118	-0.726	-0.086	 H	1	UNK0	0.000	
31	   H	-1.534	0.844	-1.736	 H	1	UNK0	0.000	
32	   H	0.542	-0.077	-2.565	 H	1	UNK0	0.000	
33	   H	-0.154	-1.671	-3.006	 H	1	UNK0	0.000	
34	   H	-3.951	0.575	-1.893	 H	1	UNK0	0.000	
35	   H	-4.087	-1.190	-1.961	 H	1	UNK0	0.000	
36	   H	-5.571	0.807	-3.437	 H	1	UNK0	0.000	
37	   H	-5.736	-0.951	-3.431	 H	1	UNK0	0.000	
38	   H	-3.294	0.571	-6.228	 H	1	UNK0	0.000	
39	   H	-3.646	1.624	-4.757	 H	1	UNK0	0.000	
40	   H	-2.031	-0.896	-5.058	 H	1	UNK0	0.000	
41	   H	-1.495	0.715	-4.539	 H	1	UNK0	0.000	
42	   H	4.865	-5.546	4.713	 H	1	UNK0	0.000	
43	   H	3.968	-4.721	6.064	 H	1	UNK0	0.000	
44	   H	6.031	-3.587	5.820	 H	1	UNK0	0.000	
45	   H	5.867	-3.518	4.005	 H	1	UNK0	0.000	
@<TRIPOS>BOND
1 1 2 1
2 2 3 2
3 2 7 1
4 3 4 1
5 4 5 2
6 4 24 1
7 5 6 1
8 5 21 1
9 6 7 2
10 7 8 1
11 8 9 1
12 9 10 2
13 9 11 1
14 11 12 1
15 11 14 1
16 12 13 1
17 13 14 1
18 13 15 1
19 15 16 1
20 15 20 1
21 16 17 1
22 17 18 1
23 18 19 1
24 19 20 1
25 21 22 1
26 22 23 1
27 23 24 1
28 3 25 1
29 6 26 1
30 8 27 1
31 8 28 1
32 12 29 1
33 12 30 1
34 13 31 1
35 14 32 1
36 14 33 1
37 16 34 1
38 16 35 1
39 17 36 1
40 17 37 1
41 19 38 1
42 19 39 1
43 20 40 1
44 20 41 1
45 22 42 1
46 22 43 1
47 23 44 1
48 23 45 1
@<TRIPOS>SUBSTRUCTURE
1	UNK0	1	GROUP	1 ****	UNK
