# created with PyMOL 2.3.2
@<TRIPOS>MOLECULE
2209
56 59 1                 
SMALL
USER_CHARGES
@<TRIPOS>ATOM
1	  Br	5.389	-2.947	-5.712	Br	1	UNK0	0.000	
2	   C	3.482	-3.028	-5.756	C.2	1	UNK0	0.000	
3	   C	2.745	-2.245	-4.900	C.2	1	UNK0	0.000	
4	   C	1.354	-2.263	-4.889	C.2	1	UNK0	0.000	
5	   C	0.715	-3.101	-5.775	C.2	1	UNK0	0.000	
6	   C	1.440	-3.892	-6.639	C.2	1	UNK0	0.000	
7	   C	2.817	-3.856	-6.630	C.2	1	UNK0	0.000	
8	   O	3.439	-1.407	-4.017	O.3	1	UNK0	0.000	
9	   C	2.748	-0.587	-3.121	C.2	1	UNK0	0.000	
10	   C	2.425	-1.042	-1.858	C.2	1	UNK0	0.000	
11	   O	1.779	-0.293	-1.004	O.3	1	UNK0	0.000	
12	   C	1.400	0.949	-1.312	C.2	1	UNK0	0.000	
13	   C	1.692	1.451	-2.546	C.2	1	UNK0	0.000	
14	   C	1.308	2.744	-2.894	C.2	1	UNK0	0.000	
15	   C	0.632	3.464	-1.938	C.2	1	UNK0	0.000	
16	   C	0.330	2.970	-0.687	C.2	1	UNK0	0.000	
17	   C	0.706	1.707	-0.351	C.2	1	UNK0	0.000	
18	   C	0.470	1.029	0.923	C.3	1	UNK0	0.000	
19	   N	-0.224	1.717	1.956	N.4	1	UNK0	0.000	
20	   C	0.229	1.166	3.230	C.3	1	UNK0	0.000	
21	   C	-0.560	0.023	3.738	C.3	1	UNK0	0.000	
22	   N	-1.970	0.456	3.795	N.3	1	UNK0	0.000	
23	   C	-2.347	0.514	2.417	C.3	1	UNK0	0.000	
24	   C	-1.640	1.730	1.824	C.3	1	UNK0	0.000	
25	   C	-2.724	-0.357	4.667	C.3	1	UNK0	0.000	
26	   C	-4.121	0.138	4.848	C.3	1	UNK0	0.000	
27	   O	-4.881	0.178	3.698	O.3	1	UNK0	0.000	
28	   O	-0.362	3.804	0.194	O.2	1	UNK0	0.000	
29	   C	2.383	0.684	-3.494	C.2	1	UNK0	0.000	
30	   O	2.639	1.172	-4.623	O.2	1	UNK0	0.000	
31	   C	2.801	-2.419	-1.406	C.3	1	UNK0	0.000	
32	   H	0.800	-1.638	-4.208	 H	1	UNK0	0.000	
33	   H	-0.379	-3.137	-5.789	 H	1	UNK0	0.000	
34	   H	0.915	-4.557	-7.340	 H	1	UNK0	0.000	
35	   H	3.413	-4.473	-7.304	 H	1	UNK0	0.000	
36	   H	1.543	3.134	-3.873	 H	1	UNK0	0.000	
37	   H	0.330	4.488	-2.216	 H	1	UNK0	0.000	
38	   H	-0.049	0.050	0.750	 H	1	UNK0	0.000	
39	   H	1.500	0.692	1.275	 H	1	UNK0	0.000	
40	   H	0.116	2.702	1.996	 H	1	UNK0	0.000	
41	   H	0.278	1.954	4.016	 H	1	UNK0	0.000	
42	   H	1.286	0.834	3.093	 H	1	UNK0	0.000	
43	   H	-0.525	-0.799	3.005	 H	1	UNK0	0.000	
44	   H	-0.181	-0.271	4.715	 H	1	UNK0	0.000	
45	   H	-3.392	0.615	2.173	 H	1	UNK0	0.000	
46	   H	-1.891	-0.391	1.902	 H	1	UNK0	0.000	
47	   H	-1.962	1.732	0.754	 H	1	UNK0	0.000	
48	   H	-2.092	2.621	2.296	 H	1	UNK0	0.000	
49	   H	-2.263	-0.358	5.704	 H	1	UNK0	0.000	
50	   H	-2.806	-1.423	4.346	 H	1	UNK0	0.000	
51	   H	-4.700	-0.466	5.587	 H	1	UNK0	0.000	
52	   H	-4.129	1.209	5.243	 H	1	UNK0	0.000	
53	   H	-5.826	0.403	3.871	 H	1	UNK0	0.000	
54	   H	1.873	-2.927	-1.017	 H	1	UNK0	0.000	
55	   H	3.509	-2.414	-0.579	 H	1	UNK0	0.000	
56	   H	3.114	-3.023	-2.286	 H	1	UNK0	0.000	
@<TRIPOS>BOND
1 1 2 1
2 2 3 2
3 2 7 1
4 3 4 1
5 3 8 1
6 4 5 2
7 5 6 1
8 6 7 2
9 8 9 1
10 9 10 2
11 9 29 1
12 10 11 1
13 10 31 1
14 11 12 1
15 12 13 2
16 12 17 1
17 13 14 1
18 13 29 1
19 14 15 2
20 15 16 1
21 16 17 2
22 16 28 1
23 17 18 1
24 18 19 1
25 19 20 1
26 19 24 1
27 20 21 1
28 21 22 1
29 22 23 1
30 22 25 1
31 23 24 1
32 25 26 1
33 26 27 1
34 29 30 2
35 4 32 1
36 5 33 1
37 6 34 1
38 7 35 1
39 14 36 1
40 15 37 1
41 18 38 1
42 18 39 1
43 19 40 1
44 20 41 1
45 20 42 1
46 21 43 1
47 21 44 1
48 23 45 1
49 23 46 1
50 24 47 1
51 24 48 1
52 25 49 1
53 25 50 1
54 26 51 1
55 26 52 1
56 27 53 1
57 31 54 1
58 31 55 1
59 31 56 1
@<TRIPOS>SUBSTRUCTURE
1	UNK0	1	GROUP	1 ****	UNK
