# created with PyMOL 2.3.2
@<TRIPOS>MOLECULE
2211
44 47 1                 
SMALL
USER_CHARGES
@<TRIPOS>ATOM
1	  Cl	3.373	1.976	-6.299	Cl	1	UNK0	0.000	
2	   C	2.606	2.650	-4.867	C.2	1	UNK0	0.000	
3	   C	2.478	4.019	-4.706	C.2	1	UNK0	0.000	
4	   N	1.880	4.502	-3.587	N.2	1	UNK0	0.000	
5	   C	1.404	3.693	-2.620	C.2	1	UNK0	0.000	
6	   C	1.504	2.326	-2.727	C.2	1	UNK0	0.000	
7	   C	2.113	1.836	-3.868	C.2	1	UNK0	0.000	
8	   C	1.009	1.404	-1.717	C.2	1	UNK0	0.000	
9	   O	1.151	0.156	-1.913	O.2	1	UNK0	0.000	
10	   N	0.377	1.822	-0.527	N.pl3	1	UNK0	0.000	
11	   C	-0.097	0.882	0.442	C.3	1	UNK0	0.000	
12	   C	-1.554	1.094	0.863	C.3	1	UNK0	0.000	
13	   C	-1.070	0.647	2.278	C.3	1	UNK0	0.000	
14	   C	0.237	1.242	1.887	C.3	1	UNK0	0.000	
15	   C	-1.225	-0.813	2.323	C.2	1	UNK0	0.000	
16	   N	-0.383	-1.836	2.402	N.pl3	1	UNK0	0.000	
17	   C	-1.057	-3.011	2.383	C.2	1	UNK0	0.000	
18	   N	-2.354	-2.694	2.290	N.2	1	UNK0	0.000	
19	   N	-2.477	-1.389	2.253	N.2	1	UNK0	0.000	
20	   C	-0.452	-4.359	2.454	C.3	1	UNK0	0.000	
21	   N	-0.118	-4.866	1.130	N.pl3	1	UNK0	0.000	
22	   C	-0.956	-5.590	0.354	C.2	1	UNK0	0.000	
23	   N	-0.308	-5.879	-0.789	N.2	1	UNK0	0.000	
24	   C	0.931	-5.355	-0.763	C.2	1	UNK0	0.000	
25	   C	1.039	-4.708	0.474	C.2	1	UNK0	0.000	
26	   C	1.052	-1.730	2.513	C.3	1	UNK0	0.000	
27	   H	2.854	4.663	-5.468	 H	1	UNK0	0.000	
28	   H	0.939	4.128	-1.752	 H	1	UNK0	0.000	
29	   H	2.206	0.774	-3.980	 H	1	UNK0	0.000	
30	   H	0.251	2.832	-0.349	 H	1	UNK0	0.000	
31	   H	0.081	-0.162	0.164	 H	1	UNK0	0.000	
32	   H	-1.817	2.153	0.927	 H	1	UNK0	0.000	
33	   H	-2.278	0.409	0.417	 H	1	UNK0	0.000	
34	   H	-1.647	1.204	3.057	 H	1	UNK0	0.000	
35	   H	1.163	0.845	2.291	 H	1	UNK0	0.000	
36	   H	0.154	2.373	1.970	 H	1	UNK0	0.000	
37	   H	-1.231	-5.022	2.930	 H	1	UNK0	0.000	
38	   H	0.431	-4.432	3.084	 H	1	UNK0	0.000	
39	   H	-1.963	-5.859	0.655	 H	1	UNK0	0.000	
40	   H	1.684	-5.422	-1.538	 H	1	UNK0	0.000	
41	   H	1.934	-4.181	0.798	 H	1	UNK0	0.000	
42	   H	1.506	-1.376	1.595	 H	1	UNK0	0.000	
43	   H	1.355	-1.183	3.433	 H	1	UNK0	0.000	
44	   H	1.490	-2.764	2.681	 H	1	UNK0	0.000	
@<TRIPOS>BOND
1 1 2 1
2 2 3 2
3 2 7 1
4 3 4 1
5 4 5 2
6 5 6 1
7 6 7 2
8 6 8 1
9 8 9 2
10 8 10 1
11 10 11 1
12 11 12 1
13 11 14 1
14 12 13 1
15 13 14 1
16 13 15 1
17 15 16 1
18 15 19 2
19 16 17 1
20 16 26 1
21 17 18 2
22 17 20 1
23 18 19 1
24 20 21 1
25 21 22 1
26 21 25 1
27 22 23 2
28 23 24 1
29 24 25 2
30 3 27 1
31 5 28 1
32 7 29 1
33 10 30 1
34 11 31 1
35 12 32 1
36 12 33 1
37 13 34 1
38 14 35 1
39 14 36 1
40 20 37 1
41 20 38 1
42 22 39 1
43 24 40 1
44 25 41 1
45 26 42 1
46 26 43 1
47 26 44 1
@<TRIPOS>SUBSTRUCTURE
1	UNK0	1	GROUP	1 ****	UNK
