# created with PyMOL 2.3.2
@<TRIPOS>MOLECULE
2212
51 53 1                 
SMALL
USER_CHARGES
@<TRIPOS>ATOM
1	  Cl	-5.376	1.057	-0.179	Cl	1	UNK0	0.000	
2	   C	-4.037	0.240	0.616	C.2	1	UNK0	0.000	
3	   C	-2.716	0.511	0.235	C.2	1	UNK0	0.000	
4	   C	-1.685	-0.119	0.848	C.2	1	UNK0	0.000	
5	   C	-1.959	-1.036	1.858	C.2	1	UNK0	0.000	
6	   C	-3.242	-1.296	2.225	C.2	1	UNK0	0.000	
7	   C	-4.313	-0.664	1.612	C.2	1	UNK0	0.000	
8	  Cl	-3.594	-2.464	3.509	Cl	1	UNK0	0.000	
9	   C	-0.304	0.135	0.488	C.3	1	UNK0	0.000	
10	   C	-0.142	1.113	-0.589	C.2	1	UNK0	0.000	
11	   C	-1.211	1.723	-1.179	C.2	1	UNK0	0.000	
12	   N	-0.995	2.635	-2.184	N.pl3	1	UNK0	0.000	
13	   C	0.245	2.934	-2.592	C.2	1	UNK0	0.000	
14	   O	0.409	3.773	-3.514	O.2	1	UNK0	0.000	
15	   N	1.293	2.331	-2.009	N.pl3	1	UNK0	0.000	
16	   C	1.159	1.439	-1.032	C.2	1	UNK0	0.000	
17	   O	2.114	0.858	-0.466	O.2	1	UNK0	0.000	
18	   C	2.661	2.648	-2.447	C.3	1	UNK0	0.000	
19	   C	-2.183	3.238	-2.755	C.3	1	UNK0	0.000	
20	   O	-2.523	1.450	-0.795	O.3	1	UNK0	0.000	
21	   C	0.492	-1.095	0.257	C.2	1	UNK0	0.000	
22	   C	0.354	-1.902	-0.843	C.2	1	UNK0	0.000	
23	   N	1.117	-2.989	-0.946	N.pl3	1	UNK0	0.000	
24	   C	2.029	-3.337	-0.009	C.2	1	UNK0	0.000	
25	   O	2.736	-4.384	-0.148	O.2	1	UNK0	0.000	
26	   N	2.192	-2.571	1.082	N.pl3	1	UNK0	0.000	
27	   C	1.424	-1.468	1.194	C.2	1	UNK0	0.000	
28	   O	1.624	-0.781	2.250	O.2	1	UNK0	0.000	
29	   C	3.169	-2.932	2.105	C.3	1	UNK0	0.000	
30	   C	0.966	-3.833	-2.105	C.3	1	UNK0	0.000	
31	   O	-0.585	-1.534	-1.796	O.2	1	UNK0	0.000	
32	   N	2.307	-0.463	-0.186	N.4	1	UNK0	0.000	
33	   H	-1.128	-1.550	2.359	 H	1	UNK0	0.000	
34	   H	-5.347	-0.873	1.908	 H	1	UNK0	0.000	
35	   H	0.164	0.632	1.403	 H	1	UNK0	0.000	
36	   H	3.408	2.104	-1.855	 H	1	UNK0	0.000	
37	   H	2.835	3.740	-2.370	 H	1	UNK0	0.000	
38	   H	2.787	2.381	-3.517	 H	1	UNK0	0.000	
39	   H	-1.951	4.285	-3.090	 H	1	UNK0	0.000	
40	   H	-2.966	3.382	-1.954	 H	1	UNK0	0.000	
41	   H	-2.626	2.663	-3.569	 H	1	UNK0	0.000	
42	   H	3.218	-4.027	2.153	 H	1	UNK0	0.000	
43	   H	4.125	-2.456	1.813	 H	1	UNK0	0.000	
44	   H	2.848	-2.461	3.049	 H	1	UNK0	0.000	
45	   H	1.388	-3.379	-3.027	 H	1	UNK0	0.000	
46	   H	1.534	-4.789	-1.973	 H	1	UNK0	0.000	
47	   H	-0.083	-4.139	-2.283	 H	1	UNK0	0.000	
48	   H	3.099	-1.108	0.029	 H	1	UNK0	0.000	
49	   H	2.705	0.329	-0.739	 H	1	UNK0	0.000	
50	   H	1.638	-0.979	-0.785	 H	1	UNK0	0.000	
51	   H	1.798	-0.164	0.669	 H	1	UNK0	0.000	
@<TRIPOS>BOND
1 1 2 1
2 2 3 2
3 2 7 1
4 3 4 1
5 3 20 1
6 4 5 2
7 4 9 1
8 5 6 1
9 6 7 2
10 6 8 1
11 9 10 1
12 9 21 1
13 10 11 2
14 10 16 1
15 11 12 1
16 11 20 1
17 12 13 1
18 12 19 1
19 13 14 2
20 13 15 1
21 15 16 1
22 15 18 1
23 16 17 2
24 21 22 2
25 21 27 1
26 22 23 1
27 22 31 1
28 23 24 1
29 23 30 1
30 24 25 2
31 24 26 1
32 26 27 1
33 26 29 1
34 27 28 2
35 5 33 1
36 7 34 1
37 9 35 1
38 18 36 1
39 18 37 1
40 18 38 1
41 19 39 1
42 19 40 1
43 19 41 1
44 29 42 1
45 29 43 1
46 29 44 1
47 30 45 1
48 30 46 1
49 30 47 1
50 32 48 1
51 32 49 1
52 32 50 1
53 32 51 1
@<TRIPOS>SUBSTRUCTURE
1	UNK0	1	GROUP	1 ****	UNK
