# created with PyMOL 2.3.2
@<TRIPOS>MOLECULE
2215
54 58 1                 
SMALL
USER_CHARGES
@<TRIPOS>ATOM
1	  Cl	-5.100	2.314	0.170	Cl	1	UNK0	0.000	
2	   C	-3.424	2.293	-0.338	C.2	1	UNK0	0.000	
3	   C	-2.480	3.070	0.298	C.2	1	UNK0	0.000	
4	   C	-1.139	3.089	-0.067	C.2	1	UNK0	0.000	
5	   C	-0.750	2.288	-1.116	C.2	1	UNK0	0.000	
6	   C	-1.713	1.502	-1.757	C.2	1	UNK0	0.000	
7	   C	-3.043	1.490	-1.389	C.2	1	UNK0	0.000	
8	   N	0.537	2.299	-1.489	N.pl3	1	UNK0	0.000	
9	   C	1.438	3.096	-0.832	C.2	1	UNK0	0.000	
10	   O	2.645	3.079	-1.215	O.2	1	UNK0	0.000	
11	   C	1.001	3.871	0.201	C.2	1	UNK0	0.000	
12	   O	1.838	4.601	0.799	O.2	1	UNK0	0.000	
13	   N	-0.268	3.885	0.599	N.pl3	1	UNK0	0.000	
14	   C	1.015	1.494	-2.559	C.3	1	UNK0	0.000	
15	   C	1.584	0.159	-2.248	C.3	1	UNK0	0.000	
16	   N	0.782	-0.811	-1.590	N.pl3	1	UNK0	0.000	
17	   C	0.772	-1.069	-0.162	C.3	1	UNK0	0.000	
18	   O	1.663	-2.167	0.132	O.3	1	UNK0	0.000	
19	   C	1.241	-3.359	0.687	C.2	1	UNK0	0.000	
20	   C	-0.062	-3.750	0.472	C.2	1	UNK0	0.000	
21	   C	-0.509	-4.933	1.012	C.2	1	UNK0	0.000	
22	   C	0.335	-5.751	1.775	C.2	1	UNK0	0.000	
23	   C	1.634	-5.353	1.984	C.2	1	UNK0	0.000	
24	   C	2.070	-4.169	1.441	C.2	1	UNK0	0.000	
25	   C	-0.900	-2.834	-0.343	C.3	1	UNK0	0.000	
26	   C	-0.627	-1.437	0.236	C.3	1	UNK0	0.000	
27	   C	-0.637	-2.899	-1.809	C.3	1	UNK0	0.000	
28	   C	-0.045	-1.667	-2.372	C.2	1	UNK0	0.000	
29	   O	-0.304	-1.403	-3.584	O.2	1	UNK0	0.000	
30	   C	0.174	-4.071	-2.205	C.2	1	UNK0	0.000	
31	   O	1.278	-3.869	-2.765	O.2	1	UNK0	0.000	
32	   N	-0.221	-5.414	-1.991	N.pl3	1	UNK0	0.000	
33	   C	1.264	0.066	0.684	C.3	1	UNK0	0.000	
34	   H	-2.778	3.699	1.121	 H	1	UNK0	0.000	
35	   H	-1.411	0.870	-2.576	 H	1	UNK0	0.000	
36	   H	-3.773	0.877	-1.895	 H	1	UNK0	0.000	
37	   H	-0.644	4.460	1.382	 H	1	UNK0	0.000	
38	   H	0.237	1.369	-3.342	 H	1	UNK0	0.000	
39	   H	1.832	2.128	-3.069	 H	1	UNK0	0.000	
40	   H	1.868	-0.282	-3.262	 H	1	UNK0	0.000	
41	   H	2.601	0.237	-1.759	 H	1	UNK0	0.000	
42	   H	-1.544	-5.219	0.827	 H	1	UNK0	0.000	
43	   H	-0.079	-6.669	2.171	 H	1	UNK0	0.000	
44	   H	2.277	-5.981	2.569	 H	1	UNK0	0.000	
45	   H	3.091	-3.826	1.587	 H	1	UNK0	0.000	
46	   H	-1.974	-3.087	-0.099	 H	1	UNK0	0.000	
47	   H	-0.701	-1.535	1.347	 H	1	UNK0	0.000	
48	   H	-1.404	-0.795	-0.163	 H	1	UNK0	0.000	
49	   H	-1.638	-3.048	-2.319	 H	1	UNK0	0.000	
50	   H	-1.200	-5.736	-2.100	 H	1	UNK0	0.000	
51	   H	0.498	-6.108	-1.713	 H	1	UNK0	0.000	
52	   H	1.594	-0.389	1.670	 H	1	UNK0	0.000	
53	   H	2.161	0.555	0.300	 H	1	UNK0	0.000	
54	   H	0.434	0.728	0.973	 H	1	UNK0	0.000	
@<TRIPOS>BOND
1 1 2 1
2 2 3 2
3 2 7 1
4 3 4 1
5 4 5 2
6 4 13 1
7 5 6 1
8 5 8 1
9 6 7 2
10 8 9 1
11 8 14 1
12 9 10 2
13 9 11 1
14 11 12 2
15 11 13 1
16 14 15 1
17 15 16 1
18 16 17 1
19 16 28 1
20 17 18 1
21 17 26 1
22 17 33 1
23 18 19 1
24 19 20 2
25 19 24 1
26 20 21 1
27 20 25 1
28 21 22 2
29 22 23 1
30 23 24 2
31 25 26 1
32 25 27 1
33 27 28 1
34 27 30 1
35 28 29 2
36 30 31 2
37 30 32 1
38 3 34 1
39 6 35 1
40 7 36 1
41 13 37 1
42 14 38 1
43 14 39 1
44 15 40 1
45 15 41 1
46 21 42 1
47 22 43 1
48 23 44 1
49 24 45 1
50 25 46 1
51 26 47 1
52 26 48 1
53 27 49 1
54 32 50 1
55 32 51 1
56 33 52 1
57 33 53 1
58 33 54 1
@<TRIPOS>SUBSTRUCTURE
1	UNK0	1	GROUP	1 ****	UNK
