# created with PyMOL 2.3.2
@<TRIPOS>MOLECULE
2216
62 65 1                 
SMALL
USER_CHARGES
@<TRIPOS>ATOM
1	  Cl	3.989	-1.081	5.256	Cl	1	UNK0	0.000	
2	   C	2.581	-0.809	4.255	C.2	1	UNK0	0.000	
3	   C	2.182	0.460	3.922	C.2	1	UNK0	0.000	
4	   C	1.071	0.650	3.131	C.2	1	UNK0	0.000	
5	   C	0.346	-0.431	2.664	C.2	1	UNK0	0.000	
6	   C	0.748	-1.704	2.999	C.2	1	UNK0	0.000	
7	   C	1.874	-1.901	3.800	C.2	1	UNK0	0.000	
8	   C	0.693	2.054	2.803	C.3	1	UNK0	0.000	
9	   N	1.298	2.460	1.627	N.3	1	UNK0	0.000	
10	   C	2.676	2.515	1.451	C.3	1	UNK0	0.000	
11	   C	3.068	1.358	0.520	C.3	1	UNK0	0.000	
12	   N	2.030	1.089	-0.433	N.3	1	UNK0	0.000	
13	   C	1.177	2.167	-0.726	C.3	1	UNK0	0.000	
14	   C	0.573	2.838	0.492	C.3	1	UNK0	0.000	
15	   C	2.492	0.320	-1.540	C.3	1	UNK0	0.000	
16	   C	1.505	-0.011	-2.574	C.3	1	UNK0	0.000	
17	   N	0.352	-0.797	-2.145	N.pl3	1	UNK0	0.000	
18	   C	-0.593	-1.219	-3.128	C.2	1	UNK0	0.000	
19	   C	-0.170	-1.481	-4.394	C.2	1	UNK0	0.000	
20	   C	1.225	-1.322	-4.736	C.2	1	UNK0	0.000	
21	   O	1.686	-1.557	-5.905	O.2	1	UNK0	0.000	
22	   C	2.112	-0.871	-3.668	C.2	1	UNK0	0.000	
23	   O	3.303	-1.180	-3.662	O.2	1	UNK0	0.000	
24	   C	-2.049	-1.308	-2.942	C.3	1	UNK0	0.000	
25	   N	-2.724	-2.222	-2.191	N.3	1	UNK0	0.000	
26	   C	-2.845	-2.391	-0.827	C.3	1	UNK0	0.000	
27	   C	-3.582	-1.230	-0.139	C.3	1	UNK0	0.000	
28	   O	-4.850	-1.227	-0.702	O.3	1	UNK0	0.000	
29	   C	-4.856	-1.152	-2.074	C.3	1	UNK0	0.000	
30	   C	-4.134	-2.323	-2.716	C.3	1	UNK0	0.000	
31	   C	0.127	-1.181	-0.796	C.3	1	UNK0	0.000	
32	   H	2.747	1.294	4.292	 H	1	UNK0	0.000	
33	   H	-0.522	-0.277	2.049	 H	1	UNK0	0.000	
34	   H	0.232	-2.582	2.671	 H	1	UNK0	0.000	
35	   H	2.213	-2.888	4.080	 H	1	UNK0	0.000	
36	   H	-0.433	2.045	2.690	 H	1	UNK0	0.000	
37	   H	0.924	2.655	3.714	 H	1	UNK0	0.000	
38	   H	3.323	2.534	2.345	 H	1	UNK0	0.000	
39	   H	2.985	3.436	0.868	 H	1	UNK0	0.000	
40	   H	3.148	0.464	1.190	 H	1	UNK0	0.000	
41	   H	4.065	1.506	0.091	 H	1	UNK0	0.000	
42	   H	1.717	2.963	-1.317	 H	1	UNK0	0.000	
43	   H	0.336	1.853	-1.357	 H	1	UNK0	0.000	
44	   H	0.548	3.958	0.339	 H	1	UNK0	0.000	
45	   H	-0.498	2.566	0.613	 H	1	UNK0	0.000	
46	   H	3.134	-0.549	-1.220	 H	1	UNK0	0.000	
47	   H	3.264	0.988	-2.040	 H	1	UNK0	0.000	
48	   H	1.183	0.914	-3.096	 H	1	UNK0	0.000	
49	   H	-0.854	-1.813	-5.169	 H	1	UNK0	0.000	
50	   H	-2.505	-1.325	-3.996	 H	1	UNK0	0.000	
51	   H	-2.412	-0.215	-2.671	 H	1	UNK0	0.000	
52	   H	-3.657	-3.233	-0.700	 H	1	UNK0	0.000	
53	   H	-2.054	-2.804	-0.211	 H	1	UNK0	0.000	
54	   H	-3.666	-1.521	0.927	 H	1	UNK0	0.000	
55	   H	-3.060	-0.282	-0.197	 H	1	UNK0	0.000	
56	   H	-4.418	-0.199	-2.477	 H	1	UNK0	0.000	
57	   H	-5.927	-1.136	-2.408	 H	1	UNK0	0.000	
58	   H	-4.538	-3.240	-2.269	 H	1	UNK0	0.000	
59	   H	-4.136	-2.265	-3.801	 H	1	UNK0	0.000	
60	   H	-0.721	-0.688	-0.296	 H	1	UNK0	0.000	
61	   H	0.052	-2.294	-0.743	 H	1	UNK0	0.000	
62	   H	0.996	-0.957	-0.129	 H	1	UNK0	0.000	
@<TRIPOS>BOND
1 1 2 1
2 2 3 2
3 2 7 1
4 3 4 1
5 4 5 2
6 4 8 1
7 5 6 1
8 6 7 2
9 8 9 1
10 9 10 1
11 9 14 1
12 10 11 1
13 11 12 1
14 12 13 1
15 12 15 1
16 13 14 1
17 15 16 1
18 16 17 1
19 16 22 1
20 17 18 1
21 17 31 1
22 18 19 2
23 18 24 1
24 19 20 1
25 20 21 2
26 20 22 1
27 22 23 2
28 24 25 1
29 25 26 1
30 25 30 1
31 26 27 1
32 27 28 1
33 28 29 1
34 29 30 1
35 3 32 1
36 5 33 1
37 6 34 1
38 7 35 1
39 8 36 1
40 8 37 1
41 10 38 1
42 10 39 1
43 11 40 1
44 11 41 1
45 13 42 1
46 13 43 1
47 14 44 1
48 14 45 1
49 15 46 1
50 15 47 1
51 16 48 1
52 19 49 1
53 24 50 1
54 24 51 1
55 26 52 1
56 26 53 1
57 27 54 1
58 27 55 1
59 29 56 1
60 29 57 1
61 30 58 1
62 30 59 1
63 31 60 1
64 31 61 1
65 31 62 1
@<TRIPOS>SUBSTRUCTURE
1	UNK0	1	GROUP	1 ****	UNK
