# created with PyMOL 2.3.2
@<TRIPOS>MOLECULE
2221
58 61 1                 
SMALL
USER_CHARGES
@<TRIPOS>ATOM
1	  Cl	-4.815	-0.489	0.851	Cl	1	UNK0	0.000	
2	   C	-3.912	-1.765	1.650	C.2	1	UNK0	0.000	
3	   C	-2.656	-2.154	1.235	C.2	1	UNK0	0.000	
4	   C	-1.957	-3.170	1.888	C.2	1	UNK0	0.000	
5	   C	-2.509	-3.818	2.973	C.2	1	UNK0	0.000	
6	   C	-3.764	-3.438	3.395	C.2	1	UNK0	0.000	
7	   C	-4.444	-2.423	2.733	C.2	1	UNK0	0.000	
8	   C	-0.600	-3.578	1.432	C.3	1	UNK0	0.000	
9	   N	0.405	-2.759	1.984	N.3	1	UNK0	0.000	
10	   C	1.750	-3.045	1.612	C.3	1	UNK0	0.000	
11	   C	2.528	-1.770	1.967	C.3	1	UNK0	0.000	
12	   N	1.674	-0.646	1.889	N.3	1	UNK0	0.000	
13	   C	0.742	-0.657	3.029	C.3	1	UNK0	0.000	
14	   C	0.179	-2.072	3.178	C.3	1	UNK0	0.000	
15	   C	0.999	-0.242	0.750	C.3	1	UNK0	0.000	
16	   C	1.635	0.347	-0.425	C.3	1	UNK0	0.000	
17	   C	2.608	-0.399	-1.218	C.2	1	UNK0	0.000	
18	   O	3.115	-1.486	-0.925	O.co2	1	UNK0	0.000	
19	   O	2.959	0.249	-2.441	O.3	1	UNK0	0.000	
20	   C	2.128	1.097	-3.113	C.2	1	UNK0	0.000	
21	   C	0.899	1.377	-2.648	C.2	1	UNK0	0.000	
22	   C	0.524	0.725	-1.404	C.2	1	UNK0	0.000	
23	   O	-0.648	0.467	-1.113	O.2	1	UNK0	0.000	
24	   C	-0.013	2.267	-3.386	C.3	1	UNK0	0.000	
25	   N	-0.425	3.461	-2.799	N.3	1	UNK0	0.000	
26	   C	-1.294	3.526	-1.707	C.3	1	UNK0	0.000	
27	   C	-0.645	3.896	-0.394	C.3	1	UNK0	0.000	
28	   O	0.029	5.106	-0.557	O.3	1	UNK0	0.000	
29	   C	1.025	4.938	-1.483	C.3	1	UNK0	0.000	
30	   C	0.544	4.539	-2.860	C.3	1	UNK0	0.000	
31	   H	-2.191	-1.659	0.377	 H	1	UNK0	0.000	
32	   H	-1.959	-4.612	3.481	 H	1	UNK0	0.000	
33	   H	-4.210	-3.952	4.261	 H	1	UNK0	0.000	
34	   H	-5.428	-2.146	3.089	 H	1	UNK0	0.000	
35	   H	-0.561	-3.466	0.310	 H	1	UNK0	0.000	
36	   H	-0.499	-4.668	1.624	 H	1	UNK0	0.000	
37	   H	1.854	-3.326	0.566	 H	1	UNK0	0.000	
38	   H	2.227	-3.865	2.201	 H	1	UNK0	0.000	
39	   H	3.521	-1.712	1.555	 H	1	UNK0	0.000	
40	   H	2.704	-1.915	3.104	 H	1	UNK0	0.000	
41	   H	-0.124	-0.002	2.814	 H	1	UNK0	0.000	
42	   H	1.202	-0.347	3.962	 H	1	UNK0	0.000	
43	   H	0.721	-2.541	4.043	 H	1	UNK0	0.000	
44	   H	-0.888	-2.053	3.451	 H	1	UNK0	0.000	
45	   H	0.298	-1.058	0.341	 H	1	UNK0	0.000	
46	   H	0.209	0.533	1.094	 H	1	UNK0	0.000	
47	   H	2.074	1.360	-0.140	 H	1	UNK0	0.000	
48	   H	2.429	1.583	-4.056	 H	1	UNK0	0.000	
49	   H	-0.910	1.702	-3.762	 H	1	UNK0	0.000	
50	   H	0.527	2.534	-4.351	 H	1	UNK0	0.000	
51	   H	-2.006	4.411	-1.903	 H	1	UNK0	0.000	
52	   H	-1.965	2.690	-1.570	 H	1	UNK0	0.000	
53	   H	-0.064	3.105	0.076	 H	1	UNK0	0.000	
54	   H	-1.492	4.127	0.319	 H	1	UNK0	0.000	
55	   H	1.855	4.269	-1.150	 H	1	UNK0	0.000	
56	   H	1.513	5.948	-1.618	 H	1	UNK0	0.000	
57	   H	1.414	4.297	-3.475	 H	1	UNK0	0.000	
58	   H	0.038	5.414	-3.312	 H	1	UNK0	0.000	
@<TRIPOS>BOND
1 1 2 1
2 2 3 2
3 2 7 1
4 3 4 1
5 4 5 2
6 4 8 1
7 5 6 1
8 6 7 2
9 8 9 1
10 9 10 1
11 9 14 1
12 10 11 1
13 11 12 1
14 12 13 1
15 12 15 1
16 13 14 1
17 15 16 1
18 16 17 1
19 16 22 1
20 17 18 2
21 17 19 1
22 19 20 1
23 20 21 2
24 21 22 1
25 21 24 1
26 22 23 2
27 24 25 1
28 25 26 1
29 25 30 1
30 26 27 1
31 27 28 1
32 28 29 1
33 29 30 1
34 3 31 1
35 5 32 1
36 6 33 1
37 7 34 1
38 8 35 1
39 8 36 1
40 10 37 1
41 10 38 1
42 11 39 1
43 11 40 1
44 13 41 1
45 13 42 1
46 14 43 1
47 14 44 1
48 15 45 1
49 15 46 1
50 16 47 1
51 20 48 1
52 24 49 1
53 24 50 1
54 26 51 1
55 26 52 1
56 27 53 1
57 27 54 1
58 29 55 1
59 29 56 1
60 30 57 1
61 30 58 1
@<TRIPOS>SUBSTRUCTURE
1	UNK0	1	GROUP	1 ****	UNK
