# created with PyMOL 2.3.2
@<TRIPOS>MOLECULE
2222
52 55 1                 
SMALL
USER_CHARGES
@<TRIPOS>ATOM
1	  Cl	-6.026	6.204	-3.553	Cl	1	UNK0	0.000	
2	   C	-5.077	5.352	-2.357	C.2	1	UNK0	0.000	
3	   C	-5.518	5.275	-1.056	C.2	1	UNK0	0.000	
4	   C	-4.803	4.617	-0.089	C.2	1	UNK0	0.000	
5	   C	-3.582	3.989	-0.380	C.2	1	UNK0	0.000	
6	   C	-3.165	4.079	-1.674	C.2	1	UNK0	0.000	
7	   C	-3.887	4.750	-2.677	C.2	1	UNK0	0.000	
8	   C	-2.902	3.349	0.676	C.2	1	UNK0	0.000	
9	   O	-3.453	3.457	1.866	O.2	1	UNK0	0.000	
10	   N	-1.725	2.600	0.711	N.pl3	1	UNK0	0.000	
11	   C	-0.905	2.282	-0.400	C.3	1	UNK0	0.000	
12	   C	0.242	1.311	-0.091	C.3	1	UNK0	0.000	
13	   N	-0.171	0.278	0.806	N.pl3	1	UNK0	0.000	
14	   C	-1.180	0.563	1.843	C.3	1	UNK0	0.000	
15	   C	-1.236	2.076	2.015	C.3	1	UNK0	0.000	
16	   C	0.359	-1.009	0.739	C.2	1	UNK0	0.000	
17	   O	0.450	-1.683	1.822	O.2	1	UNK0	0.000	
18	   C	0.821	-1.624	-0.532	C.3	1	UNK0	0.000	
19	   N	0.600	-0.657	-1.605	N.pl3	1	UNK0	0.000	
20	   C	0.767	0.725	-1.339	C.2	1	UNK0	0.000	
21	   O	1.380	1.462	-2.195	O.2	1	UNK0	0.000	
22	   C	2.309	-1.982	-0.450	C.3	1	UNK0	0.000	
23	   O	2.745	-2.534	-1.628	O.3	1	UNK0	0.000	
24	   C	4.063	-2.881	-1.655	C.3	1	UNK0	0.000	
25	   C	4.491	-3.865	-0.656	C.2	1	UNK0	0.000	
26	   C	4.466	-5.210	-0.880	C.2	1	UNK0	0.000	
27	   C	4.886	-6.093	0.105	C.2	1	UNK0	0.000	
28	   C	5.332	-5.604	1.320	C.2	1	UNK0	0.000	
29	   C	5.366	-4.260	1.566	C.2	1	UNK0	0.000	
30	   C	4.944	-3.376	0.575	C.2	1	UNK0	0.000	
31	   H	-6.467	5.752	-0.785	 H	1	UNK0	0.000	
32	   H	-5.231	4.605	0.919	 H	1	UNK0	0.000	
33	   H	-2.248	3.657	-2.043	 H	1	UNK0	0.000	
34	   H	-3.533	4.804	-3.687	 H	1	UNK0	0.000	
35	   H	-0.452	3.205	-0.802	 H	1	UNK0	0.000	
36	   H	-1.463	1.781	-1.237	 H	1	UNK0	0.000	
37	   H	1.004	1.921	0.424	 H	1	UNK0	0.000	
38	   H	-2.171	0.196	1.537	 H	1	UNK0	0.000	
39	   H	-0.908	0.120	2.802	 H	1	UNK0	0.000	
40	   H	-1.916	2.343	2.816	 H	1	UNK0	0.000	
41	   H	-0.202	2.433	2.112	 H	1	UNK0	0.000	
42	   H	0.216	-2.519	-0.774	 H	1	UNK0	0.000	
43	   H	0.322	-0.930	-2.579	 H	1	UNK0	0.000	
44	   H	2.902	-1.160	-0.055	 H	1	UNK0	0.000	
45	   H	2.349	-2.806	0.323	 H	1	UNK0	0.000	
46	   H	4.764	-2.022	-1.606	 H	1	UNK0	0.000	
47	   H	4.256	-3.345	-2.668	 H	1	UNK0	0.000	
48	   H	4.109	-5.548	-1.847	 H	1	UNK0	0.000	
49	   H	4.844	-7.149	-0.130	 H	1	UNK0	0.000	
50	   H	5.652	-6.300	2.066	 H	1	UNK0	0.000	
51	   H	5.720	-3.911	2.525	 H	1	UNK0	0.000	
52	   H	4.985	-2.330	0.805	 H	1	UNK0	0.000	
@<TRIPOS>BOND
1 1 2 1
2 2 3 2
3 2 7 1
4 3 4 1
5 4 5 2
6 5 6 1
7 5 8 1
8 6 7 2
9 8 9 2
10 8 10 1
11 10 11 1
12 10 15 1
13 11 12 1
14 12 13 1
15 12 20 1
16 13 14 1
17 13 16 1
18 14 15 1
19 16 17 2
20 16 18 1
21 18 19 1
22 18 22 1
23 19 20 1
24 20 21 2
25 22 23 1
26 23 24 1
27 24 25 1
28 25 26 2
29 25 30 1
30 26 27 1
31 27 28 2
32 28 29 1
33 29 30 2
34 3 31 1
35 4 32 1
36 6 33 1
37 7 34 1
38 11 35 1
39 11 36 1
40 12 37 1
41 14 38 1
42 14 39 1
43 15 40 1
44 15 41 1
45 18 42 1
46 19 43 1
47 22 44 1
48 22 45 1
49 24 46 1
50 24 47 1
51 26 48 1
52 27 49 1
53 28 50 1
54 29 51 1
55 30 52 1
@<TRIPOS>SUBSTRUCTURE
1	UNK0	1	GROUP	1 ****	UNK
