# created with PyMOL 2.3.2
@<TRIPOS>MOLECULE
2223
44 47 1                 
SMALL
USER_CHARGES
@<TRIPOS>ATOM
1	  Cl	-1.831	-6.796	-3.633	Cl	1	UNK0	0.000	
2	   C	-1.636	-5.280	-2.775	C.2	1	UNK0	0.000	
3	   C	-2.481	-4.227	-3.066	C.2	1	UNK0	0.000	
4	   C	-2.348	-3.006	-2.397	C.2	1	UNK0	0.000	
5	   C	-1.379	-2.835	-1.444	C.2	1	UNK0	0.000	
6	   C	-0.531	-3.869	-1.143	C.2	1	UNK0	0.000	
7	   C	-0.668	-5.091	-1.816	C.2	1	UNK0	0.000	
8	   C	-1.202	-1.514	-0.693	C.3	1	UNK0	0.000	
9	   C	-2.573	-0.828	-0.488	C.3	1	UNK0	0.000	
10	   C	-1.784	-1.401	0.663	C.3	1	UNK0	0.000	
11	   C	-0.233	-0.564	-1.328	C.3	1	UNK0	0.000	
12	   N	-0.007	0.636	-0.630	N.pl3	1	UNK0	0.000	
13	   C	0.639	0.678	0.624	C.2	1	UNK0	0.000	
14	   O	1.038	-0.384	1.118	O.2	1	UNK0	0.000	
15	   C	0.804	2.000	1.282	C.2	1	UNK0	0.000	
16	   C	1.401	2.027	2.447	C.2	1	UNK0	0.000	
17	   N	1.574	3.290	3.103	N.pl3	1	UNK0	0.000	
18	   C	1.091	4.458	2.461	C.2	1	UNK0	0.000	
19	   N	0.487	4.406	1.276	N.pl3	1	UNK0	0.000	
20	   N	0.147	5.667	0.935	N.2	1	UNK0	0.000	
21	   N	0.527	6.496	1.879	N.2	1	UNK0	0.000	
22	   N	1.101	5.778	2.813	N.2	1	UNK0	0.000	
23	   C	0.276	3.205	0.563	C.3	1	UNK0	0.000	
24	   C	2.218	3.362	4.366	C.3	1	UNK0	0.000	
25	   C	1.896	0.824	3.115	C.3	1	UNK0	0.000	
26	   H	-3.257	-4.330	-3.814	 H	1	UNK0	0.000	
27	   H	-3.016	-2.208	-2.642	 H	1	UNK0	0.000	
28	   H	0.237	-3.739	-0.391	 H	1	UNK0	0.000	
29	   H	-0.012	-5.903	-1.589	 H	1	UNK0	0.000	
30	   H	-2.622	0.275	-0.563	 H	1	UNK0	0.000	
31	   H	-3.473	-1.402	-0.766	 H	1	UNK0	0.000	
32	   H	-2.181	-2.369	1.120	 H	1	UNK0	0.000	
33	   H	-1.470	-0.668	1.416	 H	1	UNK0	0.000	
34	   H	0.753	-1.092	-1.534	 H	1	UNK0	0.000	
35	   H	-0.625	-0.309	-2.364	 H	1	UNK0	0.000	
36	   H	-0.325	1.558	-1.042	 H	1	UNK0	0.000	
37	   H	0.784	3.193	-0.431	 H	1	UNK0	0.000	
38	   H	-0.816	3.069	0.342	 H	1	UNK0	0.000	
39	   H	1.575	3.013	5.220	 H	1	UNK0	0.000	
40	   H	2.411	4.450	4.610	 H	1	UNK0	0.000	
41	   H	3.220	2.897	4.426	 H	1	UNK0	0.000	
42	   H	2.440	1.063	4.070	 H	1	UNK0	0.000	
43	   H	1.127	0.052	3.322	 H	1	UNK0	0.000	
44	   H	2.677	0.353	2.489	 H	1	UNK0	0.000	
@<TRIPOS>BOND
1 1 2 1
2 2 3 2
3 2 7 1
4 3 4 1
5 4 5 2
6 5 6 1
7 5 8 1
8 6 7 2
9 8 9 1
10 8 10 1
11 8 11 1
12 9 10 1
13 11 12 1
14 12 13 1
15 13 14 2
16 13 15 1
17 15 16 2
18 15 23 1
19 16 17 1
20 16 25 1
21 17 18 1
22 17 24 1
23 18 19 1
24 18 22 2
25 19 20 1
26 19 23 1
27 20 21 2
28 21 22 1
29 3 26 1
30 4 27 1
31 6 28 1
32 7 29 1
33 9 30 1
34 9 31 1
35 10 32 1
36 10 33 1
37 11 34 1
38 11 35 1
39 12 36 1
40 23 37 1
41 23 38 1
42 24 39 1
43 24 40 1
44 24 41 1
45 25 42 1
46 25 43 1
47 25 44 1
@<TRIPOS>SUBSTRUCTURE
1	UNK0	1	GROUP	1 ****	UNK
