# created with PyMOL 2.3.2
@<TRIPOS>MOLECULE
2224
56 59 1                 
SMALL
USER_CHARGES
@<TRIPOS>ATOM
1	  Cl	-4.820	-6.390	2.461	Cl	1	UNK0	0.000	
2	   C	-3.392	-5.663	1.731	C.2	1	UNK0	0.000	
3	   C	-2.689	-6.369	0.803	C.2	1	UNK0	0.000	
4	   C	-1.566	-5.811	0.219	C.2	1	UNK0	0.000	
5	   C	-1.142	-4.548	0.559	C.2	1	UNK0	0.000	
6	   C	-1.867	-3.848	1.500	C.2	1	UNK0	0.000	
7	   C	-2.988	-4.390	2.091	C.2	1	UNK0	0.000	
8	   C	0.046	-3.993	-0.074	C.2	1	UNK0	0.000	
9	   N	0.607	-2.781	0.116	N.2	1	UNK0	0.000	
10	   N	1.674	-2.652	-0.635	N.pl3	1	UNK0	0.000	
11	   N	1.793	-3.794	-1.310	N.2	1	UNK0	0.000	
12	   N	0.817	-4.597	-0.974	N.2	1	UNK0	0.000	
13	   C	2.585	-1.503	-0.735	C.3	1	UNK0	0.000	
14	   C	4.004	-1.988	-0.571	C.3	1	UNK0	0.000	
15	   C	4.087	-2.634	0.800	C.3	1	UNK0	0.000	
16	   C	2.468	-0.826	-2.043	C.2	1	UNK0	0.000	
17	   O	3.419	-0.921	-2.871	O.2	1	UNK0	0.000	
18	   N	1.320	-0.077	-2.394	N.pl3	1	UNK0	0.000	
19	   C	1.186	0.564	-3.669	C.3	1	UNK0	0.000	
20	   C	0.715	1.972	-3.574	C.3	1	UNK0	0.000	
21	   N	0.255	2.369	-2.242	N.3	1	UNK0	0.000	
22	   C	-0.594	1.295	-1.755	C.3	1	UNK0	0.000	
23	   C	0.247	0.068	-1.444	C.3	1	UNK0	0.000	
24	   C	1.345	2.691	-1.385	C.3	1	UNK0	0.000	
25	   C	0.827	3.290	-0.109	C.2	1	UNK0	0.000	
26	   O	-0.399	3.432	0.026	O.2	1	UNK0	0.000	
27	   N	1.698	3.689	0.921	N.pl3	1	UNK0	0.000	
28	   C	1.308	4.266	2.175	C.3	1	UNK0	0.000	
29	   C	0.414	5.459	2.116	C.3	1	UNK0	0.000	
30	   C	-0.105	4.172	2.665	C.3	1	UNK0	0.000	
31	   H	-3.022	-7.372	0.530	 H	1	UNK0	0.000	
32	   H	-1.058	-6.435	-0.510	 H	1	UNK0	0.000	
33	   H	-1.580	-2.844	1.811	 H	1	UNK0	0.000	
34	   H	-3.562	-3.846	2.831	 H	1	UNK0	0.000	
35	   H	2.356	-0.811	0.111	 H	1	UNK0	0.000	
36	   H	4.677	-1.095	-0.585	 H	1	UNK0	0.000	
37	   H	4.260	-2.682	-1.376	 H	1	UNK0	0.000	
38	   H	5.145	-2.758	1.074	 H	1	UNK0	0.000	
39	   H	3.561	-1.931	1.499	 H	1	UNK0	0.000	
40	   H	3.565	-3.609	0.760	 H	1	UNK0	0.000	
41	   H	0.447	-0.034	-4.281	 H	1	UNK0	0.000	
42	   H	2.122	0.516	-4.272	 H	1	UNK0	0.000	
43	   H	-0.180	2.131	-4.240	 H	1	UNK0	0.000	
44	   H	1.469	2.727	-3.917	 H	1	UNK0	0.000	
45	   H	-1.280	1.056	-2.626	 H	1	UNK0	0.000	
46	   H	-1.233	1.600	-0.947	 H	1	UNK0	0.000	
47	   H	0.661	0.191	-0.444	 H	1	UNK0	0.000	
48	   H	-0.413	-0.809	-1.560	 H	1	UNK0	0.000	
49	   H	1.997	1.851	-1.094	 H	1	UNK0	0.000	
50	   H	1.965	3.467	-1.893	 H	1	UNK0	0.000	
51	   H	2.739	3.531	0.722	 H	1	UNK0	0.000	
52	   H	2.095	4.206	2.985	 H	1	UNK0	0.000	
53	   H	0.112	5.804	1.097	 H	1	UNK0	0.000	
54	   H	0.577	6.305	2.799	 H	1	UNK0	0.000	
55	   H	-0.883	3.587	2.159	 H	1	UNK0	0.000	
56	   H	-0.222	4.173	3.800	 H	1	UNK0	0.000	
@<TRIPOS>BOND
1 1 2 1
2 2 3 2
3 2 7 1
4 3 4 1
5 4 5 2
6 5 6 1
7 5 8 1
8 6 7 2
9 8 9 2
10 8 12 1
11 9 10 1
12 10 11 1
13 10 13 1
14 11 12 2
15 13 14 1
16 13 16 1
17 14 15 1
18 16 17 2
19 16 18 1
20 18 19 1
21 18 23 1
22 19 20 1
23 20 21 1
24 21 22 1
25 21 24 1
26 22 23 1
27 24 25 1
28 25 26 2
29 25 27 1
30 27 28 1
31 28 29 1
32 28 30 1
33 29 30 1
34 3 31 1
35 4 32 1
36 6 33 1
37 7 34 1
38 13 35 1
39 14 36 1
40 14 37 1
41 15 38 1
42 15 39 1
43 15 40 1
44 19 41 1
45 19 42 1
46 20 43 1
47 20 44 1
48 22 45 1
49 22 46 1
50 23 47 1
51 23 48 1
52 24 49 1
53 24 50 1
54 27 51 1
55 28 52 1
56 29 53 1
57 29 54 1
58 30 55 1
59 30 56 1
@<TRIPOS>SUBSTRUCTURE
1	UNK0	1	GROUP	1 ****	UNK
