# created with PyMOL 2.3.2
@<TRIPOS>MOLECULE
2226
59 62 1                 
SMALL
USER_CHARGES
@<TRIPOS>ATOM
1	  Cl	-2.560	6.113	-5.222	Cl	1	UNK0	0.000	
2	   C	-2.883	5.350	-3.683	C.2	1	UNK0	0.000	
3	   C	-2.484	4.037	-3.429	C.2	1	UNK0	0.000	
4	   C	-2.738	3.435	-2.216	C.2	1	UNK0	0.000	
5	   C	-3.403	4.197	-1.276	C.2	1	UNK0	0.000	
6	   C	-3.799	5.494	-1.521	C.2	1	UNK0	0.000	
7	   C	-3.545	6.080	-2.720	C.2	1	UNK0	0.000	
8	   O	-3.668	3.628	-0.067	O.3	1	UNK0	0.000	
9	   C	-4.346	4.372	0.924	C.3	1	UNK0	0.000	
10	   C	-2.307	2.068	-1.989	C.2	1	UNK0	0.000	
11	   C	-1.681	1.671	-0.829	C.2	1	UNK0	0.000	
12	   C	-1.255	0.390	-0.568	C.2	1	UNK0	0.000	
13	   C	-1.475	-0.570	-1.549	C.2	1	UNK0	0.000	
14	   C	-2.098	-0.227	-2.731	C.2	1	UNK0	0.000	
15	   C	-2.507	1.070	-2.947	C.2	1	UNK0	0.000	
16	   N	-1.105	-1.944	-1.459	N.pl3	1	UNK0	0.000	
17	   C	-0.301	-2.608	-0.496	C.2	1	UNK0	0.000	
18	   O	-0.428	-3.849	-0.395	O.2	1	UNK0	0.000	
19	   C	0.678	-1.969	0.404	C.3	1	UNK0	0.000	
20	   N	0.106	-0.910	1.205	N.pl3	1	UNK0	0.000	
21	   C	0.233	-0.938	2.622	C.3	1	UNK0	0.000	
22	   C	1.615	-1.295	3.107	C.3	1	UNK0	0.000	
23	   N	2.286	-2.188	2.112	N.pl3	1	UNK0	0.000	
24	   C	1.376	-2.961	1.318	C.3	1	UNK0	0.000	
25	   C	3.662	-2.166	2.075	C.2	1	UNK0	0.000	
26	   O	4.298	-1.385	2.915	O.2	1	UNK0	0.000	
27	   C	4.559	-2.924	1.189	C.3	1	UNK0	0.000	
28	   O	3.907	-3.717	0.290	O.3	1	UNK0	0.000	
29	   C	4.766	-4.418	-0.527	C.3	1	UNK0	0.000	
30	   C	4.073	-5.276	-1.500	C.2	1	UNK0	0.000	
31	   O	4.761	-5.962	-2.298	O.co2	1	UNK0	0.000	
32	   O	2.690	-5.369	-1.582	O.3	1	UNK0	0.000	
33	   C	2.083	-6.209	-2.535	C.3	1	UNK0	0.000	
34	   C	-0.618	0.231	0.742	C.2	1	UNK0	0.000	
35	   O	-0.727	1.207	1.526	O.2	1	UNK0	0.000	
36	   H	-1.971	3.532	-4.233	 H	1	UNK0	0.000	
37	   H	-4.324	6.083	-0.766	 H	1	UNK0	0.000	
38	   H	-3.861	7.115	-2.917	 H	1	UNK0	0.000	
39	   H	-5.399	4.607	0.625	 H	1	UNK0	0.000	
40	   H	-3.869	5.353	1.124	 H	1	UNK0	0.000	
41	   H	-4.430	3.751	1.841	 H	1	UNK0	0.000	
42	   H	-1.512	2.418	-0.070	 H	1	UNK0	0.000	
43	   H	-2.244	-1.017	-3.464	 H	1	UNK0	0.000	
44	   H	-2.996	1.338	-3.875	 H	1	UNK0	0.000	
45	   H	-1.495	-2.530	-2.224	 H	1	UNK0	0.000	
46	   H	1.493	-1.541	-0.249	 H	1	UNK0	0.000	
47	   H	-0.043	0.014	3.117	 H	1	UNK0	0.000	
48	   H	-0.470	-1.710	3.057	 H	1	UNK0	0.000	
49	   H	1.552	-1.901	4.026	 H	1	UNK0	0.000	
50	   H	2.254	-0.398	3.257	 H	1	UNK0	0.000	
51	   H	1.791	-3.753	0.703	 H	1	UNK0	0.000	
52	   H	0.619	-3.445	2.003	 H	1	UNK0	0.000	
53	   H	5.300	-2.229	0.677	 H	1	UNK0	0.000	
54	   H	5.232	-3.588	1.789	 H	1	UNK0	0.000	
55	   H	5.356	-5.109	0.143	 H	1	UNK0	0.000	
56	   H	5.448	-3.746	-1.085	 H	1	UNK0	0.000	
57	   H	2.384	-7.283	-2.386	 H	1	UNK0	0.000	
58	   H	2.326	-5.921	-3.572	 H	1	UNK0	0.000	
59	   H	0.986	-6.187	-2.422	 H	1	UNK0	0.000	
@<TRIPOS>BOND
1 1 2 1
2 2 3 2
3 2 7 1
4 3 4 1
5 4 5 2
6 4 10 1
7 5 6 1
8 5 8 1
9 6 7 2
10 8 9 1
11 10 11 2
12 10 15 1
13 11 12 1
14 12 13 2
15 12 34 1
16 13 14 1
17 13 16 1
18 14 15 2
19 16 17 1
20 17 18 2
21 17 19 1
22 19 20 1
23 19 24 1
24 20 21 1
25 20 34 1
26 21 22 1
27 22 23 1
28 23 24 1
29 23 25 1
30 25 26 2
31 25 27 1
32 27 28 1
33 28 29 1
34 29 30 1
35 30 31 2
36 30 32 1
37 32 33 1
38 34 35 2
39 3 36 1
40 6 37 1
41 7 38 1
42 9 39 1
43 9 40 1
44 9 41 1
45 11 42 1
46 14 43 1
47 15 44 1
48 16 45 1
49 19 46 1
50 21 47 1
51 21 48 1
52 22 49 1
53 22 50 1
54 24 51 1
55 24 52 1
56 27 53 1
57 27 54 1
58 29 55 1
59 29 56 1
60 33 57 1
61 33 58 1
62 33 59 1
@<TRIPOS>SUBSTRUCTURE
1	UNK0	1	GROUP	1 ****	UNK
