# created with PyMOL 2.3.2
@<TRIPOS>MOLECULE
2227
57 61 1                 
SMALL
USER_CHARGES
@<TRIPOS>ATOM
1	  Cl	-0.805	0.738	7.664	Cl	1	UNK0	0.000	
2	   C	-0.642	0.604	5.937	C.2	1	UNK0	0.000	
3	   C	0.495	1.062	5.322	C.2	1	UNK0	0.000	
4	   C	0.644	0.963	3.949	C.2	1	UNK0	0.000	
5	   C	-0.348	0.404	3.182	C.2	1	UNK0	0.000	
6	   C	-1.510	-0.067	3.798	C.2	1	UNK0	0.000	
7	   C	-1.625	0.044	5.140	C.2	1	UNK0	0.000	
8	   C	0.070	0.451	1.769	C.3	1	UNK0	0.000	
9	   N	-0.824	1.335	1.007	N.3	1	UNK0	0.000	
10	   C	-1.232	0.591	-0.145	C.3	1	UNK0	0.000	
11	   C	-1.334	-0.828	0.362	C.3	1	UNK0	0.000	
12	   C	-0.095	-0.903	1.204	C.3	1	UNK0	0.000	
13	   C	0.927	-1.330	0.222	C.2	1	UNK0	0.000	
14	   O	2.196	-1.332	0.318	O.2	1	UNK0	0.000	
15	   N	0.321	-1.796	-0.979	N.pl3	1	UNK0	0.000	
16	   C	-1.077	-1.770	-0.729	C.2	1	UNK0	0.000	
17	   O	-1.947	-2.437	-1.332	O.2	1	UNK0	0.000	
18	   C	0.901	-2.220	-2.207	C.2	1	UNK0	0.000	
19	   C	1.948	-1.596	-2.840	C.2	1	UNK0	0.000	
20	   C	2.460	-2.058	-4.046	C.2	1	UNK0	0.000	
21	   C	1.938	-3.169	-4.668	C.2	1	UNK0	0.000	
22	   C	0.885	-3.807	-4.045	C.2	1	UNK0	0.000	
23	   C	0.384	-3.342	-2.849	C.2	1	UNK0	0.000	
24	   C	2.474	-3.671	-5.937	C.2	1	UNK0	0.000	
25	   O	1.880	-4.578	-6.574	O.2	1	UNK0	0.000	
26	   N	3.681	-3.118	-6.445	N.pl3	1	UNK0	0.000	
27	   C	-2.490	1.162	-0.693	C.3	1	UNK0	0.000	
28	   C	-2.163	2.615	-1.076	C.3	1	UNK0	0.000	
29	   C	-3.326	3.296	-1.641	C.2	1	UNK0	0.000	
30	   O	-4.463	2.802	-1.567	O.2	1	UNK0	0.000	
31	   N	-3.147	4.548	-2.289	N.pl3	1	UNK0	0.000	
32	   C	1.415	1.003	1.805	C.2	1	UNK0	0.000	
33	   O	2.249	1.195	0.855	O.2	1	UNK0	0.000	
34	   N	1.746	1.343	3.128	N.pl3	1	UNK0	0.000	
35	   C	1.573	1.680	6.149	C.3	1	UNK0	0.000	
36	   H	-2.328	-0.521	3.224	 H	1	UNK0	0.000	
37	   H	-2.538	-0.327	5.616	 H	1	UNK0	0.000	
38	   H	-1.634	1.600	1.625	 H	1	UNK0	0.000	
39	   H	-0.390	0.641	-0.881	 H	1	UNK0	0.000	
40	   H	-2.271	-1.018	0.906	 H	1	UNK0	0.000	
41	   H	-0.209	-1.689	2.010	 H	1	UNK0	0.000	
42	   H	2.382	-0.726	-2.379	 H	1	UNK0	0.000	
43	   H	3.297	-1.547	-4.534	 H	1	UNK0	0.000	
44	   H	0.472	-4.689	-4.544	 H	1	UNK0	0.000	
45	   H	-0.442	-3.870	-2.377	 H	1	UNK0	0.000	
46	   H	3.691	-2.503	-7.302	 H	1	UNK0	0.000	
47	   H	4.628	-3.280	-6.008	 H	1	UNK0	0.000	
48	   H	-2.775	0.643	-1.635	 H	1	UNK0	0.000	
49	   H	-3.285	1.159	0.047	 H	1	UNK0	0.000	
50	   H	-1.290	2.576	-1.738	 H	1	UNK0	0.000	
51	   H	-1.916	3.113	-0.091	 H	1	UNK0	0.000	
52	   H	-3.970	5.156	-2.467	 H	1	UNK0	0.000	
53	   H	-2.207	4.834	-2.570	 H	1	UNK0	0.000	
54	   H	2.636	1.798	3.495	 H	1	UNK0	0.000	
55	   H	1.230	2.723	6.419	 H	1	UNK0	0.000	
56	   H	2.536	1.719	5.583	 H	1	UNK0	0.000	
57	   H	1.713	1.146	7.106	 H	1	UNK0	0.000	
@<TRIPOS>BOND
1 1 2 1
2 2 3 2
3 2 7 1
4 3 4 1
5 3 35 1
6 4 5 2
7 4 34 1
8 5 6 1
9 5 8 1
10 6 7 2
11 8 9 1
12 8 12 1
13 8 32 1
14 9 10 1
15 10 11 1
16 10 27 1
17 11 12 1
18 11 16 1
19 12 13 1
20 13 14 2
21 13 15 1
22 15 16 1
23 15 18 1
24 16 17 2
25 18 19 2
26 18 23 1
27 19 20 1
28 20 21 2
29 21 22 1
30 21 24 1
31 22 23 2
32 24 25 2
33 24 26 1
34 27 28 1
35 28 29 1
36 29 30 2
37 29 31 1
38 32 33 2
39 32 34 1
40 6 36 1
41 7 37 1
42 9 38 1
43 10 39 1
44 11 40 1
45 12 41 1
46 19 42 1
47 20 43 1
48 22 44 1
49 23 45 1
50 26 46 1
51 26 47 1
52 27 48 1
53 27 49 1
54 28 50 1
55 28 51 1
56 31 52 1
57 31 53 1
58 34 54 1
59 35 55 1
60 35 56 1
61 35 57 1
@<TRIPOS>SUBSTRUCTURE
1	UNK0	1	GROUP	1 ****	UNK
