# created with PyMOL 2.3.2
@<TRIPOS>MOLECULE
2228
51 56 1                 
SMALL
USER_CHARGES
@<TRIPOS>ATOM
1	  Cl	-2.049	-0.642	6.708	Cl	1	UNK0	0.000	
2	   C	-1.223	-0.872	5.185	C.2	1	UNK0	0.000	
3	   C	-1.531	-0.061	4.089	C.2	1	UNK0	0.000	
4	   C	-0.906	-0.209	2.878	C.2	1	UNK0	0.000	
5	   C	0.060	-1.212	2.779	C.2	1	UNK0	0.000	
6	   C	0.354	-2.003	3.862	C.2	1	UNK0	0.000	
7	   C	-0.285	-1.847	5.089	C.2	1	UNK0	0.000	
8	   N	0.616	-1.211	1.472	N.pl3	1	UNK0	0.000	
9	   C	0.006	-0.191	0.703	C.2	1	UNK0	0.000	
10	   O	0.301	0.072	-0.470	O.2	1	UNK0	0.000	
11	   C	-1.009	0.447	1.587	C.3	1	UNK0	0.000	
12	   N	-2.263	0.326	0.892	N.3	1	UNK0	0.000	
13	   C	-2.178	1.304	-0.188	C.3	1	UNK0	0.000	
14	   C	-1.363	2.440	0.340	C.3	1	UNK0	0.000	
15	   C	-0.842	1.944	1.648	C.3	1	UNK0	0.000	
16	   C	0.534	2.417	1.712	C.2	1	UNK0	0.000	
17	   O	1.309	2.464	2.729	O.2	1	UNK0	0.000	
18	   N	0.929	2.845	0.424	N.pl3	1	UNK0	0.000	
19	   C	-0.192	2.786	-0.482	C.2	1	UNK0	0.000	
20	   O	-0.192	2.986	-1.724	O.2	1	UNK0	0.000	
21	   C	2.226	3.280	0.011	C.3	1	UNK0	0.000	
22	   C	3.140	2.257	-0.530	C.3	1	UNK0	0.000	
23	   O	2.703	1.591	-1.670	O.3	1	UNK0	0.000	
24	   C	3.709	0.631	-1.834	C.3	1	UNK0	0.000	
25	   C	4.080	0.128	-0.457	C.3	1	UNK0	0.000	
26	   C	3.526	1.207	0.462	C.3	1	UNK0	0.000	
27	   C	-3.583	1.798	-0.445	C.3	1	UNK0	0.000	
28	   C	-4.457	1.130	0.598	C.3	1	UNK0	0.000	
29	   C	-3.436	0.687	1.642	C.3	1	UNK0	0.000	
30	   H	-2.287	0.678	4.293	 H	1	UNK0	0.000	
31	   H	1.106	-2.775	3.766	 H	1	UNK0	0.000	
32	   H	-0.030	-2.488	5.925	 H	1	UNK0	0.000	
33	   H	1.372	-1.890	1.163	 H	1	UNK0	0.000	
34	   H	-1.748	0.923	-1.112	 H	1	UNK0	0.000	
35	   H	-2.000	3.333	0.534	 H	1	UNK0	0.000	
36	   H	-1.463	2.280	2.516	 H	1	UNK0	0.000	
37	   H	2.089	4.065	-0.790	 H	1	UNK0	0.000	
38	   H	2.773	3.828	0.816	 H	1	UNK0	0.000	
39	   H	4.105	2.755	-0.847	 H	1	UNK0	0.000	
40	   H	4.588	1.074	-2.367	 H	1	UNK0	0.000	
41	   H	3.371	-0.239	-2.429	 H	1	UNK0	0.000	
42	   H	5.180	0.004	-0.334	 H	1	UNK0	0.000	
43	   H	3.535	-0.820	-0.220	 H	1	UNK0	0.000	
44	   H	2.694	0.817	1.076	 H	1	UNK0	0.000	
45	   H	4.292	1.598	1.156	 H	1	UNK0	0.000	
46	   H	-3.684	2.884	-0.318	 H	1	UNK0	0.000	
47	   H	-3.914	1.519	-1.464	 H	1	UNK0	0.000	
48	   H	-5.216	1.811	1.017	 H	1	UNK0	0.000	
49	   H	-4.972	0.290	0.120	 H	1	UNK0	0.000	
50	   H	-3.843	-0.212	2.127	 H	1	UNK0	0.000	
51	   H	-3.318	1.476	2.375	 H	1	UNK0	0.000	
@<TRIPOS>BOND
1 1 2 1
2 2 3 2
3 2 7 1
4 3 4 1
5 4 5 2
6 4 11 1
7 5 6 1
8 5 8 1
9 6 7 2
10 8 9 1
11 9 10 2
12 9 11 1
13 11 12 1
14 11 15 1
15 12 13 1
16 12 29 1
17 13 14 1
18 13 27 1
19 14 15 1
20 14 19 1
21 15 16 1
22 16 17 2
23 16 18 1
24 18 19 1
25 18 21 1
26 19 20 2
27 21 22 1
28 22 23 1
29 22 26 1
30 23 24 1
31 24 25 1
32 25 26 1
33 27 28 1
34 28 29 1
35 3 30 1
36 6 31 1
37 7 32 1
38 8 33 1
39 13 34 1
40 14 35 1
41 15 36 1
42 21 37 1
43 21 38 1
44 22 39 1
45 24 40 1
46 24 41 1
47 25 42 1
48 25 43 1
49 26 44 1
50 26 45 1
51 27 46 1
52 27 47 1
53 28 48 1
54 28 49 1
55 29 50 1
56 29 51 1
@<TRIPOS>SUBSTRUCTURE
1	UNK0	1	GROUP	1 ****	UNK
