# created with PyMOL 2.3.2
@<TRIPOS>MOLECULE
2229
47 50 1                 
SMALL
USER_CHARGES
@<TRIPOS>ATOM
1	   S	-1.906	-3.459	-0.088	S.O2	1	UNK0	0.000	
2	   O	-3.415	-3.264	0.011	O.2	1	UNK0	0.000	
3	   O	-1.642	-4.803	0.527	O.2	1	UNK0	0.000	
4	   N	-1.467	-3.319	-1.689	N.3	1	UNK0	0.000	
5	   C	-0.114	-3.441	-2.066	C.3	1	UNK0	0.000	
6	   C	0.695	-2.175	-1.990	C.3	1	UNK0	0.000	
7	   N	-0.115	-1.061	-2.373	N.pl3	1	UNK0	0.000	
8	   C	-1.450	-1.169	-2.892	C.3	1	UNK0	0.000	
9	   C	-2.171	-2.429	-2.530	C.3	1	UNK0	0.000	
10	   C	0.457	0.255	-2.227	C.2	1	UNK0	0.000	
11	   O	-0.219	1.272	-2.553	O.2	1	UNK0	0.000	
12	   C	1.814	0.448	-1.706	C.3	1	UNK0	0.000	
13	   N	2.117	1.860	-1.675	N.pl3	1	UNK0	0.000	
14	   C	2.712	2.581	-2.746	C.2	1	UNK0	0.000	
15	   O	3.062	2.112	-3.867	O.2	1	UNK0	0.000	
16	   C	2.876	3.993	-2.370	C.2	1	UNK0	0.000	
17	   N	3.369	5.059	-2.998	N.2	1	UNK0	0.000	
18	   C	3.402	6.259	-2.416	C.2	1	UNK0	0.000	
19	   C	2.927	6.455	-1.136	C.2	1	UNK0	0.000	
20	   C	2.409	5.345	-0.471	C.2	1	UNK0	0.000	
21	   C	2.381	4.111	-1.084	C.2	1	UNK0	0.000	
22	   C	1.906	2.800	-0.636	C.2	1	UNK0	0.000	
23	   O	1.394	2.563	0.497	O.2	1	UNK0	0.000	
24	   C	-1.211	-2.263	0.993	C.2	1	UNK0	0.000	
25	   C	-0.008	-2.506	1.639	C.2	1	UNK0	0.000	
26	   C	0.542	-1.567	2.490	C.2	1	UNK0	0.000	
27	   C	-0.071	-0.357	2.734	C.2	1	UNK0	0.000	
28	   C	-1.267	-0.122	2.088	C.2	1	UNK0	0.000	
29	   C	-1.835	-1.052	1.231	C.2	1	UNK0	0.000	
30	  Cl	-3.358	-0.742	0.417	Cl	1	UNK0	0.000	
31	  Cl	0.780	-4.049	1.337	Cl	1	UNK0	0.000	
32	   H	-0.122	-3.703	-3.171	 H	1	UNK0	0.000	
33	   H	0.425	-4.306	-1.614	 H	1	UNK0	0.000	
34	   H	1.131	-2.084	-0.983	 H	1	UNK0	0.000	
35	   H	1.584	-2.267	-2.675	 H	1	UNK0	0.000	
36	   H	-1.377	-1.005	-4.007	 H	1	UNK0	0.000	
37	   H	-2.043	-0.278	-2.530	 H	1	UNK0	0.000	
38	   H	-3.198	-2.183	-2.197	 H	1	UNK0	0.000	
39	   H	-2.337	-2.979	-3.508	 H	1	UNK0	0.000	
40	   H	2.598	-0.040	-2.320	 H	1	UNK0	0.000	
41	   H	1.883	0.014	-0.684	 H	1	UNK0	0.000	
42	   H	3.820	7.097	-2.983	 H	1	UNK0	0.000	
43	   H	2.964	7.436	-0.682	 H	1	UNK0	0.000	
44	   H	2.026	5.465	0.543	 H	1	UNK0	0.000	
45	   H	1.495	-1.805	2.978	 H	1	UNK0	0.000	
46	   H	0.384	0.361	3.407	 H	1	UNK0	0.000	
47	   H	-1.778	0.823	2.258	 H	1	UNK0	0.000	
@<TRIPOS>BOND
1 1 2 2
2 1 3 2
3 1 4 1
4 1 24 1
5 4 5 1
6 4 9 1
7 5 6 1
8 6 7 1
9 7 8 1
10 7 10 1
11 8 9 1
12 10 11 2
13 10 12 1
14 12 13 1
15 13 14 1
16 13 22 1
17 14 15 2
18 14 16 1
19 16 17 1
20 16 21 2
21 17 18 2
22 18 19 1
23 19 20 2
24 20 21 1
25 21 22 1
26 22 23 2
27 24 25 2
28 24 29 1
29 25 26 1
30 25 31 1
31 26 27 2
32 27 28 1
33 28 29 2
34 29 30 1
35 5 32 1
36 5 33 1
37 6 34 1
38 6 35 1
39 8 36 1
40 8 37 1
41 9 38 1
42 9 39 1
43 12 40 1
44 12 41 1
45 18 42 1
46 19 43 1
47 20 44 1
48 26 45 1
49 27 46 1
50 28 47 1
@<TRIPOS>SUBSTRUCTURE
1	UNK0	1	GROUP	1 ****	UNK
