# created with PyMOL 2.3.2
@<TRIPOS>MOLECULE
2230
59 62 1                 
SMALL
USER_CHARGES
@<TRIPOS>ATOM
1	  Br	6.225	3.081	-5.033	Br	1	UNK0	0.000	
2	   C	4.738	2.611	-3.906	C.2	1	UNK0	0.000	
3	   C	4.958	2.226	-2.604	C.2	1	UNK0	0.000	
4	   C	3.869	1.898	-1.828	C.2	1	UNK0	0.000	
5	   C	2.557	1.941	-2.312	C.2	1	UNK0	0.000	
6	   C	2.342	2.323	-3.600	C.2	1	UNK0	0.000	
7	   C	3.439	2.654	-4.386	C.2	1	UNK0	0.000	
8	   C	1.522	1.600	-1.349	C.2	1	UNK0	0.000	
9	   C	0.597	0.688	-1.589	C.2	1	UNK0	0.000	
10	   C	-0.485	0.313	-0.634	C.3	1	UNK0	0.000	
11	   N	-1.451	-0.382	-1.449	N.pl3	1	UNK0	0.000	
12	   C	-0.811	-0.796	-2.682	C.2	1	UNK0	0.000	
13	   O	-1.254	-1.592	-3.554	O.2	1	UNK0	0.000	
14	   C	0.496	-0.125	-2.788	C.2	1	UNK0	0.000	
15	   O	1.327	-0.237	-3.703	O.2	1	UNK0	0.000	
16	   C	-2.842	-0.713	-1.214	C.3	1	UNK0	0.000	
17	   C	-3.818	0.264	-1.699	C.3	1	UNK0	0.000	
18	   N	-3.856	1.587	-1.224	N.4	1	UNK0	0.000	
19	   C	-3.621	1.832	0.141	C.3	1	UNK0	0.000	
20	   C	-3.003	3.114	0.559	C.3	1	UNK0	0.000	
21	   O	-2.286	3.799	-0.391	O.3	1	UNK0	0.000	
22	   C	-3.091	3.898	-1.529	C.3	1	UNK0	0.000	
23	   C	-3.130	2.501	-2.099	C.3	1	UNK0	0.000	
24	   C	-0.018	-0.542	0.481	C.2	1	UNK0	0.000	
25	   C	0.097	-0.009	1.766	C.2	1	UNK0	0.000	
26	   C	0.513	-0.720	2.856	C.2	1	UNK0	0.000	
27	   C	0.849	-2.053	2.712	C.2	1	UNK0	0.000	
28	   C	0.745	-2.605	1.457	C.2	1	UNK0	0.000	
29	   C	0.320	-1.871	0.355	C.2	1	UNK0	0.000	
30	   C	1.304	-2.830	3.902	C.3	1	UNK0	0.000	
31	   C	0.082	-3.442	4.570	C.3	1	UNK0	0.000	
32	   O	1.483	2.258	-0.093	O.2	1	UNK0	0.000	
33	   H	5.974	2.178	-2.181	 H	1	UNK0	0.000	
34	   H	4.071	1.599	-0.810	 H	1	UNK0	0.000	
35	   H	1.331	2.381	-3.979	 H	1	UNK0	0.000	
36	   H	3.272	2.959	-5.414	 H	1	UNK0	0.000	
37	   H	-0.851	1.264	-0.202	 H	1	UNK0	0.000	
38	   H	-2.897	-0.944	-0.124	 H	1	UNK0	0.000	
39	   H	-3.003	-1.725	-1.673	 H	1	UNK0	0.000	
40	   H	-3.669	0.330	-2.825	 H	1	UNK0	0.000	
41	   H	-4.835	-0.242	-1.643	 H	1	UNK0	0.000	
42	   H	-4.876	1.901	-1.407	 H	1	UNK0	0.000	
43	   H	-4.611	1.771	0.695	 H	1	UNK0	0.000	
44	   H	-3.076	0.962	0.607	 H	1	UNK0	0.000	
45	   H	-2.310	3.010	1.439	 H	1	UNK0	0.000	
46	   H	-3.780	3.846	0.944	 H	1	UNK0	0.000	
47	   H	-2.659	4.557	-2.308	 H	1	UNK0	0.000	
48	   H	-4.099	4.258	-1.229	 H	1	UNK0	0.000	
49	   H	-3.531	2.487	-3.132	 H	1	UNK0	0.000	
50	   H	-2.089	2.137	-2.156	 H	1	UNK0	0.000	
51	   H	-0.160	1.031	1.900	 H	1	UNK0	0.000	
52	   H	0.589	-0.262	3.848	 H	1	UNK0	0.000	
53	   H	0.998	-3.647	1.297	 H	1	UNK0	0.000	
54	   H	0.241	-2.319	-0.643	 H	1	UNK0	0.000	
55	   H	1.769	-2.167	4.641	 H	1	UNK0	0.000	
56	   H	1.964	-3.669	3.608	 H	1	UNK0	0.000	
57	   H	0.140	-3.381	5.691	 H	1	UNK0	0.000	
58	   H	-0.023	-4.504	4.260	 H	1	UNK0	0.000	
59	   H	-0.799	-2.829	4.288	 H	1	UNK0	0.000	
@<TRIPOS>BOND
1 1 2 1
2 2 3 2
3 2 7 1
4 3 4 1
5 4 5 2
6 5 6 1
7 5 8 1
8 6 7 2
9 8 9 2
10 8 32 1
11 9 10 1
12 9 14 1
13 10 11 1
14 10 24 1
15 11 12 1
16 11 16 1
17 12 13 2
18 12 14 1
19 14 15 2
20 16 17 1
21 17 18 1
22 18 19 1
23 18 23 1
24 19 20 1
25 20 21 1
26 21 22 1
27 22 23 1
28 24 25 2
29 24 29 1
30 25 26 1
31 26 27 2
32 27 28 1
33 27 30 1
34 28 29 2
35 30 31 1
36 3 33 1
37 4 34 1
38 6 35 1
39 7 36 1
40 10 37 1
41 16 38 1
42 16 39 1
43 17 40 1
44 17 41 1
45 18 42 1
46 19 43 1
47 19 44 1
48 20 45 1
49 20 46 1
50 22 47 1
51 22 48 1
52 23 49 1
53 23 50 1
54 25 51 1
55 26 52 1
56 28 53 1
57 29 54 1
58 30 55 1
59 30 56 1
60 31 57 1
61 31 58 1
62 31 59 1
@<TRIPOS>SUBSTRUCTURE
1	UNK0	1	GROUP	1 ****	UNK
