# created with PyMOL 2.3.2
@<TRIPOS>MOLECULE
2236
54 57 1                 
SMALL
USER_CHARGES
@<TRIPOS>ATOM
1	  Cl	-3.129	-4.789	4.332	Cl	1	UNK0	0.000	
2	   C	-2.367	-3.413	3.558	C.2	1	UNK0	0.000	
3	   C	-1.110	-2.967	3.913	C.2	1	UNK0	0.000	
4	   C	-0.507	-1.867	3.291	C.2	1	UNK0	0.000	
5	   C	-1.201	-1.217	2.294	C.2	1	UNK0	0.000	
6	   C	-2.443	-1.661	1.947	C.2	1	UNK0	0.000	
7	   C	-3.068	-2.750	2.546	C.2	1	UNK0	0.000	
8	   C	-0.631	-0.041	1.585	C.3	1	UNK0	0.000	
9	   N	0.743	-0.344	1.245	N.pl3	1	UNK0	0.000	
10	   C	0.713	-1.222	0.137	C.2	1	UNK0	0.000	
11	   O	1.551	-2.069	-0.247	O.2	1	UNK0	0.000	
12	   C	-0.551	-0.975	-0.555	C.2	1	UNK0	0.000	
13	   O	-1.013	-1.507	-1.580	O.2	1	UNK0	0.000	
14	   C	-1.222	0.068	0.207	C.2	1	UNK0	0.000	
15	   C	-2.127	0.902	-0.234	C.2	1	UNK0	0.000	
16	   O	-2.665	1.851	0.638	O.2	1	UNK0	0.000	
17	   C	-2.622	0.906	-1.604	C.2	1	UNK0	0.000	
18	   O	-2.910	-0.031	-2.437	O.3	1	UNK0	0.000	
19	   C	-3.335	0.404	-3.597	C.2	1	UNK0	0.000	
20	   C	-3.339	1.783	-3.557	C.2	1	UNK0	0.000	
21	   C	-2.888	2.102	-2.298	C.2	1	UNK0	0.000	
22	   C	-3.743	2.546	-4.648	C.2	1	UNK0	0.000	
23	   C	-4.153	1.932	-5.808	C.2	1	UNK0	0.000	
24	   C	-4.156	0.556	-5.867	C.2	1	UNK0	0.000	
25	   C	-3.751	-0.187	-4.774	C.2	1	UNK0	0.000	
26	   C	1.973	0.130	1.876	C.3	1	UNK0	0.000	
27	   C	2.469	1.411	1.241	C.3	1	UNK0	0.000	
28	   C	2.781	1.284	-0.213	C.3	1	UNK0	0.000	
29	   N	3.802	0.315	-0.506	N.4	1	UNK0	0.000	
30	   C	5.147	0.875	-0.391	C.3	1	UNK0	0.000	
31	   C	3.600	-0.145	-1.876	C.3	1	UNK0	0.000	
32	   H	-0.579	-3.478	4.688	 H	1	UNK0	0.000	
33	   H	0.483	-1.536	3.588	 H	1	UNK0	0.000	
34	   H	-2.976	-1.140	1.163	 H	1	UNK0	0.000	
35	   H	-4.059	-3.074	2.241	 H	1	UNK0	0.000	
36	   H	-0.734	0.886	2.153	 H	1	UNK0	0.000	
37	   H	-2.759	3.108	-1.901	 H	1	UNK0	0.000	
38	   H	-3.706	3.619	-4.505	 H	1	UNK0	0.000	
39	   H	-4.459	2.573	-6.629	 H	1	UNK0	0.000	
40	   H	-4.486	0.074	-6.801	 H	1	UNK0	0.000	
41	   H	-3.769	-1.259	-4.862	 H	1	UNK0	0.000	
42	   H	1.785	0.360	2.949	 H	1	UNK0	0.000	
43	   H	2.765	-0.635	1.852	 H	1	UNK0	0.000	
44	   H	3.333	1.760	1.818	 H	1	UNK0	0.000	
45	   H	1.673	2.179	1.348	 H	1	UNK0	0.000	
46	   H	1.869	0.981	-0.771	 H	1	UNK0	0.000	
47	   H	3.130	2.265	-0.570	 H	1	UNK0	0.000	
48	   H	3.793	-0.523	0.098	 H	1	UNK0	0.000	
49	   H	5.544	0.752	0.636	 H	1	UNK0	0.000	
50	   H	5.793	0.239	-1.051	 H	1	UNK0	0.000	
51	   H	5.130	1.921	-0.733	 H	1	UNK0	0.000	
52	   H	2.598	0.126	-2.258	 H	1	UNK0	0.000	
53	   H	4.356	0.314	-2.545	 H	1	UNK0	0.000	
54	   H	3.748	-1.249	-1.964	 H	1	UNK0	0.000	
@<TRIPOS>BOND
1 1 2 1
2 2 3 2
3 2 7 1
4 3 4 1
5 4 5 2
6 5 6 1
7 5 8 1
8 6 7 2
9 8 9 1
10 8 14 1
11 9 10 1
12 9 26 1
13 10 11 2
14 10 12 1
15 12 13 2
16 12 14 1
17 14 15 2
18 15 16 1
19 15 17 1
20 17 18 1
21 17 21 2
22 18 19 1
23 19 20 2
24 19 25 1
25 20 21 1
26 20 22 1
27 22 23 2
28 23 24 1
29 24 25 2
30 26 27 1
31 27 28 1
32 28 29 1
33 29 30 1
34 29 31 1
35 3 32 1
36 4 33 1
37 6 34 1
38 7 35 1
39 8 36 1
40 21 37 1
41 22 38 1
42 23 39 1
43 24 40 1
44 25 41 1
45 26 42 1
46 26 43 1
47 27 44 1
48 27 45 1
49 28 46 1
50 28 47 1
51 29 48 1
52 30 49 1
53 30 50 1
54 30 51 1
55 31 52 1
56 31 53 1
57 31 54 1
@<TRIPOS>SUBSTRUCTURE
1	UNK0	1	GROUP	1 ****	UNK
