# created with PyMOL 2.3.2
@<TRIPOS>MOLECULE
2237
46 49 1                 
SMALL
USER_CHARGES
@<TRIPOS>ATOM
1	   S	-2.641	-2.290	0.458	S.O2	1	UNK0	0.000	
2	   O	-2.834	-2.851	1.862	O.2	1	UNK0	0.000	
3	   O	-2.875	-3.485	-0.459	O.2	1	UNK0	0.000	
4	   N	-1.048	-1.812	0.298	N.3	1	UNK0	0.000	
5	   C	-0.533	-0.797	1.119	C.3	1	UNK0	0.000	
6	   C	0.420	0.150	0.422	C.3	1	UNK0	0.000	
7	   C	0.909	-0.360	-0.899	C.3	1	UNK0	0.000	
8	   C	1.107	-1.873	-0.861	C.3	1	UNK0	0.000	
9	   C	-0.166	-2.593	-0.473	C.3	1	UNK0	0.000	
10	   N	2.197	0.202	-1.252	N.pl3	1	UNK0	0.000	
11	   C	2.527	0.888	-2.459	C.3	1	UNK0	0.000	
12	   C	3.870	1.460	-2.201	C.2	1	UNK0	0.000	
13	   O	4.451	2.301	-2.959	O.2	1	UNK0	0.000	
14	   N	4.371	0.911	-0.989	N.pl3	1	UNK0	0.000	
15	   C	3.340	0.134	-0.401	C.2	1	UNK0	0.000	
16	   O	3.447	-0.502	0.696	O.2	1	UNK0	0.000	
17	   C	5.705	1.112	-0.448	C.3	1	UNK0	0.000	
18	   C	6.336	-0.038	0.332	C.3	1	UNK0	0.000	
19	   C	5.903	1.208	1.029	C.3	1	UNK0	0.000	
20	   C	-3.821	-1.073	0.146	C.2	1	UNK0	0.000	
21	   C	-5.165	-1.340	0.257	C.2	1	UNK0	0.000	
22	   C	-6.130	-0.383	0.010	C.2	1	UNK0	0.000	
23	   C	-5.705	0.883	-0.361	C.2	1	UNK0	0.000	
24	   C	-4.362	1.161	-0.476	C.2	1	UNK0	0.000	
25	   C	-3.432	0.190	-0.224	C.2	1	UNK0	0.000	
26	  Cl	-5.752	-2.939	0.727	Cl	1	UNK0	0.000	
27	   H	0.089	-1.299	1.921	 H	1	UNK0	0.000	
28	   H	-1.337	-0.298	1.667	 H	1	UNK0	0.000	
29	   H	-0.131	1.117	0.227	 H	1	UNK0	0.000	
30	   H	1.256	0.433	1.093	 H	1	UNK0	0.000	
31	   H	0.213	-0.168	-1.727	 H	1	UNK0	0.000	
32	   H	1.356	-2.194	-1.893	 H	1	UNK0	0.000	
33	   H	1.960	-2.141	-0.192	 H	1	UNK0	0.000	
34	   H	-0.697	-3.011	-1.367	 H	1	UNK0	0.000	
35	   H	0.147	-3.488	0.125	 H	1	UNK0	0.000	
36	   H	1.829	1.771	-2.536	 H	1	UNK0	0.000	
37	   H	2.488	0.266	-3.371	 H	1	UNK0	0.000	
38	   H	6.386	1.752	-1.041	 H	1	UNK0	0.000	
39	   H	7.442	-0.172	0.174	 H	1	UNK0	0.000	
40	   H	5.720	-0.967	0.396	 H	1	UNK0	0.000	
41	   H	6.720	1.854	1.422	 H	1	UNK0	0.000	
42	   H	4.999	1.099	1.674	 H	1	UNK0	0.000	
43	   H	-7.200	-0.589	0.096	 H	1	UNK0	0.000	
44	   H	-6.452	1.662	-0.564	 H	1	UNK0	0.000	
45	   H	-4.070	2.174	-0.772	 H	1	UNK0	0.000	
46	   H	-2.389	0.470	-0.333	 H	1	UNK0	0.000	
@<TRIPOS>BOND
1 1 2 2
2 1 3 2
3 1 4 1
4 1 20 1
5 4 5 1
6 4 9 1
7 5 6 1
8 6 7 1
9 7 8 1
10 7 10 1
11 8 9 1
12 10 11 1
13 10 15 1
14 11 12 1
15 12 13 2
16 12 14 1
17 14 15 1
18 14 17 1
19 15 16 2
20 17 18 1
21 17 19 1
22 18 19 1
23 20 21 2
24 20 25 1
25 21 22 1
26 21 26 1
27 22 23 2
28 23 24 1
29 24 25 2
30 5 27 1
31 5 28 1
32 6 29 1
33 6 30 1
34 7 31 1
35 8 32 1
36 8 33 1
37 9 34 1
38 9 35 1
39 11 36 1
40 11 37 1
41 17 38 1
42 18 39 1
43 18 40 1
44 19 41 1
45 19 42 1
46 22 43 1
47 23 44 1
48 24 45 1
49 25 46 1
@<TRIPOS>SUBSTRUCTURE
1	UNK0	1	GROUP	1 ****	UNK
