# created with PyMOL 2.3.2
@<TRIPOS>MOLECULE
2238
59 62 1                 
SMALL
USER_CHARGES
@<TRIPOS>ATOM
1	   S	-3.833	-2.112	-0.743	S.O2	1	UNK0	0.000	
2	   O	-4.725	-2.932	-1.610	O.2	1	UNK0	0.000	
3	   O	-4.419	-2.217	0.668	O.2	1	UNK0	0.000	
4	   N	-2.261	-2.712	-0.677	N.3	1	UNK0	0.000	
5	   C	-1.483	-2.624	-1.849	C.3	1	UNK0	0.000	
6	   C	-0.456	-1.523	-1.826	C.3	1	UNK0	0.000	
7	   C	-0.262	-0.835	-0.507	C.3	1	UNK0	0.000	
8	   C	-1.100	-1.166	0.644	C.3	1	UNK0	0.000	
9	   C	-1.604	-2.576	0.562	C.3	1	UNK0	0.000	
10	   C	0.904	-2.111	-2.087	C.2	1	UNK0	0.000	
11	   O	0.998	-3.376	-2.188	O.2	1	UNK0	0.000	
12	   N	2.051	-1.260	-2.190	N.pl3	1	UNK0	0.000	
13	   C	2.059	0.152	-2.371	C.3	1	UNK0	0.000	
14	   C	2.902	0.960	-1.387	C.3	1	UNK0	0.000	
15	   N	3.534	0.115	-0.516	N.3	1	UNK0	0.000	
16	   C	4.223	-1.046	-1.045	C.3	1	UNK0	0.000	
17	   C	3.372	-1.888	-1.932	C.3	1	UNK0	0.000	
18	   C	3.838	0.373	0.830	C.3	1	UNK0	0.000	
19	   C	2.822	1.071	1.641	C.2	1	UNK0	0.000	
20	   C	2.156	0.342	2.635	C.2	1	UNK0	0.000	
21	   C	1.349	0.933	3.540	C.2	1	UNK0	0.000	
22	   C	1.157	2.300	3.508	C.2	1	UNK0	0.000	
23	   C	1.783	3.068	2.551	C.2	1	UNK0	0.000	
24	   C	2.607	2.451	1.625	C.2	1	UNK0	0.000	
25	  Cl	2.330	-1.421	2.622	Cl	1	UNK0	0.000	
26	   C	-3.839	-0.417	-1.158	C.2	1	UNK0	0.000	
27	   C	-3.665	-0.016	-2.490	C.2	1	UNK0	0.000	
28	   N	-3.678	1.326	-2.469	N.pl3	1	UNK0	0.000	
29	   N	-3.840	1.760	-1.241	N.2	1	UNK0	0.000	
30	   C	-3.940	0.707	-0.412	C.2	1	UNK0	0.000	
31	   C	-3.503	2.140	-3.681	C.3	1	UNK0	0.000	
32	   H	-2.164	-2.516	-2.714	 H	1	UNK0	0.000	
33	   H	-0.964	-3.600	-1.990	 H	1	UNK0	0.000	
34	   H	-0.667	-0.811	-2.615	 H	1	UNK0	0.000	
35	   H	-0.218	0.273	-0.645	 H	1	UNK0	0.000	
36	   H	0.822	-1.061	-0.165	 H	1	UNK0	0.000	
37	   H	-0.441	-1.182	1.590	 H	1	UNK0	0.000	
38	   H	-1.841	-0.403	0.885	 H	1	UNK0	0.000	
39	   H	-2.265	-2.820	1.390	 H	1	UNK0	0.000	
40	   H	-0.679	-3.223	0.636	 H	1	UNK0	0.000	
41	   H	1.073	0.604	-2.548	 H	1	UNK0	0.000	
42	   H	2.608	0.313	-3.373	 H	1	UNK0	0.000	
43	   H	2.130	1.571	-0.826	 H	1	UNK0	0.000	
44	   H	3.511	1.708	-1.929	 H	1	UNK0	0.000	
45	   H	5.230	-0.856	-1.416	 H	1	UNK0	0.000	
46	   H	4.400	-1.675	-0.106	 H	1	UNK0	0.000	
47	   H	3.112	-2.880	-1.439	 H	1	UNK0	0.000	
48	   H	3.885	-2.147	-2.859	 H	1	UNK0	0.000	
49	   H	4.155	-0.534	1.370	 H	1	UNK0	0.000	
50	   H	4.809	1.020	0.906	 H	1	UNK0	0.000	
51	   H	0.840	0.332	4.310	 H	1	UNK0	0.000	
52	   H	0.494	2.743	4.268	 H	1	UNK0	0.000	
53	   H	1.600	4.155	2.523	 H	1	UNK0	0.000	
54	   H	3.097	3.083	0.900	 H	1	UNK0	0.000	
55	   H	-3.550	-0.674	-3.357	 H	1	UNK0	0.000	
56	   H	-4.065	0.761	0.646	 H	1	UNK0	0.000	
57	   H	-4.073	1.639	-4.482	 H	1	UNK0	0.000	
58	   H	-2.408	2.159	-3.919	 H	1	UNK0	0.000	
59	   H	-3.892	3.154	-3.552	 H	1	UNK0	0.000	
@<TRIPOS>BOND
1 1 2 2
2 1 3 2
3 1 4 1
4 1 26 1
5 4 5 1
6 4 9 1
7 5 6 1
8 6 7 1
9 6 10 1
10 7 8 1
11 8 9 1
12 10 11 2
13 10 12 1
14 12 13 1
15 12 17 1
16 13 14 1
17 14 15 1
18 15 16 1
19 15 18 1
20 16 17 1
21 18 19 1
22 19 20 2
23 19 24 1
24 20 21 1
25 20 25 1
26 21 22 2
27 22 23 1
28 23 24 2
29 26 27 2
30 26 30 1
31 27 28 1
32 28 29 1
33 28 31 1
34 29 30 2
35 5 32 1
36 5 33 1
37 6 34 1
38 7 35 1
39 7 36 1
40 8 37 1
41 8 38 1
42 9 39 1
43 9 40 1
44 13 41 1
45 13 42 1
46 14 43 1
47 14 44 1
48 16 45 1
49 16 46 1
50 17 47 1
51 17 48 1
52 18 49 1
53 18 50 1
54 21 51 1
55 22 52 1
56 23 53 1
57 24 54 1
58 27 55 1
59 30 56 1
60 31 57 1
61 31 58 1
62 31 59 1
@<TRIPOS>SUBSTRUCTURE
1	UNK0	1	GROUP	1 ****	UNK
