# created with PyMOL 2.3.2
@<TRIPOS>MOLECULE
2239
58 61 1                 
SMALL
USER_CHARGES
@<TRIPOS>ATOM
1	  Cl	6.865	1.527	1.847	Cl	1	UNK0	0.000	
2	   C	5.768	0.150	2.008	C.2	1	UNK0	0.000	
3	   C	6.165	-1.101	1.624	C.2	1	UNK0	0.000	
4	   C	5.312	-2.162	1.750	C.2	1	UNK0	0.000	
5	   C	4.033	-1.957	2.275	C.2	1	UNK0	0.000	
6	   C	3.583	-0.722	2.676	C.2	1	UNK0	0.000	
7	   C	4.507	0.318	2.518	C.2	1	UNK0	0.000	
8	   C	2.268	-0.457	3.224	C.2	1	UNK0	0.000	
9	   C	1.386	-1.407	3.370	C.2	1	UNK0	0.000	
10	   N	1.923	0.864	3.610	N.pl3	1	UNK0	0.000	
11	   N	0.704	1.454	3.261	N.pl3	1	UNK0	0.000	
12	   C	0.213	1.310	1.914	C.2	1	UNK0	0.000	
13	   O	0.906	0.655	1.102	O.2	1	UNK0	0.000	
14	   C	-1.041	1.899	1.500	C.2	1	UNK0	0.000	
15	   N	-1.865	2.640	2.244	N.2	1	UNK0	0.000	
16	   N	-2.914	3.013	1.569	N.2	1	UNK0	0.000	
17	   N	-2.786	2.501	0.322	N.pl3	1	UNK0	0.000	
18	   C	-1.653	1.812	0.241	C.2	1	UNK0	0.000	
19	   C	-1.066	1.113	-0.883	C.3	1	UNK0	0.000	
20	   N	-1.766	1.014	-2.100	N.3	1	UNK0	0.000	
21	   C	-2.923	0.181	-2.045	C.3	1	UNK0	0.000	
22	   C	-2.789	-1.108	-2.827	C.3	1	UNK0	0.000	
23	   N	-1.501	-1.667	-2.892	N.3	1	UNK0	0.000	
24	   C	-0.397	-0.769	-3.063	C.3	1	UNK0	0.000	
25	   C	-0.843	0.671	-3.153	C.3	1	UNK0	0.000	
26	   C	-1.390	-2.895	-3.609	C.3	1	UNK0	0.000	
27	   C	-1.618	-2.771	-5.090	C.3	1	UNK0	0.000	
28	   C	-3.792	2.772	-0.652	C.2	1	UNK0	0.000	
29	   N	-5.062	2.357	-0.651	N.2	1	UNK0	0.000	
30	   O	-5.679	2.815	-1.708	O.3	1	UNK0	0.000	
31	   N	-4.848	3.525	-2.411	N.2	1	UNK0	0.000	
32	   C	-3.629	3.532	-1.784	C.2	1	UNK0	0.000	
33	   N	-2.491	4.211	-2.271	N.pl3	1	UNK0	0.000	
34	  Cl	7.774	-1.346	0.967	Cl	1	UNK0	0.000	
35	   H	5.579	-3.163	1.463	 H	1	UNK0	0.000	
36	   H	3.380	-2.821	2.363	 H	1	UNK0	0.000	
37	   H	4.168	1.307	2.832	 H	1	UNK0	0.000	
38	   H	1.609	-2.421	3.087	 H	1	UNK0	0.000	
39	   H	0.387	-1.217	3.785	 H	1	UNK0	0.000	
40	   H	2.593	1.413	4.169	 H	1	UNK0	0.000	
41	   H	0.176	1.985	3.990	 H	1	UNK0	0.000	
42	   H	-0.739	0.064	-0.570	 H	1	UNK0	0.000	
43	   H	-0.053	1.574	-1.146	 H	1	UNK0	0.000	
44	   H	-3.754	0.728	-2.581	 H	1	UNK0	0.000	
45	   H	-3.318	-0.018	-1.026	 H	1	UNK0	0.000	
46	   H	-3.197	-1.027	-3.870	 H	1	UNK0	0.000	
47	   H	-3.469	-1.855	-2.316	 H	1	UNK0	0.000	
48	   H	0.234	-0.838	-2.132	 H	1	UNK0	0.000	
49	   H	0.225	-1.104	-3.895	 H	1	UNK0	0.000	
50	   H	-0.002	1.363	-3.140	 H	1	UNK0	0.000	
51	   H	-1.378	0.781	-4.117	 H	1	UNK0	0.000	
52	   H	-0.405	-3.359	-3.455	 H	1	UNK0	0.000	
53	   H	-2.150	-3.597	-3.208	 H	1	UNK0	0.000	
54	   H	-2.240	-3.590	-5.508	 H	1	UNK0	0.000	
55	   H	-0.637	-2.822	-5.646	 H	1	UNK0	0.000	
56	   H	-2.084	-1.821	-5.393	 H	1	UNK0	0.000	
57	   H	-2.591	5.168	-2.653	 H	1	UNK0	0.000	
58	   H	-1.561	3.770	-2.252	 H	1	UNK0	0.000	
@<TRIPOS>BOND
1 1 2 1
2 2 3 2
3 2 7 1
4 3 4 1
5 3 34 1
6 4 5 2
7 5 6 1
8 6 7 2
9 6 8 1
10 8 9 2
11 8 10 1
12 10 11 1
13 11 12 1
14 12 13 2
15 12 14 1
16 14 15 1
17 14 18 2
18 15 16 2
19 16 17 1
20 17 18 1
21 17 28 1
22 18 19 1
23 19 20 1
24 20 21 1
25 20 25 1
26 21 22 1
27 22 23 1
28 23 24 1
29 23 26 1
30 24 25 1
31 26 27 1
32 28 29 2
33 28 32 1
34 29 30 1
35 30 31 1
36 31 32 2
37 32 33 1
38 4 35 1
39 5 36 1
40 7 37 1
41 9 38 1
42 9 39 1
43 10 40 1
44 11 41 1
45 19 42 1
46 19 43 1
47 21 44 1
48 21 45 1
49 22 46 1
50 22 47 1
51 24 48 1
52 24 49 1
53 25 50 1
54 25 51 1
55 26 52 1
56 26 53 1
57 27 54 1
58 27 55 1
59 27 56 1
60 33 57 1
61 33 58 1
@<TRIPOS>SUBSTRUCTURE
1	UNK0	1	GROUP	1 ****	UNK
