# created with PyMOL 2.3.2
@<TRIPOS>MOLECULE
2240
46 50 1                 
SMALL
USER_CHARGES
@<TRIPOS>ATOM
1	  Cl	3.024	-2.186	-5.142	Cl	1	UNK0	0.000	
2	   C	2.967	-0.761	-4.113	C.2	1	UNK0	0.000	
3	   C	1.794	-0.527	-3.402	C.2	1	UNK0	0.000	
4	   C	1.664	0.563	-2.574	C.2	1	UNK0	0.000	
5	   C	2.746	1.413	-2.479	C.2	1	UNK0	0.000	
6	   C	3.915	1.188	-3.181	C.2	1	UNK0	0.000	
7	   C	4.021	0.097	-3.999	C.2	1	UNK0	0.000	
8	   C	2.702	2.610	-1.616	C.2	1	UNK0	0.000	
9	   N	3.556	3.532	-1.364	N.2	1	UNK0	0.000	
10	   C	3.037	4.496	-0.443	C.3	1	UNK0	0.000	
11	   C	1.660	4.020	-0.138	C.3	1	UNK0	0.000	
12	   N	1.504	2.824	-0.908	N.pl3	1	UNK0	0.000	
13	   C	0.383	1.913	-1.028	C.2	1	UNK0	0.000	
14	   N	-0.842	1.894	-0.471	N.2	1	UNK0	0.000	
15	   N	-1.520	0.859	-0.884	N.pl3	1	UNK0	0.000	
16	   C	-0.699	0.194	-1.735	C.2	1	UNK0	0.000	
17	   O	-0.998	-0.878	-2.351	O.2	1	UNK0	0.000	
18	   N	0.484	0.840	-1.830	N.pl3	1	UNK0	0.000	
19	   C	-2.856	0.408	-0.581	C.3	1	UNK0	0.000	
20	   C	-2.930	-0.496	0.563	C.2	1	UNK0	0.000	
21	   O	-4.049	-0.946	0.910	O.2	1	UNK0	0.000	
22	   N	-1.806	-0.907	1.324	N.pl3	1	UNK0	0.000	
23	   C	-1.924	-1.804	2.451	C.3	1	UNK0	0.000	
24	   C	-0.986	-2.954	2.298	C.3	1	UNK0	0.000	
25	   C	-0.189	-3.088	3.557	C.3	1	UNK0	0.000	
26	   C	-0.800	-2.138	4.563	C.3	1	UNK0	0.000	
27	   C	-1.359	-1.058	3.657	C.3	1	UNK0	0.000	
28	   H	0.978	-1.206	-3.500	 H	1	UNK0	0.000	
29	   H	4.739	1.878	-3.078	 H	1	UNK0	0.000	
30	   H	4.929	-0.121	-4.575	 H	1	UNK0	0.000	
31	   H	3.681	4.419	0.473	 H	1	UNK0	0.000	
32	   H	3.063	5.537	-0.848	 H	1	UNK0	0.000	
33	   H	0.963	4.835	-0.483	 H	1	UNK0	0.000	
34	   H	1.487	3.852	0.952	 H	1	UNK0	0.000	
35	   H	-3.314	-0.078	-1.464	 H	1	UNK0	0.000	
36	   H	-3.469	1.311	-0.371	 H	1	UNK0	0.000	
37	   H	-0.848	-0.569	1.088	 H	1	UNK0	0.000	
38	   H	-2.967	-2.117	2.637	 H	1	UNK0	0.000	
39	   H	-1.586	-3.893	2.127	 H	1	UNK0	0.000	
40	   H	-0.328	-2.813	1.427	 H	1	UNK0	0.000	
41	   H	-0.186	-4.107	3.979	 H	1	UNK0	0.000	
42	   H	0.873	-2.779	3.389	 H	1	UNK0	0.000	
43	   H	-0.023	-1.706	5.228	 H	1	UNK0	0.000	
44	   H	-1.575	-2.597	5.174	 H	1	UNK0	0.000	
45	   H	-2.112	-0.430	4.139	 H	1	UNK0	0.000	
46	   H	-0.485	-0.491	3.274	 H	1	UNK0	0.000	
@<TRIPOS>BOND
1 1 2 1
2 2 3 2
3 2 7 1
4 3 4 1
5 4 5 2
6 4 18 1
7 5 6 1
8 5 8 1
9 6 7 2
10 8 9 2
11 8 12 1
12 9 10 1
13 10 11 1
14 11 12 1
15 12 13 1
16 13 14 2
17 13 18 1
18 14 15 1
19 15 16 1
20 15 19 1
21 16 17 2
22 16 18 1
23 19 20 1
24 20 21 2
25 20 22 1
26 22 23 1
27 23 24 1
28 23 27 1
29 24 25 1
30 25 26 1
31 26 27 1
32 3 28 1
33 6 29 1
34 7 30 1
35 10 31 1
36 10 32 1
37 11 33 1
38 11 34 1
39 19 35 1
40 19 36 1
41 22 37 1
42 23 38 1
43 24 39 1
44 24 40 1
45 25 41 1
46 25 42 1
47 26 43 1
48 26 44 1
49 27 45 1
50 27 46 1
@<TRIPOS>SUBSTRUCTURE
1	UNK0	1	GROUP	1 ****	UNK
