# created with PyMOL 2.3.2
@<TRIPOS>MOLECULE
2241
45 48 1                 
SMALL
USER_CHARGES
@<TRIPOS>ATOM
1	  Cl	-2.500	1.371	3.110	Cl	1	UNK0	0.000	
2	   C	-2.624	2.546	1.796	C.2	1	UNK0	0.000	
3	   C	-2.483	2.112	0.484	C.2	1	UNK0	0.000	
4	   N	-2.256	0.802	0.260	N.2	1	UNK0	0.000	
5	   C	-2.123	0.401	-1.018	C.2	1	UNK0	0.000	
6	   C	-2.216	1.301	-2.055	C.2	1	UNK0	0.000	
7	   C	-2.448	2.640	-1.828	C.2	1	UNK0	0.000	
8	   C	-2.584	3.049	-0.517	C.2	1	UNK0	0.000	
9	   C	-2.817	4.373	-0.232	C.2	1	UNK0	0.000	
10	   C	-2.949	4.758	1.079	C.2	1	UNK0	0.000	
11	   C	-2.858	3.866	2.116	C.2	1	UNK0	0.000	
12	   C	-1.870	-1.029	-1.343	C.3	1	UNK0	0.000	
13	   N	-0.466	-1.263	-1.394	N.3	1	UNK0	0.000	
14	   C	0.231	-0.988	-0.180	C.3	1	UNK0	0.000	
15	   C	1.169	-2.154	0.114	C.3	1	UNK0	0.000	
16	   N	2.115	-2.313	-0.958	N.3	1	UNK0	0.000	
17	   C	1.450	-2.412	-2.221	C.3	1	UNK0	0.000	
18	   C	-0.067	-2.453	-2.071	C.3	1	UNK0	0.000	
19	   C	1.829	-2.010	1.419	C.2	1	UNK0	0.000	
20	   O	3.097	-2.031	1.536	O.2	1	UNK0	0.000	
21	   N	1.076	-1.845	2.583	N.pl3	1	UNK0	0.000	
22	   C	1.631	-1.696	3.911	C.3	1	UNK0	0.000	
23	   C	0.895	-2.076	5.118	C.3	1	UNK0	0.000	
24	   C	0.937	-0.625	4.742	C.3	1	UNK0	0.000	
25	   H	-2.110	0.996	-3.099	 H	1	UNK0	0.000	
26	   H	-2.527	3.372	-2.599	 H	1	UNK0	0.000	
27	   H	-2.887	5.068	-1.060	 H	1	UNK0	0.000	
28	   H	-3.133	5.811	1.277	 H	1	UNK0	0.000	
29	   H	-2.970	4.219	3.138	 H	1	UNK0	0.000	
30	   H	-2.312	-1.223	-2.337	 H	1	UNK0	0.000	
31	   H	-2.410	-1.672	-0.622	 H	1	UNK0	0.000	
32	   H	-0.436	-0.844	0.703	 H	1	UNK0	0.000	
33	   H	0.831	-0.061	-0.317	 H	1	UNK0	0.000	
34	   H	0.544	-3.060	0.147	 H	1	UNK0	0.000	
35	   H	2.865	-1.583	-0.941	 H	1	UNK0	0.000	
36	   H	1.653	-1.485	-2.834	 H	1	UNK0	0.000	
37	   H	1.796	-3.303	-2.760	 H	1	UNK0	0.000	
38	   H	-0.470	-2.400	-3.118	 H	1	UNK0	0.000	
39	   H	-0.426	-3.388	-1.647	 H	1	UNK0	0.000	
40	   H	0.035	-1.823	2.526	 H	1	UNK0	0.000	
41	   H	2.742	-1.726	3.919	 H	1	UNK0	0.000	
42	   H	1.528	-2.321	6.013	 H	1	UNK0	0.000	
43	   H	-0.048	-2.634	5.112	 H	1	UNK0	0.000	
44	   H	1.633	0.057	5.272	 H	1	UNK0	0.000	
45	   H	0.046	-0.129	4.334	 H	1	UNK0	0.000	
@<TRIPOS>BOND
1 1 2 1
2 2 3 2
3 2 11 1
4 3 4 1
5 3 8 1
6 4 5 2
7 5 6 1
8 5 12 1
9 6 7 2
10 7 8 1
11 8 9 2
12 9 10 1
13 10 11 2
14 12 13 1
15 13 14 1
16 13 18 1
17 14 15 1
18 15 16 1
19 15 19 1
20 16 17 1
21 17 18 1
22 19 20 2
23 19 21 1
24 21 22 1
25 22 23 1
26 22 24 1
27 23 24 1
28 6 25 1
29 7 26 1
30 9 27 1
31 10 28 1
32 11 29 1
33 12 30 1
34 12 31 1
35 14 32 1
36 14 33 1
37 15 34 1
38 16 35 1
39 17 36 1
40 17 37 1
41 18 38 1
42 18 39 1
43 21 40 1
44 22 41 1
45 23 42 1
46 23 43 1
47 24 44 1
48 24 45 1
@<TRIPOS>SUBSTRUCTURE
1	UNK0	1	GROUP	1 ****	UNK
