# created with PyMOL 2.3.2
@<TRIPOS>MOLECULE
2243
55 58 1                 
SMALL
USER_CHARGES
@<TRIPOS>ATOM
1	   S	-0.116	-3.525	4.425	S.O2	1	UNK0	0.000	
2	   O	-1.140	-3.379	5.541	O.2	1	UNK0	0.000	
3	   O	-0.053	-4.995	4.114	O.2	1	UNK0	0.000	
4	   N	1.422	-3.021	4.934	N.3	1	UNK0	0.000	
5	   C	1.394	-1.637	5.295	C.3	1	UNK0	0.000	
6	   C	2.333	-0.806	4.439	C.3	1	UNK0	0.000	
7	   N	2.289	-1.289	3.073	N.pl3	1	UNK0	0.000	
8	   C	2.636	-2.661	2.838	C.3	1	UNK0	0.000	
9	   C	2.521	-3.413	4.136	C.3	1	UNK0	0.000	
10	   C	1.924	-0.471	1.977	C.2	1	UNK0	0.000	
11	   O	1.613	0.746	2.124	O.2	1	UNK0	0.000	
12	   C	1.916	-1.084	0.628	C.3	1	UNK0	0.000	
13	   C	1.513	-0.041	-0.391	C.3	1	UNK0	0.000	
14	   C	1.489	-0.613	-1.763	C.2	1	UNK0	0.000	
15	   O	1.787	-1.824	-1.881	O.2	1	UNK0	0.000	
16	   N	1.145	0.160	-2.906	N.pl3	1	UNK0	0.000	
17	   C	1.146	-0.484	-4.202	C.3	1	UNK0	0.000	
18	   C	0.987	0.505	-5.336	C.3	1	UNK0	0.000	
19	   C	-0.223	1.300	-5.044	C.2	1	UNK0	0.000	
20	   N	-1.302	1.645	-5.753	N.pl3	1	UNK0	0.000	
21	   C	-2.132	2.401	-4.990	C.2	1	UNK0	0.000	
22	   C	-1.519	2.519	-3.752	C.2	1	UNK0	0.000	
23	   C	-0.326	1.835	-3.776	C.2	1	UNK0	0.000	
24	   C	0.797	1.553	-2.835	C.3	1	UNK0	0.000	
25	   C	-2.086	3.231	-2.716	C.2	1	UNK0	0.000	
26	   C	-3.299	3.839	-2.927	C.2	1	UNK0	0.000	
27	   C	-3.907	3.722	-4.153	C.2	1	UNK0	0.000	
28	   C	-3.352	3.011	-5.208	C.2	1	UNK0	0.000	
29	  Cl	-4.080	4.761	-1.648	Cl	1	UNK0	0.000	
30	   C	-0.739	-2.694	3.006	C.3	1	UNK0	0.000	
31	   H	0.356	-1.227	5.281	 H	1	UNK0	0.000	
32	   H	1.750	-1.546	6.343	 H	1	UNK0	0.000	
33	   H	3.349	-0.752	4.844	 H	1	UNK0	0.000	
34	   H	1.913	0.224	4.426	 H	1	UNK0	0.000	
35	   H	3.659	-2.762	2.410	 H	1	UNK0	0.000	
36	   H	1.895	-3.107	2.136	 H	1	UNK0	0.000	
37	   H	3.454	-3.142	4.716	 H	1	UNK0	0.000	
38	   H	2.592	-4.508	3.964	 H	1	UNK0	0.000	
39	   H	2.868	-1.575	0.377	 H	1	UNK0	0.000	
40	   H	1.099	-1.861	0.619	 H	1	UNK0	0.000	
41	   H	2.322	0.747	-0.353	 H	1	UNK0	0.000	
42	   H	0.571	0.422	-0.105	 H	1	UNK0	0.000	
43	   H	2.026	-1.145	-4.339	 H	1	UNK0	0.000	
44	   H	0.205	-1.110	-4.222	 H	1	UNK0	0.000	
45	   H	1.850	1.227	-5.323	 H	1	UNK0	0.000	
46	   H	0.928	-0.043	-6.286	 H	1	UNK0	0.000	
47	   H	-1.536	1.398	-6.760	 H	1	UNK0	0.000	
48	   H	1.670	2.151	-3.227	 H	1	UNK0	0.000	
49	   H	0.547	1.913	-1.843	 H	1	UNK0	0.000	
50	   H	-1.574	3.299	-1.763	 H	1	UNK0	0.000	
51	   H	-4.877	4.194	-4.358	 H	1	UNK0	0.000	
52	   H	-3.836	2.924	-6.171	 H	1	UNK0	0.000	
53	   H	-1.867	-2.745	3.059	 H	1	UNK0	0.000	
54	   H	-0.492	-3.170	2.046	 H	1	UNK0	0.000	
55	   H	-0.524	-1.600	3.033	 H	1	UNK0	0.000	
@<TRIPOS>BOND
1 1 2 2
2 1 3 2
3 1 4 1
4 1 30 1
5 4 5 1
6 4 9 1
7 5 6 1
8 6 7 1
9 7 8 1
10 7 10 1
11 8 9 1
12 10 11 2
13 10 12 1
14 12 13 1
15 13 14 1
16 14 15 2
17 14 16 1
18 16 17 1
19 16 24 1
20 17 18 1
21 18 19 1
22 19 20 1
23 19 23 2
24 20 21 1
25 21 22 2
26 21 28 1
27 22 23 1
28 22 25 1
29 23 24 1
30 25 26 2
31 26 27 1
32 26 29 1
33 27 28 2
34 5 31 1
35 5 32 1
36 6 33 1
37 6 34 1
38 8 35 1
39 8 36 1
40 9 37 1
41 9 38 1
42 12 39 1
43 12 40 1
44 13 41 1
45 13 42 1
46 17 43 1
47 17 44 1
48 18 45 1
49 18 46 1
50 20 47 1
51 24 48 1
52 24 49 1
53 25 50 1
54 27 51 1
55 28 52 1
56 30 53 1
57 30 54 1
58 30 55 1
@<TRIPOS>SUBSTRUCTURE
1	UNK0	1	GROUP	1 ****	UNK
