# created with PyMOL 2.3.2
@<TRIPOS>MOLECULE
2244
49 52 1                 
SMALL
USER_CHARGES
@<TRIPOS>ATOM
1	  Cl	2.206	-1.420	-0.831	Cl	1	UNK0	0.000	
2	   C	0.682	-0.589	-0.491	C.2	1	UNK0	0.000	
3	   C	-0.474	-1.337	-0.568	C.2	1	UNK0	0.000	
4	   C	-1.681	-0.736	-0.312	C.2	1	UNK0	0.000	
5	   C	-1.748	0.615	0.022	C.2	1	UNK0	0.000	
6	   C	-0.580	1.311	0.085	C.2	1	UNK0	0.000	
7	   C	0.699	0.763	-0.164	C.2	1	UNK0	0.000	
8	   O	1.785	1.565	-0.068	O.3	1	UNK0	0.000	
9	   C	3.119	1.532	-0.197	C.3	1	UNK0	0.000	
10	   O	3.713	1.795	1.046	O.3	1	UNK0	0.000	
11	   C	4.191	3.065	1.183	C.3	1	UNK0	0.000	
12	   C	3.236	4.037	0.525	C.3	1	UNK0	0.000	
13	   C	3.451	3.900	-0.967	C.3	1	UNK0	0.000	
14	   C	3.683	2.459	-1.267	C.3	1	UNK0	0.000	
15	   O	5.030	2.133	-1.414	O.3	1	UNK0	0.000	
16	   O	2.428	4.470	-1.702	O.3	1	UNK0	0.000	
17	   O	3.468	5.347	0.947	O.3	1	UNK0	0.000	
18	   C	4.385	3.390	2.650	C.3	1	UNK0	0.000	
19	   O	4.876	4.710	2.691	O.3	1	UNK0	0.000	
20	   O	-2.921	1.199	0.271	O.3	1	UNK0	0.000	
21	   C	-4.048	0.542	0.213	C.2	1	UNK0	0.000	
22	   O	-5.167	1.112	0.453	O.co2	1	UNK0	0.000	
23	   C	-4.099	-0.794	-0.106	C.2	1	UNK0	0.000	
24	   C	-2.873	-1.421	-0.370	C.2	1	UNK0	0.000	
25	   C	-2.952	-2.839	-0.706	C.3	1	UNK0	0.000	
26	   C	-3.990	-2.984	-1.800	C.3	1	UNK0	0.000	
27	   C	-5.303	-2.386	-1.453	C.3	1	UNK0	0.000	
28	   C	-5.348	-1.596	-0.189	C.3	1	UNK0	0.000	
29	   H	-0.419	-2.366	-0.823	 H	1	UNK0	0.000	
30	   H	-0.587	2.374	0.344	 H	1	UNK0	0.000	
31	   H	3.506	0.536	-0.475	 H	1	UNK0	0.000	
32	   H	5.197	3.128	0.694	 H	1	UNK0	0.000	
33	   H	2.210	3.707	0.762	 H	1	UNK0	0.000	
34	   H	4.379	4.466	-1.206	 H	1	UNK0	0.000	
35	   H	3.167	2.206	-2.206	 H	1	UNK0	0.000	
36	   H	5.294	2.464	-2.320	 H	1	UNK0	0.000	
37	   H	1.561	4.403	-1.217	 H	1	UNK0	0.000	
38	   H	3.074	5.944	0.249	 H	1	UNK0	0.000	
39	   H	3.423	3.399	3.191	 H	1	UNK0	0.000	
40	   H	5.154	2.758	3.113	 H	1	UNK0	0.000	
41	   H	5.734	4.776	2.177	 H	1	UNK0	0.000	
42	   H	-3.444	-3.328	0.194	 H	1	UNK0	0.000	
43	   H	-2.057	-3.401	-0.866	 H	1	UNK0	0.000	
44	   H	-3.566	-2.486	-2.700	 H	1	UNK0	0.000	
45	   H	-4.102	-4.054	-2.073	 H	1	UNK0	0.000	
46	   H	-6.077	-3.199	-1.399	 H	1	UNK0	0.000	
47	   H	-5.640	-1.709	-2.282	 H	1	UNK0	0.000	
48	   H	-5.511	-2.211	0.716	 H	1	UNK0	0.000	
49	   H	-6.229	-0.910	-0.257	 H	1	UNK0	0.000	
@<TRIPOS>BOND
1 1 2 1
2 2 3 2
3 2 7 1
4 3 4 1
5 4 5 2
6 4 24 1
7 5 6 1
8 5 20 1
9 6 7 2
10 7 8 1
11 8 9 1
12 9 10 1
13 9 14 1
14 10 11 1
15 11 12 1
16 11 18 1
17 12 13 1
18 12 17 1
19 13 14 1
20 13 16 1
21 14 15 1
22 18 19 1
23 20 21 1
24 21 22 2
25 21 23 1
26 23 24 2
27 23 28 1
28 24 25 1
29 25 26 1
30 26 27 1
31 27 28 1
32 3 29 1
33 6 30 1
34 9 31 1
35 11 32 1
36 12 33 1
37 13 34 1
38 14 35 1
39 15 36 1
40 16 37 1
41 17 38 1
42 18 39 1
43 18 40 1
44 19 41 1
45 25 42 1
46 25 43 1
47 26 44 1
48 26 45 1
49 27 46 1
50 27 47 1
51 28 48 1
52 28 49 1
@<TRIPOS>SUBSTRUCTURE
1	UNK0	1	GROUP	1 ****	UNK
