# created with PyMOL 2.3.2
@<TRIPOS>MOLECULE
2245
56 60 1                 
SMALL
USER_CHARGES
@<TRIPOS>ATOM
1	  Cl	-3.172	6.148	0.621	Cl	1	UNK0	0.000	
2	   C	-1.485	5.815	1.021	C.2	1	UNK0	0.000	
3	   C	-0.947	4.564	0.829	C.2	1	UNK0	0.000	
4	   C	0.372	4.362	1.159	C.2	1	UNK0	0.000	
5	   C	1.110	5.404	1.666	C.2	1	UNK0	0.000	
6	   C	0.555	6.644	1.850	C.2	1	UNK0	0.000	
7	   C	-0.762	6.872	1.529	C.2	1	UNK0	0.000	
8	   C	-1.801	3.460	0.278	C.3	1	UNK0	0.000	
9	   N	-1.077	2.220	0.127	N.pl3	1	UNK0	0.000	
10	   C	-0.358	1.801	-1.053	C.2	1	UNK0	0.000	
11	   O	0.065	2.615	-1.939	O.2	1	UNK0	0.000	
12	   C	-0.233	0.343	-1.013	C.3	1	UNK0	0.000	
13	   C	-0.766	-0.073	0.334	C.3	1	UNK0	0.000	
14	   C	0.231	-1.031	0.873	C.3	1	UNK0	0.000	
15	   N	1.456	-0.644	0.282	N.3	1	UNK0	0.000	
16	   C	1.177	-0.090	-1.012	C.3	1	UNK0	0.000	
17	   C	1.451	-1.172	-1.995	C.2	1	UNK0	0.000	
18	   C	2.469	-0.805	-2.815	C.2	1	UNK0	0.000	
19	   C	2.964	-1.623	-3.857	C.2	1	UNK0	0.000	
20	   C	2.385	-2.855	-4.052	C.2	1	UNK0	0.000	
21	   C	1.351	-3.226	-3.219	C.2	1	UNK0	0.000	
22	   C	0.882	-2.422	-2.212	C.2	1	UNK0	0.000	
23	   C	2.869	-3.763	-5.141	C.3	1	UNK0	0.000	
24	   C	4.087	-1.155	-4.720	C.3	1	UNK0	0.000	
25	   N	2.911	0.503	-2.442	N.pl3	1	UNK0	0.000	
26	   C	2.145	0.959	-1.360	C.2	1	UNK0	0.000	
27	   O	2.354	2.111	-0.852	O.2	1	UNK0	0.000	
28	   C	0.379	-0.996	2.385	C.3	1	UNK0	0.000	
29	   C	-0.915	-1.334	3.012	C.2	1	UNK0	0.000	
30	   O	-1.050	-1.321	4.282	O.2	1	UNK0	0.000	
31	   N	-2.078	-1.688	2.291	N.pl3	1	UNK0	0.000	
32	   C	-0.923	1.178	1.094	C.2	1	UNK0	0.000	
33	   O	-0.925	1.332	2.364	O.2	1	UNK0	0.000	
34	   H	0.837	3.371	1.022	 H	1	UNK0	0.000	
35	   H	2.155	5.239	1.926	 H	1	UNK0	0.000	
36	   H	1.114	7.494	2.252	 H	1	UNK0	0.000	
37	   H	-1.213	7.858	1.672	 H	1	UNK0	0.000	
38	   H	-2.234	3.806	-0.695	 H	1	UNK0	0.000	
39	   H	-2.646	3.362	0.972	 H	1	UNK0	0.000	
40	   H	-0.857	-0.161	-1.796	 H	1	UNK0	0.000	
41	   H	-1.734	-0.624	0.231	 H	1	UNK0	0.000	
42	   H	-0.060	-2.092	0.659	 H	1	UNK0	0.000	
43	   H	2.181	-1.365	0.198	 H	1	UNK0	0.000	
44	   H	0.911	-4.219	-3.404	 H	1	UNK0	0.000	
45	   H	0.072	-2.730	-1.581	 H	1	UNK0	0.000	
46	   H	2.975	-3.237	-6.103	 H	1	UNK0	0.000	
47	   H	2.084	-4.563	-5.274	 H	1	UNK0	0.000	
48	   H	3.781	-4.284	-4.806	 H	1	UNK0	0.000	
49	   H	4.803	-2.009	-4.773	 H	1	UNK0	0.000	
50	   H	3.747	-0.825	-5.716	 H	1	UNK0	0.000	
51	   H	4.613	-0.357	-4.156	 H	1	UNK0	0.000	
52	   H	3.708	1.022	-2.938	 H	1	UNK0	0.000	
53	   H	0.867	-0.104	2.766	 H	1	UNK0	0.000	
54	   H	1.077	-1.852	2.623	 H	1	UNK0	0.000	
55	   H	-2.885	-1.007	2.343	 H	1	UNK0	0.000	
56	   H	-2.167	-2.567	1.728	 H	1	UNK0	0.000	
@<TRIPOS>BOND
1 1 2 1
2 2 3 2
3 2 7 1
4 3 4 1
5 3 8 1
6 4 5 2
7 5 6 1
8 6 7 2
9 8 9 1
10 9 10 1
11 9 32 1
12 10 11 2
13 10 12 1
14 12 13 1
15 12 16 1
16 13 14 1
17 13 32 1
18 14 15 1
19 14 28 1
20 15 16 1
21 16 17 1
22 16 26 1
23 17 18 1
24 17 22 2
25 18 19 2
26 18 25 1
27 19 20 1
28 19 24 1
29 20 21 2
30 20 23 1
31 21 22 1
32 25 26 1
33 26 27 2
34 28 29 1
35 29 30 2
36 29 31 1
37 32 33 2
38 4 34 1
39 5 35 1
40 6 36 1
41 7 37 1
42 8 38 1
43 8 39 1
44 12 40 1
45 13 41 1
46 14 42 1
47 15 43 1
48 21 44 1
49 22 45 1
50 23 46 1
51 23 47 1
52 23 48 1
53 24 49 1
54 24 50 1
55 24 51 1
56 25 52 1
57 28 53 1
58 28 54 1
59 31 55 1
60 31 56 1
@<TRIPOS>SUBSTRUCTURE
1	UNK0	1	GROUP	1 ****	UNK
