# created with PyMOL 2.3.2
@<TRIPOS>MOLECULE
2246
33 36 1                 
SMALL
USER_CHARGES
@<TRIPOS>ATOM
1	  Br	-2.980	-1.697	-2.316	Br	1	UNK0	0.000	
2	   C	-1.377	-2.334	-1.457	C.2	1	UNK0	0.000	
3	   C	-0.683	-1.432	-0.683	C.2	1	UNK0	0.000	
4	   C	0.468	-1.919	-0.073	C.2	1	UNK0	0.000	
5	   C	0.893	-3.224	-0.231	C.2	1	UNK0	0.000	
6	   C	0.167	-4.108	-1.021	C.2	1	UNK0	0.000	
7	   C	-0.968	-3.638	-1.626	C.2	1	UNK0	0.000	
8	   N	-1.084	-0.083	-0.491	N.pl3	1	UNK0	0.000	
9	   C	-0.417	1.112	-0.864	C.2	1	UNK0	0.000	
10	   O	0.623	1.151	-1.545	O.2	1	UNK0	0.000	
11	   C	-1.122	2.303	-0.337	C.3	1	UNK0	0.000	
12	   C	-0.324	3.065	0.663	C.3	1	UNK0	0.000	
13	   O	-1.170	3.197	1.796	O.3	1	UNK0	0.000	
14	   C	-1.482	1.818	1.918	C.3	1	UNK0	0.000	
15	   C	-2.194	1.670	0.568	C.3	1	UNK0	0.000	
16	   C	-2.308	0.260	0.166	C.2	1	UNK0	0.000	
17	   O	-3.269	-0.520	0.343	O.2	1	UNK0	0.000	
18	   C	-0.126	1.230	1.893	C.2	1	UNK0	0.000	
19	   C	0.655	2.105	1.260	C.2	1	UNK0	0.000	
20	   C	0.266	4.342	0.235	C.3	1	UNK0	0.000	
21	   O	1.038	4.845	1.299	O.3	1	UNK0	0.000	
22	   H	1.032	-1.226	0.543	 H	1	UNK0	0.000	
23	   H	1.805	-3.590	0.258	 H	1	UNK0	0.000	
24	   H	0.527	-5.126	-1.123	 H	1	UNK0	0.000	
25	   H	-1.549	-4.301	-2.242	 H	1	UNK0	0.000	
26	   H	-1.578	2.919	-1.120	 H	1	UNK0	0.000	
27	   H	-2.086	1.579	2.769	 H	1	UNK0	0.000	
28	   H	-3.120	2.240	0.582	 H	1	UNK0	0.000	
29	   H	0.257	0.281	2.286	 H	1	UNK0	0.000	
30	   H	1.732	2.133	1.183	 H	1	UNK0	0.000	
31	   H	-0.516	5.128	0.060	 H	1	UNK0	0.000	
32	   H	0.854	4.259	-0.686	 H	1	UNK0	0.000	
33	   H	0.429	5.215	2.003	 H	1	UNK0	0.000	
@<TRIPOS>BOND
1 1 2 1
2 2 3 2
3 2 7 1
4 3 4 1
5 3 8 1
6 4 5 2
7 5 6 1
8 6 7 2
9 8 9 1
10 8 16 1
11 9 10 2
12 9 11 1
13 11 12 1
14 11 15 1
15 12 13 1
16 12 19 1
17 12 20 1
18 13 14 1
19 14 15 1
20 14 18 1
21 15 16 1
22 16 17 2
23 18 19 2
24 20 21 1
25 4 22 1
26 5 23 1
27 6 24 1
28 7 25 1
29 11 26 1
30 14 27 1
31 15 28 1
32 18 29 1
33 19 30 1
34 20 31 1
35 20 32 1
36 21 33 1
@<TRIPOS>SUBSTRUCTURE
1	UNK0	1	GROUP	1 ****	UNK
