# created with PyMOL 2.3.2
@<TRIPOS>MOLECULE
2251
53 56 1                 
SMALL
USER_CHARGES
@<TRIPOS>ATOM
1	   S	0.074	-0.319	-3.816	S.O2	1	UNK0	0.000	
2	   O	0.088	0.341	-5.185	O.2	1	UNK0	0.000	
3	   O	0.103	-1.814	-4.105	O.2	1	UNK0	0.000	
4	   N	-1.396	0.043	-3.079	N.3	1	UNK0	0.000	
5	   C	-1.698	-0.616	-1.861	C.3	1	UNK0	0.000	
6	   C	-1.279	0.182	-0.618	C.3	1	UNK0	0.000	
7	   N	-1.930	1.448	-0.664	N.pl3	1	UNK0	0.000	
8	   C	-2.678	1.719	-1.904	C.3	1	UNK0	0.000	
9	   C	-1.800	1.428	-3.115	C.3	1	UNK0	0.000	
10	   C	-1.923	2.424	0.323	C.2	1	UNK0	0.000	
11	   O	-2.603	3.504	-0.011	O.2	1	UNK0	0.000	
12	   C	-1.293	2.414	1.616	C.3	1	UNK0	0.000	
13	   N	-0.560	1.265	2.059	N.pl3	1	UNK0	0.000	
14	   C	0.809	0.980	1.855	C.2	1	UNK0	0.000	
15	   O	1.628	1.707	1.184	O.2	1	UNK0	0.000	
16	   N	1.138	-0.228	2.500	N.pl3	1	UNK0	0.000	
17	   C	0.062	-0.548	3.388	C.3	1	UNK0	0.000	
18	   C	0.451	-0.153	4.783	C.3	1	UNK0	0.000	
19	   C	1.311	-1.345	5.209	C.3	1	UNK0	0.000	
20	   C	0.644	-2.554	4.578	C.3	1	UNK0	0.000	
21	   C	-0.187	-2.041	3.441	C.3	1	UNK0	0.000	
22	   C	-1.096	0.192	2.862	C.2	1	UNK0	0.000	
23	   O	-2.303	-0.062	3.072	O.2	1	UNK0	0.000	
24	   C	1.484	0.056	-2.906	C.2	1	UNK0	0.000	
25	   C	2.069	1.293	-3.020	C.2	1	UNK0	0.000	
26	   C	3.207	1.656	-2.314	C.2	1	UNK0	0.000	
27	   C	3.780	0.737	-1.459	C.2	1	UNK0	0.000	
28	   C	3.185	-0.503	-1.352	C.2	1	UNK0	0.000	
29	   C	2.058	-0.855	-2.054	C.2	1	UNK0	0.000	
30	  Cl	5.225	1.147	-0.540	Cl	1	UNK0	0.000	
31	   H	-2.791	-0.769	-1.778	 H	1	UNK0	0.000	
32	   H	-1.223	-1.613	-1.863	 H	1	UNK0	0.000	
33	   H	-1.513	-0.445	0.231	 H	1	UNK0	0.000	
34	   H	-0.186	0.365	-0.689	 H	1	UNK0	0.000	
35	   H	-3.008	2.765	-1.940	 H	1	UNK0	0.000	
36	   H	-3.581	1.087	-1.984	 H	1	UNK0	0.000	
37	   H	-2.452	1.552	-4.004	 H	1	UNK0	0.000	
38	   H	-0.969	2.128	-3.206	 H	1	UNK0	0.000	
39	   H	-0.612	3.338	1.643	 H	1	UNK0	0.000	
40	   H	-2.123	2.608	2.380	 H	1	UNK0	0.000	
41	   H	1.992	-0.813	2.386	 H	1	UNK0	0.000	
42	   H	-0.420	-0.063	5.450	 H	1	UNK0	0.000	
43	   H	1.082	0.755	4.828	 H	1	UNK0	0.000	
44	   H	2.300	-1.192	4.702	 H	1	UNK0	0.000	
45	   H	1.396	-1.432	6.297	 H	1	UNK0	0.000	
46	   H	1.411	-3.284	4.187	 H	1	UNK0	0.000	
47	   H	-0.013	-3.059	5.319	 H	1	UNK0	0.000	
48	   H	0.131	-2.507	2.473	 H	1	UNK0	0.000	
49	   H	-1.274	-2.225	3.573	 H	1	UNK0	0.000	
50	   H	1.662	2.063	-3.680	 H	1	UNK0	0.000	
51	   H	3.669	2.628	-2.401	 H	1	UNK0	0.000	
52	   H	3.657	-1.203	-0.674	 H	1	UNK0	0.000	
53	   H	1.666	-1.853	-1.902	 H	1	UNK0	0.000	
@<TRIPOS>BOND
1 1 2 2
2 1 3 2
3 1 4 1
4 1 24 1
5 4 5 1
6 4 9 1
7 5 6 1
8 6 7 1
9 7 8 1
10 7 10 1
11 8 9 1
12 10 11 2
13 10 12 1
14 12 13 1
15 13 14 1
16 13 22 1
17 14 15 2
18 14 16 1
19 16 17 1
20 17 18 1
21 17 21 1
22 17 22 1
23 18 19 1
24 19 20 1
25 20 21 1
26 22 23 2
27 24 25 2
28 24 29 1
29 25 26 1
30 26 27 2
31 27 28 1
32 27 30 1
33 28 29 2
34 5 31 1
35 5 32 1
36 6 33 1
37 6 34 1
38 8 35 1
39 8 36 1
40 9 37 1
41 9 38 1
42 12 39 1
43 12 40 1
44 16 41 1
45 18 42 1
46 18 43 1
47 19 44 1
48 19 45 1
49 20 46 1
50 20 47 1
51 21 48 1
52 21 49 1
53 25 50 1
54 26 51 1
55 28 52 1
56 29 53 1
@<TRIPOS>SUBSTRUCTURE
1	UNK0	1	GROUP	1 ****	UNK
