# created with PyMOL 2.3.2
@<TRIPOS>MOLECULE
2252
47 51 1                 
SMALL
USER_CHARGES
@<TRIPOS>ATOM
1	   S	4.496	1.754	-1.526	S.3	1	UNK0	0.000	
2	   C	4.282	2.139	-3.179	C.2	1	UNK0	0.000	
3	   C	2.945	1.901	-3.348	C.2	1	UNK0	0.000	
4	   N	2.272	1.490	-2.313	N.2	1	UNK0	0.000	
5	   C	2.872	1.315	-1.156	C.2	1	UNK0	0.000	
6	   N	2.316	0.870	0.100	N.pl3	1	UNK0	0.000	
7	   N	1.875	1.613	1.104	N.2	1	UNK0	0.000	
8	   C	1.435	0.819	2.096	C.2	1	UNK0	0.000	
9	   C	1.625	-0.559	1.657	C.2	1	UNK0	0.000	
10	   C	1.271	-1.635	2.451	C.2	1	UNK0	0.000	
11	   N	0.745	-1.388	3.646	N.pl3	1	UNK0	0.000	
12	   C	0.563	-0.118	4.069	C.2	1	UNK0	0.000	
13	   C	0.883	0.996	3.350	C.2	1	UNK0	0.000	
14	   O	0.006	0.104	5.346	O.2	1	UNK0	0.000	
15	   C	0.407	-2.431	4.541	C.3	1	UNK0	0.000	
16	   C	-0.876	-3.136	4.397	C.3	1	UNK0	0.000	
17	   S	-2.396	-2.253	4.458	S.3	1	UNK0	0.000	
18	   C	-2.817	-1.232	3.106	C.2	1	UNK0	0.000	
19	   C	-2.614	0.117	3.111	C.2	1	UNK0	0.000	
20	   C	-2.937	0.916	2.018	C.2	1	UNK0	0.000	
21	   C	-3.476	0.377	0.885	C.2	1	UNK0	0.000	
22	   C	-3.690	-0.972	0.857	C.2	1	UNK0	0.000	
23	   C	-3.372	-1.764	1.931	C.2	1	UNK0	0.000	
24	  Cl	-3.863	1.433	-0.458	Cl	1	UNK0	0.000	
25	   C	1.505	-2.984	1.904	C.3	1	UNK0	0.000	
26	   C	2.186	-0.440	0.387	C.2	1	UNK0	0.000	
27	   O	2.495	-1.438	-0.319	O.2	1	UNK0	0.000	
28	   C	2.434	2.128	-4.634	C.2	1	UNK0	0.000	
29	   C	3.229	2.559	-5.646	C.2	1	UNK0	0.000	
30	   C	4.571	2.800	-5.482	C.2	1	UNK0	0.000	
31	   C	5.100	2.585	-4.230	C.2	1	UNK0	0.000	
32	   H	0.724	2.012	3.718	 H	1	UNK0	0.000	
33	   H	1.249	-3.170	4.530	 H	1	UNK0	0.000	
34	   H	0.435	-2.057	5.624	 H	1	UNK0	0.000	
35	   H	-0.844	-3.881	3.515	 H	1	UNK0	0.000	
36	   H	-0.909	-3.889	5.266	 H	1	UNK0	0.000	
37	   H	-2.208	0.650	3.956	 H	1	UNK0	0.000	
38	   H	-2.764	1.980	2.050	 H	1	UNK0	0.000	
39	   H	-4.123	-1.380	-0.064	 H	1	UNK0	0.000	
40	   H	-3.561	-2.831	1.860	 H	1	UNK0	0.000	
41	   H	1.449	-3.805	2.615	 H	1	UNK0	0.000	
42	   H	0.764	-3.230	1.087	 H	1	UNK0	0.000	
43	   H	2.505	-3.061	1.389	 H	1	UNK0	0.000	
44	   H	1.378	1.964	-4.861	 H	1	UNK0	0.000	
45	   H	2.834	2.739	-6.655	 H	1	UNK0	0.000	
46	   H	5.183	3.141	-6.294	 H	1	UNK0	0.000	
47	   H	6.131	2.737	-3.980	 H	1	UNK0	0.000	
@<TRIPOS>BOND
1 1 2 1
2 1 5 1
3 2 3 2
4 2 31 1
5 3 4 1
6 3 28 1
7 4 5 2
8 5 6 1
9 6 7 1
10 6 26 1
11 7 8 2
12 8 9 1
13 8 13 1
14 9 10 2
15 9 26 1
16 10 11 1
17 10 25 1
18 11 12 1
19 11 15 1
20 12 13 2
21 12 14 1
22 15 16 1
23 16 17 1
24 17 18 1
25 18 19 2
26 18 23 1
27 19 20 1
28 20 21 2
29 21 22 1
30 21 24 1
31 22 23 2
32 26 27 2
33 28 29 2
34 29 30 1
35 30 31 2
36 13 32 1
37 15 33 1
38 15 34 1
39 16 35 1
40 16 36 1
41 19 37 1
42 20 38 1
43 22 39 1
44 23 40 1
45 25 41 1
46 25 42 1
47 25 43 1
48 28 44 1
49 29 45 1
50 30 46 1
51 31 47 1
@<TRIPOS>SUBSTRUCTURE
1	UNK0	1	GROUP	1 ****	UNK
