# created with PyMOL 2.3.2
@<TRIPOS>MOLECULE
2253
55 58 1                 
SMALL
USER_CHARGES
@<TRIPOS>ATOM
1	  Cl	7.656	-4.659	-2.370	Cl	1	UNK0	0.000	
2	   C	6.156	-4.221	-1.605	C.2	1	UNK0	0.000	
3	   C	5.444	-3.083	-1.955	C.2	1	UNK0	0.000	
4	   C	4.272	-2.752	-1.351	C.2	1	UNK0	0.000	
5	   C	3.733	-3.556	-0.342	C.2	1	UNK0	0.000	
6	   C	4.434	-4.692	0.013	C.2	1	UNK0	0.000	
7	   C	5.637	-5.017	-0.618	C.2	1	UNK0	0.000	
8	   O	2.553	-3.205	0.253	O.3	1	UNK0	0.000	
9	   C	1.624	-2.281	-0.215	C.3	1	UNK0	0.000	
10	   C	1.434	-1.280	0.907	C.3	1	UNK0	0.000	
11	   C	0.682	-0.068	0.571	C.3	1	UNK0	0.000	
12	   N	-0.572	-0.174	-0.079	N.pl3	1	UNK0	0.000	
13	   C	-1.001	-1.068	-1.092	C.2	1	UNK0	0.000	
14	   O	-1.773	-0.610	-1.974	O.2	1	UNK0	0.000	
15	   C	-0.658	-2.490	-1.249	C.3	1	UNK0	0.000	
16	   C	0.308	-3.042	-0.298	C.3	1	UNK0	0.000	
17	   C	-1.563	0.789	0.322	C.3	1	UNK0	0.000	
18	   C	-1.443	2.094	-0.460	C.2	1	UNK0	0.000	
19	   O	-0.472	2.053	-1.284	O.2	1	UNK0	0.000	
20	   N	-2.298	3.117	-0.241	N.pl3	1	UNK0	0.000	
21	   C	-3.175	4.167	-0.016	C.3	1	UNK0	0.000	
22	   C	-4.247	3.759	1.020	C.3	1	UNK0	0.000	
23	   O	-5.092	4.806	1.237	O.3	1	UNK0	0.000	
24	   C	-6.255	4.566	1.890	C.3	1	UNK0	0.000	
25	   C	-6.762	3.171	1.922	C.3	1	UNK0	0.000	
26	   O	-5.933	2.204	1.413	O.3	1	UNK0	0.000	
27	   C	-5.081	2.630	0.428	C.3	1	UNK0	0.000	
28	   C	2.019	-1.676	-1.496	C.3	1	UNK0	0.000	
29	   C	3.470	-1.575	-1.674	C.2	1	UNK0	0.000	
30	   O	4.085	-0.544	-2.088	O.2	1	UNK0	0.000	
31	   H	5.802	-2.409	-2.727	 H	1	UNK0	0.000	
32	   H	4.067	-5.360	0.796	 H	1	UNK0	0.000	
33	   H	6.160	-5.930	-0.301	 H	1	UNK0	0.000	
34	   H	1.056	-1.842	1.791	 H	1	UNK0	0.000	
35	   H	2.478	-0.954	1.201	 H	1	UNK0	0.000	
36	   H	0.517	0.490	1.545	 H	1	UNK0	0.000	
37	   H	1.389	0.636	0.026	 H	1	UNK0	0.000	
38	   H	-1.629	-3.046	-1.099	 H	1	UNK0	0.000	
39	   H	-0.346	-2.698	-2.287	 H	1	UNK0	0.000	
40	   H	-0.098	-3.091	0.725	 H	1	UNK0	0.000	
41	   H	0.557	-4.082	-0.590	 H	1	UNK0	0.000	
42	   H	-1.420	1.112	1.390	 H	1	UNK0	0.000	
43	   H	-2.557	0.361	0.260	 H	1	UNK0	0.000	
44	   H	-1.638	3.899	-1.138	 H	1	UNK0	0.000	
45	   H	-3.719	4.531	-0.917	 H	1	UNK0	0.000	
46	   H	-2.695	5.057	0.448	 H	1	UNK0	0.000	
47	   H	-3.733	3.498	1.947	 H	1	UNK0	0.000	
48	   H	-7.079	5.257	1.557	 H	1	UNK0	0.000	
49	   H	-6.088	4.860	2.972	 H	1	UNK0	0.000	
50	   H	-7.696	3.135	1.280	 H	1	UNK0	0.000	
51	   H	-7.153	2.883	2.944	 H	1	UNK0	0.000	
52	   H	-4.475	1.788	0.079	 H	1	UNK0	0.000	
53	   H	-5.706	3.069	-0.387	 H	1	UNK0	0.000	
54	   H	1.526	-0.703	-1.727	 H	1	UNK0	0.000	
55	   H	1.654	-2.357	-2.314	 H	1	UNK0	0.000	
@<TRIPOS>BOND
1 1 2 1
2 2 3 2
3 2 7 1
4 3 4 1
5 4 5 2
6 4 29 1
7 5 6 1
8 5 8 1
9 6 7 2
10 8 9 1
11 9 10 1
12 9 16 1
13 9 28 1
14 10 11 1
15 11 12 1
16 12 13 1
17 12 17 1
18 13 14 2
19 13 15 1
20 15 16 1
21 17 18 1
22 18 19 2
23 18 20 1
24 20 21 1
25 21 22 1
26 22 23 1
27 22 27 1
28 23 24 1
29 24 25 1
30 25 26 1
31 26 27 1
32 28 29 1
33 29 30 2
34 3 31 1
35 6 32 1
36 7 33 1
37 10 34 1
38 10 35 1
39 11 36 1
40 11 37 1
41 15 38 1
42 15 39 1
43 16 40 1
44 16 41 1
45 17 42 1
46 17 43 1
47 20 44 1
48 21 45 1
49 21 46 1
50 22 47 1
51 24 48 1
52 24 49 1
53 25 50 1
54 25 51 1
55 27 52 1
56 27 53 1
57 28 54 1
58 28 55 1
@<TRIPOS>SUBSTRUCTURE
1	UNK0	1	GROUP	1 ****	UNK
