# created with PyMOL 2.3.2
@<TRIPOS>MOLECULE
2254
57 60 1                 
SMALL
USER_CHARGES
@<TRIPOS>ATOM
1	  Cl	-0.380	2.715	-9.002	Cl	1	UNK0	0.000	
2	   C	-0.719	2.331	-7.330	C.2	1	UNK0	0.000	
3	   C	-0.039	1.295	-6.736	C.2	1	UNK0	0.000	
4	   C	-0.303	0.992	-5.426	C.2	1	UNK0	0.000	
5	   C	-1.231	1.687	-4.669	C.2	1	UNK0	0.000	
6	   C	-1.894	2.720	-5.298	C.2	1	UNK0	0.000	
7	   C	-1.656	3.057	-6.617	C.2	1	UNK0	0.000	
8	   O	-1.460	1.348	-3.364	O.3	1	UNK0	0.000	
9	   C	-0.626	0.518	-2.579	C.3	1	UNK0	0.000	
10	   C	-1.445	-0.131	-1.512	C.3	1	UNK0	0.000	
11	   C	-0.796	-0.112	-0.150	C.3	1	UNK0	0.000	
12	   N	-0.839	1.196	0.463	N.pl3	1	UNK0	0.000	
13	   C	-0.317	2.419	-0.107	C.2	1	UNK0	0.000	
14	   O	-0.211	3.388	0.684	O.2	1	UNK0	0.000	
15	   C	0.101	2.652	-1.495	C.3	1	UNK0	0.000	
16	   C	0.525	1.324	-2.088	C.3	1	UNK0	0.000	
17	   C	-1.455	1.384	1.730	C.3	1	UNK0	0.000	
18	   C	-0.683	1.248	2.947	C.2	1	UNK0	0.000	
19	   O	-1.395	1.470	4.036	O.2	1	UNK0	0.000	
20	   N	0.648	0.929	3.165	N.pl3	1	UNK0	0.000	
21	   C	1.699	0.624	2.235	C.3	1	UNK0	0.000	
22	   C	2.040	-0.849	2.435	C.3	1	UNK0	0.000	
23	   C	2.542	-1.066	3.833	C.3	1	UNK0	0.000	
24	   C	1.667	-0.497	4.895	C.3	1	UNK0	0.000	
25	   C	1.123	0.872	4.580	C.3	1	UNK0	0.000	
26	   C	2.629	-2.539	4.047	C.2	1	UNK0	0.000	
27	   O	3.711	-3.106	4.329	O.2	1	UNK0	0.000	
28	   N	1.467	-3.348	3.935	N.pl3	1	UNK0	0.000	
29	   C	-0.063	-0.597	-3.456	C.3	1	UNK0	0.000	
30	   C	0.394	-0.097	-4.755	C.2	1	UNK0	0.000	
31	   O	1.391	-0.610	-5.294	O.2	1	UNK0	0.000	
32	   H	0.706	0.708	-7.282	 H	1	UNK0	0.000	
33	   H	-2.625	3.284	-4.737	 H	1	UNK0	0.000	
34	   H	-2.201	3.872	-7.060	 H	1	UNK0	0.000	
35	   H	-1.676	-1.192	-1.744	 H	1	UNK0	0.000	
36	   H	-2.422	0.387	-1.408	 H	1	UNK0	0.000	
37	   H	-1.400	-0.785	0.498	 H	1	UNK0	0.000	
38	   H	0.208	-0.553	-0.216	 H	1	UNK0	0.000	
39	   H	0.973	3.333	-1.488	 H	1	UNK0	0.000	
40	   H	-0.767	3.073	-2.042	 H	1	UNK0	0.000	
41	   H	1.181	0.815	-1.374	 H	1	UNK0	0.000	
42	   H	1.154	1.579	-2.984	 H	1	UNK0	0.000	
43	   H	-1.975	2.391	1.795	 H	1	UNK0	0.000	
44	   H	-2.324	0.669	1.754	 H	1	UNK0	0.000	
45	   H	2.630	1.160	2.610	 H	1	UNK0	0.000	
46	   H	1.531	0.829	1.194	 H	1	UNK0	0.000	
47	   H	1.177	-1.496	2.199	 H	1	UNK0	0.000	
48	   H	2.888	-1.077	1.742	 H	1	UNK0	0.000	
49	   H	3.592	-0.664	3.885	 H	1	UNK0	0.000	
50	   H	2.257	-0.407	5.823	 H	1	UNK0	0.000	
51	   H	0.811	-1.162	5.099	 H	1	UNK0	0.000	
52	   H	0.271	1.051	5.238	 H	1	UNK0	0.000	
53	   H	1.889	1.670	4.646	 H	1	UNK0	0.000	
54	   H	1.260	-3.763	3.003	 H	1	UNK0	0.000	
55	   H	0.815	-3.551	4.719	 H	1	UNK0	0.000	
56	   H	-0.893	-1.321	-3.591	 H	1	UNK0	0.000	
57	   H	0.800	-1.063	-2.904	 H	1	UNK0	0.000	
@<TRIPOS>BOND
1 1 2 1
2 2 3 2
3 2 7 1
4 3 4 1
5 4 5 2
6 4 30 1
7 5 6 1
8 5 8 1
9 6 7 2
10 8 9 1
11 9 10 1
12 9 16 1
13 9 29 1
14 10 11 1
15 11 12 1
16 12 13 1
17 12 17 1
18 13 14 2
19 13 15 1
20 15 16 1
21 17 18 1
22 18 19 2
23 18 20 1
24 20 21 1
25 20 25 1
26 21 22 1
27 22 23 1
28 23 24 1
29 23 26 1
30 24 25 1
31 26 27 2
32 26 28 1
33 29 30 1
34 30 31 2
35 3 32 1
36 6 33 1
37 7 34 1
38 10 35 1
39 10 36 1
40 11 37 1
41 11 38 1
42 15 39 1
43 15 40 1
44 16 41 1
45 16 42 1
46 17 43 1
47 17 44 1
48 21 45 1
49 21 46 1
50 22 47 1
51 22 48 1
52 23 49 1
53 24 50 1
54 24 51 1
55 25 52 1
56 25 53 1
57 28 54 1
58 28 55 1
59 29 56 1
60 29 57 1
@<TRIPOS>SUBSTRUCTURE
1	UNK0	1	GROUP	1 ****	UNK
