# created with PyMOL 2.3.2
@<TRIPOS>MOLECULE
2255
50 55 1                 
SMALL
USER_CHARGES
@<TRIPOS>ATOM
1	   S	6.601	-0.900	1.836	S.3	1	UNK0	0.000	
2	   C	7.392	-0.594	3.322	C.2	1	UNK0	0.000	
3	   C	6.324	-0.319	4.140	C.2	1	UNK0	0.000	
4	   N	5.138	-0.363	3.613	N.2	1	UNK0	0.000	
5	   C	4.969	-0.658	2.355	C.2	1	UNK0	0.000	
6	   N	3.793	-0.772	1.552	N.pl3	1	UNK0	0.000	
7	   N	3.744	-1.242	0.323	N.2	1	UNK0	0.000	
8	   C	2.490	-1.217	-0.149	C.2	1	UNK0	0.000	
9	   C	1.664	-0.665	0.919	C.2	1	UNK0	0.000	
10	   C	0.312	-0.530	0.689	C.2	1	UNK0	0.000	
11	   N	-0.279	-0.886	-0.479	N.pl3	1	UNK0	0.000	
12	   C	0.507	-1.398	-1.459	C.2	1	UNK0	0.000	
13	   C	1.866	-1.570	-1.322	C.2	1	UNK0	0.000	
14	   O	-0.127	-1.760	-2.660	O.2	1	UNK0	0.000	
15	   C	-1.694	-0.749	-0.746	C.3	1	UNK0	0.000	
16	   C	-1.891	0.640	-1.369	C.3	1	UNK0	0.000	
17	   C	-3.332	0.831	-1.660	C.2	1	UNK0	0.000	
18	   C	-4.262	1.110	-0.693	C.2	1	UNK0	0.000	
19	   C	-5.491	1.218	-1.332	C.2	1	UNK0	0.000	
20	   N	-5.289	1.009	-2.640	N.pl3	1	UNK0	0.000	
21	   C	-3.974	0.768	-2.877	C.2	1	UNK0	0.000	
22	   C	-6.601	1.498	-0.568	C.2	1	UNK0	0.000	
23	   C	-6.506	1.669	0.808	C.2	1	UNK0	0.000	
24	   C	-5.277	1.559	1.431	C.2	1	UNK0	0.000	
25	   C	-4.167	1.280	0.673	C.2	1	UNK0	0.000	
26	  Cl	-5.161	1.776	3.166	Cl	1	UNK0	0.000	
27	   C	-0.515	0.020	1.766	C.3	1	UNK0	0.000	
28	   C	2.559	-0.416	1.938	C.2	1	UNK0	0.000	
29	   O	2.246	0.071	3.054	O.2	1	UNK0	0.000	
30	   C	6.627	-0.015	5.482	C.2	1	UNK0	0.000	
31	   C	7.907	-0.001	5.917	C.2	1	UNK0	0.000	
32	   C	8.988	-0.275	5.107	C.2	1	UNK0	0.000	
33	   C	8.706	-0.574	3.794	C.2	1	UNK0	0.000	
34	   H	2.434	-1.983	-2.140	 H	1	UNK0	0.000	
35	   H	-2.306	-0.806	0.156	 H	1	UNK0	0.000	
36	   H	-1.961	-1.527	-1.498	 H	1	UNK0	0.000	
37	   H	-1.277	0.739	-2.299	 H	1	UNK0	0.000	
38	   H	-1.529	1.427	-0.683	 H	1	UNK0	0.000	
39	   H	-6.044	1.031	-3.359	 H	1	UNK0	0.000	
40	   H	-3.523	0.568	-3.828	 H	1	UNK0	0.000	
41	   H	-7.567	1.583	-1.075	 H	1	UNK0	0.000	
42	   H	-7.368	1.887	1.408	 H	1	UNK0	0.000	
43	   H	-3.216	1.196	1.168	 H	1	UNK0	0.000	
44	   H	-0.814	1.062	1.558	 H	1	UNK0	0.000	
45	   H	-1.412	-0.653	1.929	 H	1	UNK0	0.000	
46	   H	-0.008	-0.000	2.770	 H	1	UNK0	0.000	
47	   H	5.829	0.216	6.200	 H	1	UNK0	0.000	
48	   H	8.122	0.235	6.953	 H	1	UNK0	0.000	
49	   H	9.971	-0.244	5.522	 H	1	UNK0	0.000	
50	   H	9.483	-0.799	3.097	 H	1	UNK0	0.000	
@<TRIPOS>BOND
1 1 2 1
2 1 5 1
3 2 3 2
4 2 33 1
5 3 4 1
6 3 30 1
7 4 5 2
8 5 6 1
9 6 7 1
10 6 28 1
11 7 8 2
12 8 9 1
13 8 13 1
14 9 10 2
15 9 28 1
16 10 11 1
17 10 27 1
18 11 12 1
19 11 15 1
20 12 13 2
21 12 14 1
22 15 16 1
23 16 17 1
24 17 18 1
25 17 21 2
26 18 19 2
27 18 25 1
28 19 20 1
29 19 22 1
30 20 21 1
31 22 23 2
32 23 24 1
33 24 25 2
34 24 26 1
35 28 29 2
36 30 31 2
37 31 32 1
38 32 33 2
39 13 34 1
40 15 35 1
41 15 36 1
42 16 37 1
43 16 38 1
44 20 39 1
45 21 40 1
46 22 41 1
47 23 42 1
48 25 43 1
49 27 44 1
50 27 45 1
51 27 46 1
52 30 47 1
53 31 48 1
54 32 49 1
55 33 50 1
@<TRIPOS>SUBSTRUCTURE
1	UNK0	1	GROUP	1 ****	UNK
