# created with PyMOL 2.3.2
@<TRIPOS>MOLECULE
2256
59 62 1                 
SMALL
USER_CHARGES
@<TRIPOS>ATOM
1	  Cl	2.908	3.547	0.223	Cl	1	UNK0	0.000	
2	   C	1.582	2.775	-0.627	C.2	1	UNK0	0.000	
3	   C	1.797	1.558	-1.235	C.2	1	UNK0	0.000	
4	   C	0.755	0.961	-1.902	C.2	1	UNK0	0.000	
5	   C	-0.503	1.555	-1.976	C.2	1	UNK0	0.000	
6	   C	-0.711	2.778	-1.363	C.2	1	UNK0	0.000	
7	   C	0.343	3.359	-0.701	C.2	1	UNK0	0.000	
8	   N	-1.520	0.987	-2.649	N.pl3	1	UNK0	0.000	
9	   C	-1.240	-0.205	-3.260	C.2	1	UNK0	0.000	
10	   O	-2.206	-0.745	-3.907	O.2	1	UNK0	0.000	
11	   C	-0.017	-0.802	-3.201	C.2	1	UNK0	0.000	
12	   O	0.172	-1.907	-3.791	O.2	1	UNK0	0.000	
13	   N	1.016	-0.222	-2.510	N.pl3	1	UNK0	0.000	
14	   C	2.237	-0.913	-2.512	C.3	1	UNK0	0.000	
15	   C	2.416	-1.868	-1.432	C.2	1	UNK0	0.000	
16	   O	3.491	-2.649	-1.548	O.2	1	UNK0	0.000	
17	   N	1.657	-2.133	-0.268	N.pl3	1	UNK0	0.000	
18	   C	2.020	-3.225	0.613	C.3	1	UNK0	0.000	
19	   C	2.921	-2.905	1.695	C.2	1	UNK0	0.000	
20	   O	3.216	-3.970	2.479	O.2	1	UNK0	0.000	
21	   N	3.577	-1.778	2.158	N.pl3	1	UNK0	0.000	
22	   C	3.546	-0.453	1.617	C.3	1	UNK0	0.000	
23	   C	2.981	0.446	2.739	C.3	1	UNK0	0.000	
24	   O	3.796	0.337	3.843	O.3	1	UNK0	0.000	
25	   C	3.788	-0.956	4.373	C.3	1	UNK0	0.000	
26	   C	4.448	-1.861	3.377	C.3	1	UNK0	0.000	
27	   C	0.497	-1.390	0.148	C.3	1	UNK0	0.000	
28	   C	-2.868	1.484	-2.735	C.3	1	UNK0	0.000	
29	   C	-3.784	0.910	-1.692	C.2	1	UNK0	0.000	
30	   C	-3.792	1.309	-0.382	C.2	1	UNK0	0.000	
31	   C	-4.673	0.730	0.547	C.2	1	UNK0	0.000	
32	   C	-5.563	-0.254	0.192	C.2	1	UNK0	0.000	
33	   C	-5.556	-0.654	-1.124	C.2	1	UNK0	0.000	
34	   C	-4.697	-0.093	-2.039	C.2	1	UNK0	0.000	
35	   H	2.743	1.053	-1.212	 H	1	UNK0	0.000	
36	   H	-1.673	3.220	-1.439	 H	1	UNK0	0.000	
37	   H	0.141	4.317	-0.232	 H	1	UNK0	0.000	
38	   H	3.160	-0.292	-2.499	 H	1	UNK0	0.000	
39	   H	2.262	-1.526	-3.494	 H	1	UNK0	0.000	
40	   H	2.395	-4.100	-0.011	 H	1	UNK0	0.000	
41	   H	1.049	-3.602	1.082	 H	1	UNK0	0.000	
42	   H	3.029	-0.285	0.700	 H	1	UNK0	0.000	
43	   H	4.650	-0.159	1.517	 H	1	UNK0	0.000	
44	   H	2.951	1.499	2.400	 H	1	UNK0	0.000	
45	   H	1.960	0.119	2.949	 H	1	UNK0	0.000	
46	   H	2.710	-1.264	4.469	 H	1	UNK0	0.000	
47	   H	4.222	-0.987	5.380	 H	1	UNK0	0.000	
48	   H	4.483	-2.876	3.760	 H	1	UNK0	0.000	
49	   H	5.421	-1.436	3.074	 H	1	UNK0	0.000	
50	   H	-0.271	-1.448	-0.613	 H	1	UNK0	0.000	
51	   H	0.701	-0.389	0.567	 H	1	UNK0	0.000	
52	   H	0.021	-1.931	1.053	 H	1	UNK0	0.000	
53	   H	-3.271	1.133	-3.725	 H	1	UNK0	0.000	
54	   H	-2.931	2.569	-2.649	 H	1	UNK0	0.000	
55	   H	-3.116	2.081	-0.045	 H	1	UNK0	0.000	
56	   H	-4.656	1.069	1.587	 H	1	UNK0	0.000	
57	   H	-6.239	-0.691	0.930	 H	1	UNK0	0.000	
58	   H	-6.253	-1.430	-1.418	 H	1	UNK0	0.000	
59	   H	-4.705	-0.401	-3.087	 H	1	UNK0	0.000	
@<TRIPOS>BOND
1 1 2 1
2 2 3 2
3 2 7 1
4 3 4 1
5 4 5 2
6 4 13 1
7 5 6 1
8 5 8 1
9 6 7 2
10 8 9 1
11 8 28 1
12 9 10 2
13 9 11 1
14 11 12 2
15 11 13 1
16 13 14 1
17 14 15 1
18 15 16 2
19 15 17 1
20 17 18 1
21 17 27 1
22 18 19 1
23 19 20 2
24 19 21 1
25 21 22 1
26 21 26 1
27 22 23 1
28 23 24 1
29 24 25 1
30 25 26 1
31 28 29 1
32 29 30 2
33 29 34 1
34 30 31 1
35 31 32 2
36 32 33 1
37 33 34 2
38 3 35 1
39 6 36 1
40 7 37 1
41 14 38 1
42 14 39 1
43 18 40 1
44 18 41 1
45 22 42 1
46 22 43 1
47 23 44 1
48 23 45 1
49 25 46 1
50 25 47 1
51 26 48 1
52 26 49 1
53 27 50 1
54 27 51 1
55 27 52 1
56 28 53 1
57 28 54 1
58 30 55 1
59 31 56 1
60 32 57 1
61 33 58 1
62 34 59 1
@<TRIPOS>SUBSTRUCTURE
1	UNK0	1	GROUP	1 ****	UNK
