# created with PyMOL 2.3.2
@<TRIPOS>MOLECULE
2257
43 46 1                 
SMALL
USER_CHARGES
@<TRIPOS>ATOM
1	  Cl	6.390	-2.007	0.737	Cl	1	UNK0	0.000	
2	   C	5.542	-1.288	-0.615	C.2	1	UNK0	0.000	
3	   C	6.237	-0.545	-1.543	C.2	1	UNK0	0.000	
4	   C	5.544	0.010	-2.598	C.2	1	UNK0	0.000	
5	   C	4.187	-0.193	-2.694	C.2	1	UNK0	0.000	
6	   C	3.457	-0.934	-1.780	C.2	1	UNK0	0.000	
7	   C	4.159	-1.481	-0.734	C.2	1	UNK0	0.000	
8	   C	2.025	-1.112	-1.937	C.2	1	UNK0	0.000	
9	   C	1.245	-1.792	-1.131	C.2	1	UNK0	0.000	
10	   C	-0.201	-1.921	-1.366	C.2	1	UNK0	0.000	
11	   O	-0.775	-1.391	-2.348	O.2	1	UNK0	0.000	
12	   N	-1.007	-2.668	-0.463	N.pl3	1	UNK0	0.000	
13	   C	-0.708	-3.414	0.766	C.3	1	UNK0	0.000	
14	   C	-2.158	-3.231	1.157	C.3	1	UNK0	0.000	
15	   C	-2.394	-3.038	-0.313	C.3	1	UNK0	0.000	
16	   N	-2.411	-2.006	1.911	N.pl3	1	UNK0	0.000	
17	   N	-2.487	-1.860	3.222	N.2	1	UNK0	0.000	
18	   N	-2.731	-0.600	3.542	N.2	1	UNK0	0.000	
19	   C	-2.822	0.128	2.416	C.2	1	UNK0	0.000	
20	   C	-2.618	-0.775	1.394	C.2	1	UNK0	0.000	
21	   C	-3.088	1.582	2.380	C.3	1	UNK0	0.000	
22	   O	-2.249	2.246	1.487	O.3	1	UNK0	0.000	
23	   C	-2.945	2.181	3.747	C.3	1	UNK0	0.000	
24	   O	6.493	0.691	-3.356	O.3	1	UNK0	0.000	
25	   C	7.653	0.934	-2.581	C.3	1	UNK0	0.000	
26	   O	7.591	-0.185	-1.688	O.3	1	UNK0	0.000	
27	   H	3.650	0.252	-3.536	 H	1	UNK0	0.000	
28	   H	3.636	-2.073	0.015	 H	1	UNK0	0.000	
29	   H	1.546	-0.637	-2.806	 H	1	UNK0	0.000	
30	   H	1.667	-2.267	-0.278	 H	1	UNK0	0.000	
31	   H	-0.452	-4.482	0.581	 H	1	UNK0	0.000	
32	   H	0.013	-2.876	1.406	 H	1	UNK0	0.000	
33	   H	-2.587	-4.147	1.605	 H	1	UNK0	0.000	
34	   H	-3.137	-2.256	-0.539	 H	1	UNK0	0.000	
35	   H	-2.587	-3.998	-0.873	 H	1	UNK0	0.000	
36	   H	-2.631	-0.493	0.355	 H	1	UNK0	0.000	
37	   H	-4.136	1.732	1.986	 H	1	UNK0	0.000	
38	   H	-1.678	1.632	0.978	 H	1	UNK0	0.000	
39	   H	-2.526	1.444	4.487	 H	1	UNK0	0.000	
40	   H	-2.196	3.026	3.754	 H	1	UNK0	0.000	
41	   H	-3.894	2.631	4.130	 H	1	UNK0	0.000	
42	   H	8.577	0.954	-3.163	 H	1	UNK0	0.000	
43	   H	7.476	1.875	-2.007	 H	1	UNK0	0.000	
@<TRIPOS>BOND
1 1 2 1
2 2 3 2
3 2 7 1
4 3 4 1
5 3 26 1
6 4 5 2
7 4 24 1
8 5 6 1
9 6 7 2
10 6 8 1
11 8 9 2
12 9 10 1
13 10 11 2
14 10 12 1
15 12 13 1
16 12 15 1
17 13 14 1
18 14 15 1
19 14 16 1
20 16 17 1
21 16 20 1
22 17 18 2
23 18 19 1
24 19 20 2
25 19 21 1
26 21 22 1
27 21 23 1
28 24 25 1
29 25 26 1
30 5 27 1
31 7 28 1
32 8 29 1
33 9 30 1
34 13 31 1
35 13 32 1
36 14 33 1
37 15 34 1
38 15 35 1
39 20 36 1
40 21 37 1
41 22 38 1
42 23 39 1
43 23 40 1
44 23 41 1
45 25 42 1
46 25 43 1
@<TRIPOS>SUBSTRUCTURE
1	UNK0	1	GROUP	1 ****	UNK
