# created with PyMOL 2.3.2
@<TRIPOS>MOLECULE
2258
50 53 1                 
SMALL
USER_CHARGES
@<TRIPOS>ATOM
1	  Br	-8.206	-6.664	-0.071	Br	1	UNK0	0.000	
2	   C	-6.478	-6.011	0.438	C.2	1	UNK0	0.000	
3	   O	-5.427	-6.142	-0.290	O.3	1	UNK0	0.000	
4	   C	-4.382	-5.578	0.350	C.2	1	UNK0	0.000	
5	   C	-4.839	-5.079	1.533	C.2	1	UNK0	0.000	
6	   C	-6.211	-5.361	1.594	C.2	1	UNK0	0.000	
7	   C	-3.031	-5.556	-0.216	C.2	1	UNK0	0.000	
8	   O	-2.972	-6.074	-1.423	O.2	1	UNK0	0.000	
9	   N	-1.849	-5.098	0.283	N.pl3	1	UNK0	0.000	
10	   C	-0.651	-5.197	-0.626	C.3	1	UNK0	0.000	
11	   C	-0.351	-3.758	-0.969	C.3	1	UNK0	0.000	
12	   N	-0.376	-2.871	0.152	N.pl3	1	UNK0	0.000	
13	   C	-1.025	-3.116	1.426	C.3	1	UNK0	0.000	
14	   C	-1.519	-4.547	1.533	C.3	1	UNK0	0.000	
15	   C	0.291	-1.614	0.033	C.2	1	UNK0	0.000	
16	   N	0.929	-1.355	-1.120	N.2	1	UNK0	0.000	
17	   N	1.559	-0.224	-1.300	N.2	1	UNK0	0.000	
18	   C	1.633	0.777	-0.366	C.2	1	UNK0	0.000	
19	   C	0.977	0.503	0.812	C.2	1	UNK0	0.000	
20	   C	0.292	-0.683	1.054	C.2	1	UNK0	0.000	
21	   N	2.326	1.964	-0.637	N.pl3	1	UNK0	0.000	
22	   C	2.529	2.981	0.343	C.3	1	UNK0	0.000	
23	   C	1.665	4.158	-0.151	C.3	1	UNK0	0.000	
24	   N	1.790	4.387	-1.546	N.3	1	UNK0	0.000	
25	   C	2.892	3.704	-2.177	C.3	1	UNK0	0.000	
26	   C	2.865	2.211	-1.952	C.3	1	UNK0	0.000	
27	   C	0.574	3.922	-2.194	C.3	1	UNK0	0.000	
28	   H	-4.299	-4.544	2.312	 H	1	UNK0	0.000	
29	   H	-6.836	-5.078	2.427	 H	1	UNK0	0.000	
30	   H	-0.890	-5.756	-1.528	 H	1	UNK0	0.000	
31	   H	0.189	-5.590	-0.041	 H	1	UNK0	0.000	
32	   H	-1.080	-3.477	-1.764	 H	1	UNK0	0.000	
33	   H	0.638	-3.775	-1.488	 H	1	UNK0	0.000	
34	   H	-0.339	-2.892	2.263	 H	1	UNK0	0.000	
35	   H	-1.882	-2.425	1.500	 H	1	UNK0	0.000	
36	   H	-2.190	-4.692	2.365	 H	1	UNK0	0.000	
37	   H	-0.577	-5.138	1.874	 H	1	UNK0	0.000	
38	   H	0.992	1.260	1.604	 H	1	UNK0	0.000	
39	   H	-0.214	-0.896	1.957	 H	1	UNK0	0.000	
40	   H	2.235	2.762	1.362	 H	1	UNK0	0.000	
41	   H	3.575	3.401	0.284	 H	1	UNK0	0.000	
42	   H	0.622	3.894	0.165	 H	1	UNK0	0.000	
43	   H	2.034	5.045	0.401	 H	1	UNK0	0.000	
44	   H	3.821	4.077	-1.698	 H	1	UNK0	0.000	
45	   H	2.972	3.941	-3.255	 H	1	UNK0	0.000	
46	   H	2.157	1.770	-2.678	 H	1	UNK0	0.000	
47	   H	3.866	1.794	-2.081	 H	1	UNK0	0.000	
48	   H	0.785	3.259	-3.062	 H	1	UNK0	0.000	
49	   H	-0.077	3.372	-1.482	 H	1	UNK0	0.000	
50	   H	-0.018	4.813	-2.516	 H	1	UNK0	0.000	
@<TRIPOS>BOND
1 1 2 1
2 2 3 1
3 2 6 2
4 3 4 1
5 4 5 2
6 4 7 1
7 5 6 1
8 7 8 2
9 7 9 1
10 9 10 1
11 9 14 1
12 10 11 1
13 11 12 1
14 12 13 1
15 12 15 1
16 13 14 1
17 15 16 2
18 15 20 1
19 16 17 1
20 17 18 2
21 18 19 1
22 18 21 1
23 19 20 2
24 21 22 1
25 21 26 1
26 22 23 1
27 23 24 1
28 24 25 1
29 24 27 1
30 25 26 1
31 5 28 1
32 6 29 1
33 10 30 1
34 10 31 1
35 11 32 1
36 11 33 1
37 13 34 1
38 13 35 1
39 14 36 1
40 14 37 1
41 19 38 1
42 20 39 1
43 22 40 1
44 22 41 1
45 23 42 1
46 23 43 1
47 25 44 1
48 25 45 1
49 26 46 1
50 26 47 1
51 27 48 1
52 27 49 1
53 27 50 1
@<TRIPOS>SUBSTRUCTURE
1	UNK0	1	GROUP	1 ****	UNK
