# created with PyMOL 2.3.2
@<TRIPOS>MOLECULE
2259
41 44 1                 
SMALL
USER_CHARGES
@<TRIPOS>ATOM
1	  Cl	-2.241	5.190	1.324	Cl	1	UNK0	0.000	
2	   C	-0.528	4.911	1.586	C.2	1	UNK0	0.000	
3	   C	0.207	5.735	2.408	C.2	1	UNK0	0.000	
4	   N	1.516	5.535	2.617	N.2	1	UNK0	0.000	
5	   C	2.197	4.528	2.046	C.2	1	UNK0	0.000	
6	   C	1.472	3.682	1.211	C.2	1	UNK0	0.000	
7	   C	0.130	3.845	0.965	C.2	1	UNK0	0.000	
8	   C	-0.695	3.006	0.087	C.3	1	UNK0	0.000	
9	   N	0.001	1.895	-0.515	N.3	1	UNK0	0.000	
10	   C	-0.845	1.196	-1.446	C.3	1	UNK0	0.000	
11	   C	-1.568	0.209	-0.553	C.3	1	UNK0	0.000	
12	   N	-2.334	-0.726	-1.285	N.pl3	1	UNK0	0.000	
13	   C	-2.404	-2.152	-1.374	C.2	1	UNK0	0.000	
14	   O	-3.409	-2.680	-1.898	O.2	1	UNK0	0.000	
15	   C	-1.345	-3.046	-0.876	C.2	1	UNK0	0.000	
16	   C	-0.159	-2.715	-0.236	C.2	1	UNK0	0.000	
17	   N	0.728	-3.623	0.171	N.2	1	UNK0	0.000	
18	   C	0.434	-4.921	-0.064	C.2	1	UNK0	0.000	
19	   C	-0.723	-5.327	-0.694	C.2	1	UNK0	0.000	
20	   C	-1.639	-4.375	-1.113	C.2	1	UNK0	0.000	
21	   O	0.209	-1.384	0.040	O.3	1	UNK0	0.000	
22	   C	-0.540	-0.268	0.384	C.3	1	UNK0	0.000	
23	   C	0.403	0.915	0.474	C.3	1	UNK0	0.000	
24	   C	-3.306	-0.089	-2.182	C.3	1	UNK0	0.000	
25	   H	-0.335	6.559	2.878	 H	1	UNK0	0.000	
26	   H	3.252	4.390	2.233	 H	1	UNK0	0.000	
27	   H	2.015	2.878	0.741	 H	1	UNK0	0.000	
28	   H	-1.639	2.681	0.571	 H	1	UNK0	0.000	
29	   H	-1.023	3.661	-0.768	 H	1	UNK0	0.000	
30	   H	-1.591	1.882	-1.887	 H	1	UNK0	0.000	
31	   H	-0.201	0.702	-2.189	 H	1	UNK0	0.000	
32	   H	-2.306	0.835	0.035	 H	1	UNK0	0.000	
33	   H	1.112	-5.716	0.240	 H	1	UNK0	0.000	
34	   H	-0.936	-6.388	-0.872	 H	1	UNK0	0.000	
35	   H	-2.565	-4.636	-1.613	 H	1	UNK0	0.000	
36	   H	-0.997	-0.384	1.400	 H	1	UNK0	0.000	
37	   H	1.452	0.619	0.235	 H	1	UNK0	0.000	
38	   H	0.426	1.333	1.506	 H	1	UNK0	0.000	
39	   H	-3.678	0.804	-1.673	 H	1	UNK0	0.000	
40	   H	-4.158	-0.748	-2.397	 H	1	UNK0	0.000	
41	   H	-2.832	0.130	-3.177	 H	1	UNK0	0.000	
@<TRIPOS>BOND
1 1 2 1
2 2 3 2
3 2 7 1
4 3 4 1
5 4 5 2
6 5 6 1
7 6 7 2
8 7 8 1
9 8 9 1
10 9 10 1
11 9 23 1
12 10 11 1
13 11 12 1
14 11 22 1
15 12 13 1
16 12 24 1
17 13 14 2
18 13 15 1
19 15 16 2
20 15 20 1
21 16 17 1
22 16 21 1
23 17 18 2
24 18 19 1
25 19 20 2
26 21 22 1
27 22 23 1
28 3 25 1
29 5 26 1
30 6 27 1
31 8 28 1
32 8 29 1
33 10 30 1
34 10 31 1
35 11 32 1
36 18 33 1
37 19 34 1
38 20 35 1
39 22 36 1
40 23 37 1
41 23 38 1
42 24 39 1
43 24 40 1
44 24 41 1
@<TRIPOS>SUBSTRUCTURE
1	UNK0	1	GROUP	1 ****	UNK
