# created with PyMOL 2.3.2
@<TRIPOS>MOLECULE
2260
58 61 1                 
SMALL
USER_CHARGES
@<TRIPOS>ATOM
1	  Cl	-2.101	1.063	8.242	Cl	1	UNK0	0.000	
2	   C	-2.062	0.886	6.503	C.2	1	UNK0	0.000	
3	   C	-3.162	1.215	5.751	C.2	1	UNK0	0.000	
4	   C	-3.197	1.100	4.389	C.2	1	UNK0	0.000	
5	   C	-2.066	0.623	3.700	C.2	1	UNK0	0.000	
6	   C	-0.969	0.295	4.442	C.2	1	UNK0	0.000	
7	   C	-0.966	0.424	5.824	C.2	1	UNK0	0.000	
8	   C	-2.149	0.579	2.282	C.2	1	UNK0	0.000	
9	   O	-3.151	1.215	1.749	O.2	1	UNK0	0.000	
10	   N	-1.324	-0.046	1.343	N.pl3	1	UNK0	0.000	
11	   C	-1.634	0.156	-0.100	C.3	1	UNK0	0.000	
12	   C	-0.336	-0.059	-0.836	C.3	1	UNK0	0.000	
13	   N	-0.023	-1.438	-0.711	N.3	1	UNK0	0.000	
14	   C	0.030	-1.959	0.586	C.3	1	UNK0	0.000	
15	   C	-0.238	-0.900	1.665	C.3	1	UNK0	0.000	
16	   C	-1.006	-3.044	0.769	C.3	1	UNK0	0.000	
17	   O	-0.859	-3.503	2.100	O.3	1	UNK0	0.000	
18	   C	1.372	-2.622	0.910	C.3	1	UNK0	0.000	
19	   C	0.701	-2.056	-1.747	C.3	1	UNK0	0.000	
20	   C	1.500	-1.046	-2.588	C.3	1	UNK0	0.000	
21	   N	0.752	0.078	-2.952	N.3	1	UNK0	0.000	
22	   C	-0.524	0.219	-2.332	C.3	1	UNK0	0.000	
23	   C	0.955	0.733	-4.177	C.3	1	UNK0	0.000	
24	   C	0.708	-0.051	-5.413	C.3	1	UNK0	0.000	
25	   C	1.862	-0.755	-5.997	C.3	1	UNK0	0.000	
26	   O	3.099	-0.420	-5.606	O.3	1	UNK0	0.000	
27	   C	3.330	0.482	-4.643	C.3	1	UNK0	0.000	
28	   C	2.274	1.439	-4.262	C.3	1	UNK0	0.000	
29	   H	-4.061	1.590	6.254	 H	1	UNK0	0.000	
30	   H	-4.089	1.374	3.863	 H	1	UNK0	0.000	
31	   H	-0.038	-0.044	4.017	 H	1	UNK0	0.000	
32	   H	-0.083	0.157	6.412	 H	1	UNK0	0.000	
33	   H	-2.004	1.195	-0.218	 H	1	UNK0	0.000	
34	   H	-2.355	-0.599	-0.429	 H	1	UNK0	0.000	
35	   H	0.422	0.628	-0.417	 H	1	UNK0	0.000	
36	   H	-0.499	-1.547	2.565	 H	1	UNK0	0.000	
37	   H	0.720	-0.373	1.897	 H	1	UNK0	0.000	
38	   H	-0.862	-3.877	0.057	 H	1	UNK0	0.000	
39	   H	-2.017	-2.600	0.736	 H	1	UNK0	0.000	
40	   H	-0.368	-4.352	2.135	 H	1	UNK0	0.000	
41	   H	1.396	-2.716	2.022	 H	1	UNK0	0.000	
42	   H	1.399	-3.662	0.513	 H	1	UNK0	0.000	
43	   H	2.224	-2.008	0.615	 H	1	UNK0	0.000	
44	   H	1.458	-2.812	-1.414	 H	1	UNK0	0.000	
45	   H	-0.005	-2.622	-2.395	 H	1	UNK0	0.000	
46	   H	1.964	-1.614	-3.418	 H	1	UNK0	0.000	
47	   H	2.330	-0.745	-1.913	 H	1	UNK0	0.000	
48	   H	-1.270	-0.526	-2.695	 H	1	UNK0	0.000	
49	   H	-0.876	1.269	-2.455	 H	1	UNK0	0.000	
50	   H	0.194	1.604	-4.165	 H	1	UNK0	0.000	
51	   H	-0.150	-0.754	-5.192	 H	1	UNK0	0.000	
52	   H	0.292	0.639	-6.184	 H	1	UNK0	0.000	
53	   H	1.830	-0.713	-7.129	 H	1	UNK0	0.000	
54	   H	1.724	-1.861	-5.793	 H	1	UNK0	0.000	
55	   H	4.238	1.092	-4.976	 H	1	UNK0	0.000	
56	   H	3.708	-0.037	-3.719	 H	1	UNK0	0.000	
57	   H	2.530	1.847	-3.247	 H	1	UNK0	0.000	
58	   H	2.166	2.286	-4.980	 H	1	UNK0	0.000	
@<TRIPOS>BOND
1 1 2 1
2 2 3 2
3 2 7 1
4 3 4 1
5 4 5 2
6 5 6 1
7 5 8 1
8 6 7 2
9 8 9 2
10 8 10 1
11 10 11 1
12 10 15 1
13 11 12 1
14 12 13 1
15 12 22 1
16 13 14 1
17 13 19 1
18 14 15 1
19 14 16 1
20 14 18 1
21 16 17 1
22 19 20 1
23 20 21 1
24 21 22 1
25 21 23 1
26 23 24 1
27 23 28 1
28 24 25 1
29 25 26 1
30 26 27 1
31 27 28 1
32 3 29 1
33 4 30 1
34 6 31 1
35 7 32 1
36 11 33 1
37 11 34 1
38 12 35 1
39 15 36 1
40 15 37 1
41 16 38 1
42 16 39 1
43 17 40 1
44 18 41 1
45 18 42 1
46 18 43 1
47 19 44 1
48 19 45 1
49 20 46 1
50 20 47 1
51 22 48 1
52 22 49 1
53 23 50 1
54 24 51 1
55 24 52 1
56 25 53 1
57 25 54 1
58 27 55 1
59 27 56 1
60 28 57 1
61 28 58 1
@<TRIPOS>SUBSTRUCTURE
1	UNK0	1	GROUP	1 ****	UNK
