# created with PyMOL 2.3.2
@<TRIPOS>MOLECULE
2261
57 60 1                 
SMALL
USER_CHARGES
@<TRIPOS>ATOM
1	  Cl	3.732	-5.626	-0.492	Cl	1	UNK0	0.000	
2	   C	2.075	-5.284	-0.949	C.2	1	UNK0	0.000	
3	   C	1.504	-4.130	-0.486	C.2	1	UNK0	0.000	
4	   C	0.198	-3.801	-0.811	C.2	1	UNK0	0.000	
5	   C	-0.473	-4.734	-1.637	C.2	1	UNK0	0.000	
6	   C	0.118	-5.870	-2.082	C.2	1	UNK0	0.000	
7	   C	1.418	-6.184	-1.751	C.2	1	UNK0	0.000	
8	   O	-0.404	-2.718	-0.406	O.3	1	UNK0	0.000	
9	   C	-0.670	-1.579	0.158	C.3	1	UNK0	0.000	
10	   C	0.083	-0.317	-0.235	C.3	1	UNK0	0.000	
11	   O	-0.336	0.822	0.380	O.3	1	UNK0	0.000	
12	   C	-1.635	1.246	0.119	C.3	1	UNK0	0.000	
13	   C	-1.918	1.170	-1.372	C.3	1	UNK0	0.000	
14	   N	-0.679	1.096	-2.083	N.pl3	1	UNK0	0.000	
15	   C	-0.001	-0.218	-1.789	C.3	1	UNK0	0.000	
16	   C	0.016	1.967	-2.888	C.2	1	UNK0	0.000	
17	   O	1.108	1.525	-3.463	O.2	1	UNK0	0.000	
18	   C	-0.338	3.343	-3.173	C.2	1	UNK0	0.000	
19	   C	-1.219	4.117	-2.471	C.2	1	UNK0	0.000	
20	   N	-1.550	5.382	-2.859	N.2	1	UNK0	0.000	
21	   N	-0.998	5.865	-3.944	N.2	1	UNK0	0.000	
22	   C	-0.124	5.170	-4.686	C.2	1	UNK0	0.000	
23	   C	0.233	3.897	-4.329	C.2	1	UNK0	0.000	
24	   C	1.537	-0.472	0.039	C.3	1	UNK0	0.000	
25	   C	2.061	-0.732	1.355	C.2	1	UNK0	0.000	
26	   O	3.272	-1.328	1.325	O.2	1	UNK0	0.000	
27	   N	1.645	-0.525	2.657	N.pl3	1	UNK0	0.000	
28	   C	2.594	-0.991	3.758	C.3	1	UNK0	0.000	
29	   C	2.495	0.156	4.750	C.3	1	UNK0	0.000	
30	   O	2.231	1.372	4.146	O.3	1	UNK0	0.000	
31	   C	0.962	1.510	3.627	C.3	1	UNK0	0.000	
32	   C	0.495	0.084	3.242	C.3	1	UNK0	0.000	
33	   H	2.056	-3.443	0.162	 H	1	UNK0	0.000	
34	   H	-1.491	-4.503	-1.905	 H	1	UNK0	0.000	
35	   H	-0.386	-6.604	-2.722	 H	1	UNK0	0.000	
36	   H	1.893	-7.074	-2.094	 H	1	UNK0	0.000	
37	   H	-1.801	-1.353	0.105	 H	1	UNK0	0.000	
38	   H	-0.569	-1.701	1.300	 H	1	UNK0	0.000	
39	   H	-2.336	0.593	0.635	 H	1	UNK0	0.000	
40	   H	-1.765	2.284	0.451	 H	1	UNK0	0.000	
41	   H	-2.603	1.927	-1.674	 H	1	UNK0	0.000	
42	   H	-2.510	0.194	-1.536	 H	1	UNK0	0.000	
43	   H	-0.600	-1.044	-2.145	 H	1	UNK0	0.000	
44	   H	0.985	-0.213	-2.216	 H	1	UNK0	0.000	
45	   H	-1.639	3.739	-1.539	 H	1	UNK0	0.000	
46	   H	0.322	5.609	-5.594	 H	1	UNK0	0.000	
47	   H	0.939	3.310	-4.914	 H	1	UNK0	0.000	
48	   H	2.069	0.461	-0.410	 H	1	UNK0	0.000	
49	   H	1.908	-1.278	-0.672	 H	1	UNK0	0.000	
50	   H	2.135	-1.874	4.190	 H	1	UNK0	0.000	
51	   H	3.600	-1.071	3.369	 H	1	UNK0	0.000	
52	   H	1.784	-0.076	5.572	 H	1	UNK0	0.000	
53	   H	3.493	0.235	5.229	 H	1	UNK0	0.000	
54	   H	0.235	1.982	4.312	 H	1	UNK0	0.000	
55	   H	1.061	2.062	2.662	 H	1	UNK0	0.000	
56	   H	-0.447	0.074	2.739	 H	1	UNK0	0.000	
57	   H	0.298	-0.456	4.228	 H	1	UNK0	0.000	
@<TRIPOS>BOND
1 1 2 1
2 2 3 2
3 2 7 1
4 3 4 1
5 4 5 2
6 4 8 1
7 5 6 1
8 6 7 2
9 8 9 1
10 9 10 1
11 10 11 1
12 10 15 1
13 10 24 1
14 11 12 1
15 12 13 1
16 13 14 1
17 14 15 1
18 14 16 1
19 16 17 2
20 16 18 1
21 18 19 2
22 18 23 1
23 19 20 1
24 20 21 2
25 21 22 1
26 22 23 2
27 24 25 1
28 25 26 2
29 25 27 1
30 27 28 1
31 27 32 1
32 28 29 1
33 29 30 1
34 30 31 1
35 31 32 1
36 3 33 1
37 5 34 1
38 6 35 1
39 7 36 1
40 9 37 1
41 9 38 1
42 12 39 1
43 12 40 1
44 13 41 1
45 13 42 1
46 15 43 1
47 15 44 1
48 19 45 1
49 22 46 1
50 23 47 1
51 24 48 1
52 24 49 1
53 28 50 1
54 28 51 1
55 29 52 1
56 29 53 1
57 31 54 1
58 31 55 1
59 32 56 1
60 32 57 1
@<TRIPOS>SUBSTRUCTURE
1	UNK0	1	GROUP	1 ****	UNK
