# created with PyMOL 2.3.2
@<TRIPOS>MOLECULE
2266
41 44 1                 
SMALL
USER_CHARGES
@<TRIPOS>ATOM
1	   S	-2.392	1.941	0.750	S.O2	1	UNK0	0.000	
2	   O	-2.879	1.572	2.144	O.2	1	UNK0	0.000	
3	   O	-3.120	3.243	0.431	O.2	1	UNK0	0.000	
4	   N	-0.744	2.253	0.724	N.3	1	UNK0	0.000	
5	   C	-0.178	2.721	-0.477	C.3	1	UNK0	0.000	
6	   C	1.338	2.726	-0.481	C.3	1	UNK0	0.000	
7	   C	1.755	1.349	-0.080	C.2	1	UNK0	0.000	
8	   C	1.116	0.805	1.015	C.2	1	UNK0	0.000	
9	   N	1.443	-0.421	1.424	N.2	1	UNK0	0.000	
10	   C	2.396	-1.090	0.744	C.2	1	UNK0	0.000	
11	   N	3.033	-0.583	-0.326	N.pl3	1	UNK0	0.000	
12	   N	3.928	-1.472	-0.796	N.pl3	1	UNK0	0.000	
13	   C	3.904	-2.586	-0.050	C.2	1	UNK0	0.000	
14	   C	2.952	-2.365	0.917	C.2	1	UNK0	0.000	
15	   C	2.727	0.657	-0.768	C.2	1	UNK0	0.000	
16	   O	3.288	1.185	-1.762	O.2	1	UNK0	0.000	
17	   C	0.087	1.642	1.677	C.3	1	UNK0	0.000	
18	   C	-2.966	0.726	-0.326	C.2	1	UNK0	0.000	
19	   C	-2.508	-0.586	-0.230	C.2	1	UNK0	0.000	
20	   C	-2.986	-1.533	-1.109	C.2	1	UNK0	0.000	
21	   C	-3.894	-1.235	-2.072	C.2	1	UNK0	0.000	
22	   C	-4.363	0.043	-2.192	C.2	1	UNK0	0.000	
23	   C	-3.885	0.992	-1.313	C.2	1	UNK0	0.000	
24	  Cl	-5.546	0.459	-3.437	Cl	1	UNK0	0.000	
25	   O	-1.589	-0.972	0.717	O.3	1	UNK0	0.000	
26	   C	-1.169	-2.317	0.757	C.3	1	UNK0	0.000	
27	   H	-0.541	3.760	-0.677	 H	1	UNK0	0.000	
28	   H	-0.548	2.101	-1.336	 H	1	UNK0	0.000	
29	   H	1.689	3.494	0.243	 H	1	UNK0	0.000	
30	   H	1.655	2.970	-1.510	 H	1	UNK0	0.000	
31	   H	4.539	-1.292	-1.625	 H	1	UNK0	0.000	
32	   H	4.497	-3.494	-0.156	 H	1	UNK0	0.000	
33	   H	2.628	-3.036	1.727	 H	1	UNK0	0.000	
34	   H	0.660	2.452	2.218	 H	1	UNK0	0.000	
35	   H	-0.479	1.114	2.442	 H	1	UNK0	0.000	
36	   H	-2.644	-2.579	-1.061	 H	1	UNK0	0.000	
37	   H	-4.271	-1.995	-2.770	 H	1	UNK0	0.000	
38	   H	-4.299	2.003	-1.459	 H	1	UNK0	0.000	
39	   H	-2.034	-3.010	0.835	 H	1	UNK0	0.000	
40	   H	-0.613	-2.604	-0.171	 H	1	UNK0	0.000	
41	   H	-0.442	-2.481	1.590	 H	1	UNK0	0.000	
@<TRIPOS>BOND
1 1 2 2
2 1 3 2
3 1 4 1
4 1 18 1
5 4 5 1
6 4 17 1
7 5 6 1
8 6 7 1
9 7 8 2
10 7 15 1
11 8 9 1
12 8 17 1
13 9 10 2
14 10 11 1
15 10 14 1
16 11 12 1
17 11 15 1
18 12 13 1
19 13 14 2
20 15 16 2
21 18 19 2
22 18 23 1
23 19 20 1
24 19 25 1
25 20 21 2
26 21 22 1
27 22 23 2
28 22 24 1
29 25 26 1
30 5 27 1
31 5 28 1
32 6 29 1
33 6 30 1
34 12 31 1
35 13 32 1
36 14 33 1
37 17 34 1
38 17 35 1
39 20 36 1
40 21 37 1
41 23 38 1
42 26 39 1
43 26 40 1
44 26 41 1
@<TRIPOS>SUBSTRUCTURE
1	UNK0	1	GROUP	1 ****	UNK
