# created with PyMOL 2.3.2
@<TRIPOS>MOLECULE
2268
51 54 1                 
SMALL
USER_CHARGES
@<TRIPOS>ATOM
1	   S	-0.821	-2.487	-0.395	S.O2	1	UNK0	0.000	
2	   O	-0.900	-2.357	1.091	O.2	1	UNK0	0.000	
3	   O	0.600	-2.106	-0.784	O.2	1	UNK0	0.000	
4	   N	-1.903	-1.391	-1.112	N.3	1	UNK0	0.000	
5	   C	-1.800	-1.370	-2.553	C.3	1	UNK0	0.000	
6	   C	-1.254	-0.110	-3.126	C.3	1	UNK0	0.000	
7	   N	-0.191	0.493	-2.303	N.pl3	1	UNK0	0.000	
8	   C	-0.470	0.593	-0.904	C.3	1	UNK0	0.000	
9	   C	-1.830	-0.060	-0.614	C.3	1	UNK0	0.000	
10	   C	0.976	0.918	-2.944	C.2	1	UNK0	0.000	
11	   O	1.015	0.739	-4.255	O.2	1	UNK0	0.000	
12	   C	2.181	1.530	-2.447	C.3	1	UNK0	0.000	
13	   N	2.329	1.796	-1.044	N.pl3	1	UNK0	0.000	
14	   C	1.918	3.001	-0.449	C.2	1	UNK0	0.000	
15	   O	1.374	3.992	-1.029	O.2	1	UNK0	0.000	
16	   C	2.211	2.963	0.983	C.3	1	UNK0	0.000	
17	   C	0.935	2.733	1.753	C.3	1	UNK0	0.000	
18	   C	1.063	3.500	3.032	C.3	1	UNK0	0.000	
19	   C	2.251	4.407	2.916	C.3	1	UNK0	0.000	
20	   C	2.833	4.205	1.534	C.3	1	UNK0	0.000	
21	   C	3.194	1.824	1.136	C.3	1	UNK0	0.000	
22	   C	2.909	0.978	-0.042	C.2	1	UNK0	0.000	
23	   O	3.142	-0.268	-0.147	O.2	1	UNK0	0.000	
24	   C	-1.108	-4.141	-0.892	C.2	1	UNK0	0.000	
25	   S	-2.521	-5.067	-0.683	S.3	1	UNK0	0.000	
26	   C	-2.009	-6.526	-1.419	C.2	1	UNK0	0.000	
27	   C	-0.730	-6.231	-1.808	C.2	1	UNK0	0.000	
28	   C	-0.268	-5.006	-1.537	C.2	1	UNK0	0.000	
29	  Cl	-2.893	-8.047	-1.634	Cl	1	UNK0	0.000	
30	   H	-1.175	-2.236	-2.874	 H	1	UNK0	0.000	
31	   H	-2.846	-1.527	-2.943	 H	1	UNK0	0.000	
32	   H	-2.049	0.671	-3.216	 H	1	UNK0	0.000	
33	   H	-0.816	-0.287	-4.125	 H	1	UNK0	0.000	
34	   H	-0.549	1.665	-0.640	 H	1	UNK0	0.000	
35	   H	0.271	0.133	-0.231	 H	1	UNK0	0.000	
36	   H	-2.576	0.553	-1.164	 H	1	UNK0	0.000	
37	   H	-2.080	0.033	0.463	 H	1	UNK0	0.000	
38	   H	3.108	0.931	-2.726	 H	1	UNK0	0.000	
39	   H	2.347	2.480	-3.031	 H	1	UNK0	0.000	
40	   H	0.722	1.665	1.918	 H	1	UNK0	0.000	
41	   H	0.090	3.179	1.153	 H	1	UNK0	0.000	
42	   H	0.152	4.113	3.213	 H	1	UNK0	0.000	
43	   H	1.129	2.792	3.882	 H	1	UNK0	0.000	
44	   H	2.993	4.142	3.718	 H	1	UNK0	0.000	
45	   H	1.966	5.482	2.991	 H	1	UNK0	0.000	
46	   H	3.937	4.100	1.664	 H	1	UNK0	0.000	
47	   H	2.660	5.052	0.861	 H	1	UNK0	0.000	
48	   H	4.246	2.154	1.135	 H	1	UNK0	0.000	
49	   H	3.005	1.296	2.095	 H	1	UNK0	0.000	
50	   H	-0.135	-7.012	-2.326	 H	1	UNK0	0.000	
51	   H	0.753	-4.660	-1.807	 H	1	UNK0	0.000	
@<TRIPOS>BOND
1 1 2 2
2 1 3 2
3 1 4 1
4 1 24 1
5 4 5 1
6 4 9 1
7 5 6 1
8 6 7 1
9 7 8 1
10 7 10 1
11 8 9 1
12 10 11 2
13 10 12 1
14 12 13 1
15 13 14 1
16 13 22 1
17 14 15 2
18 14 16 1
19 16 17 1
20 16 20 1
21 16 21 1
22 17 18 1
23 18 19 1
24 19 20 1
25 21 22 1
26 22 23 2
27 24 25 1
28 24 28 2
29 25 26 1
30 26 27 2
31 26 29 1
32 27 28 1
33 5 30 1
34 5 31 1
35 6 32 1
36 6 33 1
37 8 34 1
38 8 35 1
39 9 36 1
40 9 37 1
41 12 38 1
42 12 39 1
43 17 40 1
44 17 41 1
45 18 42 1
46 18 43 1
47 19 44 1
48 19 45 1
49 20 46 1
50 20 47 1
51 21 48 1
52 21 49 1
53 27 50 1
54 28 51 1
@<TRIPOS>SUBSTRUCTURE
1	UNK0	1	GROUP	1 ****	UNK
