# created with PyMOL 2.3.2
@<TRIPOS>MOLECULE
2269
45 48 1                 
SMALL
USER_CHARGES
@<TRIPOS>ATOM
1	   S	1.647	-1.077	1.576	S.O2	1	UNK0	0.000	
2	   O	1.536	-1.528	3.006	O.2	1	UNK0	0.000	
3	   O	2.495	-2.105	0.860	O.2	1	UNK0	0.000	
4	   N	0.144	-0.993	0.804	N.3	1	UNK0	0.000	
5	   C	0.249	-0.636	-0.567	C.3	1	UNK0	0.000	
6	   C	-1.011	0.048	-1.090	C.3	1	UNK0	0.000	
7	   N	-2.218	-0.449	-0.481	N.pl3	1	UNK0	0.000	
8	   C	-2.205	-0.719	0.942	C.3	1	UNK0	0.000	
9	   C	-0.872	-0.264	1.491	C.3	1	UNK0	0.000	
10	   C	-3.383	-0.658	-1.263	C.2	1	UNK0	0.000	
11	   O	-4.430	-1.108	-0.718	O.2	1	UNK0	0.000	
12	   C	-3.370	-0.356	-2.683	C.3	1	UNK0	0.000	
13	   O	-4.582	-0.659	-3.322	O.3	1	UNK0	0.000	
14	   C	-4.380	-0.156	-4.616	C.3	1	UNK0	0.000	
15	   C	-3.580	1.119	-4.463	C.3	1	UNK0	0.000	
16	   C	-3.354	1.155	-2.963	C.3	1	UNK0	0.000	
17	   C	2.493	0.459	1.570	C.2	1	UNK0	0.000	
18	   N	2.329	1.421	2.495	N.pl3	1	UNK0	0.000	
19	   C	3.135	2.454	2.198	C.2	1	UNK0	0.000	
20	   N	3.804	2.127	1.078	N.2	1	UNK0	0.000	
21	   C	3.432	0.907	0.667	C.2	1	UNK0	0.000	
22	  Cl	4.014	0.015	-0.731	Cl	1	UNK0	0.000	
23	   C	3.180	3.603	2.986	C.2	1	UNK0	0.000	
24	   C	2.369	3.647	4.087	C.2	1	UNK0	0.000	
25	   C	1.552	2.576	4.372	C.2	1	UNK0	0.000	
26	   C	1.515	1.454	3.591	C.2	1	UNK0	0.000	
27	   H	1.061	0.088	-0.762	 H	1	UNK0	0.000	
28	   H	0.484	-1.554	-1.149	 H	1	UNK0	0.000	
29	   H	-0.986	-0.178	-2.198	 H	1	UNK0	0.000	
30	   H	-0.925	1.121	-0.875	 H	1	UNK0	0.000	
31	   H	-2.325	-1.799	1.164	 H	1	UNK0	0.000	
32	   H	-3.053	-0.197	1.462	 H	1	UNK0	0.000	
33	   H	-0.812	-0.556	2.572	 H	1	UNK0	0.000	
34	   H	-0.712	0.812	1.347	 H	1	UNK0	0.000	
35	   H	-2.580	-0.810	-3.279	 H	1	UNK0	0.000	
36	   H	-3.804	-0.924	-5.172	 H	1	UNK0	0.000	
37	   H	-5.349	0.093	-5.102	 H	1	UNK0	0.000	
38	   H	-4.073	2.004	-4.853	 H	1	UNK0	0.000	
39	   H	-2.566	0.942	-4.915	 H	1	UNK0	0.000	
40	   H	-4.272	1.609	-2.528	 H	1	UNK0	0.000	
41	   H	-2.436	1.645	-2.660	 H	1	UNK0	0.000	
42	   H	3.833	4.414	2.726	 H	1	UNK0	0.000	
43	   H	2.346	4.519	4.761	 H	1	UNK0	0.000	
44	   H	0.898	2.610	5.257	 H	1	UNK0	0.000	
45	   H	0.877	0.606	3.806	 H	1	UNK0	0.000	
@<TRIPOS>BOND
1 1 2 2
2 1 3 2
3 1 4 1
4 1 17 1
5 4 5 1
6 4 9 1
7 5 6 1
8 6 7 1
9 7 8 1
10 7 10 1
11 8 9 1
12 10 11 2
13 10 12 1
14 12 13 1
15 12 16 1
16 13 14 1
17 14 15 1
18 15 16 1
19 17 18 1
20 17 21 2
21 18 19 1
22 18 26 1
23 19 20 2
24 19 23 1
25 20 21 1
26 21 22 1
27 23 24 2
28 24 25 1
29 25 26 2
30 5 27 1
31 5 28 1
32 6 29 1
33 6 30 1
34 8 31 1
35 8 32 1
36 9 33 1
37 9 34 1
38 12 35 1
39 14 36 1
40 14 37 1
41 15 38 1
42 15 39 1
43 16 40 1
44 16 41 1
45 23 42 1
46 24 43 1
47 25 44 1
48 26 45 1
@<TRIPOS>SUBSTRUCTURE
1	UNK0	1	GROUP	1 ****	UNK
