# created with PyMOL 2.3.2
@<TRIPOS>MOLECULE
2270
41 43 1                 
SMALL
USER_CHARGES
@<TRIPOS>ATOM
1	  Cl	0.597	-2.164	-6.058	Cl	1	UNK0	0.000	
2	   C	0.589	-1.765	-4.342	C.2	1	UNK0	0.000	
3	   C	1.350	-2.514	-3.470	C.2	1	UNK0	0.000	
4	   C	1.331	-2.187	-2.133	C.2	1	UNK0	0.000	
5	   C	0.576	-1.129	-1.616	C.2	1	UNK0	0.000	
6	   C	-0.174	-0.393	-2.487	C.2	1	UNK0	0.000	
7	   C	-0.167	-0.711	-3.850	C.2	1	UNK0	0.000	
8	   C	0.646	-0.889	-0.197	C.2	1	UNK0	0.000	
9	   O	1.475	-1.544	0.496	O.2	1	UNK0	0.000	
10	   N	-0.220	0.079	0.398	N.pl3	1	UNK0	0.000	
11	   C	-0.119	0.289	1.812	C.3	1	UNK0	0.000	
12	   C	-1.025	1.288	2.413	C.3	1	UNK0	0.000	
13	   N	-2.432	1.062	2.286	N.3	1	UNK0	0.000	
14	   C	-3.014	1.523	3.570	C.3	1	UNK0	0.000	
15	   C	-2.351	2.886	3.805	C.3	1	UNK0	0.000	
16	   N	-1.879	3.483	2.572	N.3	1	UNK0	0.000	
17	   C	-0.773	2.724	1.983	C.3	1	UNK0	0.000	
18	   C	-2.965	3.378	1.613	C.3	1	UNK0	0.000	
19	   C	-3.098	1.892	1.303	C.3	1	UNK0	0.000	
20	   O	2.110	-3.570	-3.954	O.3	1	UNK0	0.000	
21	   C	2.903	-4.363	-3.092	C.3	1	UNK0	0.000	
22	   H	1.946	-2.803	-1.476	 H	1	UNK0	0.000	
23	   H	-0.773	0.429	-2.166	 H	1	UNK0	0.000	
24	   H	-0.769	-0.114	-4.521	 H	1	UNK0	0.000	
25	   H	-0.872	0.582	-0.203	 H	1	UNK0	0.000	
26	   H	-0.235	-0.665	2.346	 H	1	UNK0	0.000	
27	   H	0.933	0.651	2.001	 H	1	UNK0	0.000	
28	   H	-0.759	1.302	3.524	 H	1	UNK0	0.000	
29	   H	-2.668	0.789	4.320	 H	1	UNK0	0.000	
30	   H	-4.099	1.602	3.477	 H	1	UNK0	0.000	
31	   H	-3.172	3.538	4.171	 H	1	UNK0	0.000	
32	   H	-1.591	2.817	4.590	 H	1	UNK0	0.000	
33	   H	-0.812	2.874	0.904	 H	1	UNK0	0.000	
34	   H	0.191	3.077	2.412	 H	1	UNK0	0.000	
35	   H	-2.639	3.922	0.705	 H	1	UNK0	0.000	
36	   H	-3.853	3.807	2.090	 H	1	UNK0	0.000	
37	   H	-2.892	1.659	0.266	 H	1	UNK0	0.000	
38	   H	-4.205	1.687	1.458	 H	1	UNK0	0.000	
39	   H	2.204	-4.860	-2.386	 H	1	UNK0	0.000	
40	   H	3.575	-3.719	-2.466	 H	1	UNK0	0.000	
41	   H	3.446	-5.103	-3.679	 H	1	UNK0	0.000	
@<TRIPOS>BOND
1 1 2 1
2 2 3 2
3 2 7 1
4 3 4 1
5 3 20 1
6 4 5 2
7 5 6 1
8 5 8 1
9 6 7 2
10 8 9 2
11 8 10 1
12 10 11 1
13 11 12 1
14 12 13 1
15 12 17 1
16 13 14 1
17 13 19 1
18 14 15 1
19 15 16 1
20 16 17 1
21 16 18 1
22 18 19 1
23 20 21 1
24 4 22 1
25 6 23 1
26 7 24 1
27 10 25 1
28 11 26 1
29 11 27 1
30 12 28 1
31 14 29 1
32 14 30 1
33 15 31 1
34 15 32 1
35 17 33 1
36 17 34 1
37 18 35 1
38 18 36 1
39 19 37 1
40 19 38 1
41 21 39 1
42 21 40 1
43 21 41 1
@<TRIPOS>SUBSTRUCTURE
1	UNK0	1	GROUP	1 ****	UNK
