# created with PyMOL 2.3.2
@<TRIPOS>MOLECULE
2273
43 46 1                 
SMALL
USER_CHARGES
@<TRIPOS>ATOM
1	   S	1.711	2.263	-2.917	S.O2	1	UNK0	0.000	
2	   O	1.800	3.765	-3.040	O.2	1	UNK0	0.000	
3	   O	2.978	1.730	-3.568	O.2	1	UNK0	0.000	
4	   N	1.568	1.808	-1.308	N.3	1	UNK0	0.000	
5	   C	1.507	0.409	-1.090	C.3	1	UNK0	0.000	
6	   C	0.885	0.216	0.304	C.3	1	UNK0	0.000	
7	   N	1.841	0.703	1.227	N.3	1	UNK0	0.000	
8	   C	2.429	1.964	0.986	C.3	1	UNK0	0.000	
9	   C	2.247	2.582	-0.347	C.3	1	UNK0	0.000	
10	   C	1.580	0.405	2.603	C.3	1	UNK0	0.000	
11	   C	1.515	-1.058	2.870	C.2	1	UNK0	0.000	
12	   C	2.625	-1.797	3.200	C.2	1	UNK0	0.000	
13	   C	2.511	-3.143	3.437	C.2	1	UNK0	0.000	
14	   O	3.593	-3.765	3.741	O.2	1	UNK0	0.000	
15	   N	1.319	-3.796	3.359	N.pl3	1	UNK0	0.000	
16	   N	1.085	-5.132	3.574	N.pl3	1	UNK0	0.000	
17	   C	-0.232	-5.577	3.435	C.2	1	UNK0	0.000	
18	   C	-0.782	-6.762	3.567	C.2	1	UNK0	0.000	
19	   S	-1.164	-4.114	2.997	S.3	1	UNK0	0.000	
20	   C	0.281	-3.060	3.042	C.2	1	UNK0	0.000	
21	   N	0.371	-1.758	2.808	N.2	1	UNK0	0.000	
22	   C	0.348	1.781	-3.933	C.2	1	UNK0	0.000	
23	   S	0.166	1.994	-5.615	S.3	1	UNK0	0.000	
24	   C	-1.379	1.307	-5.814	C.2	1	UNK0	0.000	
25	   C	-1.714	0.925	-4.546	C.2	1	UNK0	0.000	
26	   C	-0.819	1.172	-3.572	C.2	1	UNK0	0.000	
27	  Cl	-2.352	1.111	-7.284	Cl	1	UNK0	0.000	
28	   H	0.968	-0.143	-1.844	 H	1	UNK0	0.000	
29	   H	2.561	0.013	-0.948	 H	1	UNK0	0.000	
30	   H	-0.085	0.765	0.322	 H	1	UNK0	0.000	
31	   H	0.754	-0.870	0.418	 H	1	UNK0	0.000	
32	   H	3.523	1.890	1.270	 H	1	UNK0	0.000	
33	   H	2.028	2.683	1.756	 H	1	UNK0	0.000	
34	   H	1.767	3.580	-0.282	 H	1	UNK0	0.000	
35	   H	3.274	2.807	-0.766	 H	1	UNK0	0.000	
36	   H	2.395	0.885	3.201	 H	1	UNK0	0.000	
37	   H	0.630	0.843	2.952	 H	1	UNK0	0.000	
38	   H	3.589	-1.283	3.266	 H	1	UNK0	0.000	
39	   H	1.837	-5.846	3.839	 H	1	UNK0	0.000	
40	   H	-1.822	-6.960	3.428	 H	1	UNK0	0.000	
41	   H	-0.156	-7.622	3.839	 H	1	UNK0	0.000	
42	   H	-2.699	0.432	-4.365	 H	1	UNK0	0.000	
43	   H	-1.011	0.904	-2.508	 H	1	UNK0	0.000	
@<TRIPOS>BOND
1 1 2 2
2 1 3 2
3 1 4 1
4 1 22 1
5 4 5 1
6 4 9 1
7 5 6 1
8 6 7 1
9 7 8 1
10 7 10 1
11 8 9 1
12 10 11 1
13 11 12 2
14 11 21 1
15 12 13 1
16 13 14 2
17 13 15 1
18 15 16 1
19 15 20 1
20 16 17 1
21 17 18 2
22 17 19 1
23 19 20 1
24 20 21 2
25 22 23 1
26 22 26 2
27 23 24 1
28 24 25 2
29 24 27 1
30 25 26 1
31 5 28 1
32 5 29 1
33 6 30 1
34 6 31 1
35 8 32 1
36 8 33 1
37 9 34 1
38 9 35 1
39 10 36 1
40 10 37 1
41 12 38 1
42 16 39 1
43 18 40 1
44 18 41 1
45 25 42 1
46 26 43 1
@<TRIPOS>SUBSTRUCTURE
1	UNK0	1	GROUP	1 ****	UNK
