# created with PyMOL 2.3.2
@<TRIPOS>MOLECULE
2274
61 63 1                 
SMALL
USER_CHARGES
@<TRIPOS>ATOM
1	  Cl	2.864	-3.272	-2.458	Cl	1	UNK0	0.000	
2	   C	1.955	-2.240	-1.376	C.2	1	UNK0	0.000	
3	   N	1.327	-1.101	-1.645	N.pl3	1	UNK0	0.000	
4	   C	0.765	-0.660	-0.509	C.2	1	UNK0	0.000	
5	   C	1.049	-1.555	0.516	C.2	1	UNK0	0.000	
6	   N	1.788	-2.521	-0.061	N.2	1	UNK0	0.000	
7	   N	0.601	-1.345	1.758	N.pl3	1	UNK0	0.000	
8	   C	-0.128	-0.262	2.016	C.2	1	UNK0	0.000	
9	   O	-0.558	-0.049	3.180	O.2	1	UNK0	0.000	
10	   N	-0.411	0.609	1.046	N.pl3	1	UNK0	0.000	
11	   C	0.003	0.466	-0.223	C.2	1	UNK0	0.000	
12	   O	-0.294	1.322	-1.104	O.2	1	UNK0	0.000	
13	   C	-1.210	1.790	1.341	C.3	1	UNK0	0.000	
14	   C	0.903	-2.270	2.781	C.2	1	UNK0	0.000	
15	   O	1.592	-3.287	2.522	O.co2	1	UNK0	0.000	
16	   O	0.428	-2.041	4.084	O.co2	1	UNK0	0.000	
17	   N	-2.557	0.452	-2.626	N.4	1	UNK0	0.000	
18	   C	-1.322	0.525	-1.824	C.3	1	UNK0	0.000	
19	   C	-1.510	-0.339	-0.648	C.3	1	UNK0	0.000	
20	   O	-0.533	-0.465	0.271	O.3	1	UNK0	0.000	
21	   C	-0.085	0.627	0.938	C.3	1	UNK0	0.000	
22	   C	1.374	0.746	0.821	C.2	1	UNK0	0.000	
23	   C	2.170	1.076	1.924	C.2	1	UNK0	0.000	
24	   C	3.523	1.189	1.841	C.2	1	UNK0	0.000	
25	   C	4.163	0.976	0.640	C.2	1	UNK0	0.000	
26	   C	3.417	0.650	-0.469	C.2	1	UNK0	0.000	
27	   C	2.023	0.538	-0.366	C.2	1	UNK0	0.000	
28	   C	-0.449	0.387	2.393	C.2	1	UNK0	0.000	
29	   C	-0.241	-0.819	3.016	C.2	1	UNK0	0.000	
30	   C	-0.575	-1.032	4.344	C.2	1	UNK0	0.000	
31	   C	-1.135	0.017	5.050	C.2	1	UNK0	0.000	
32	   C	-1.355	1.231	4.461	C.2	1	UNK0	0.000	
33	   C	-1.006	1.407	3.121	C.2	1	UNK0	0.000	
34	   C	-2.551	-0.733	-3.460	C.3	1	UNK0	0.000	
35	   C	-2.577	1.606	-3.473	C.3	1	UNK0	0.000	
36	   H	1.273	-0.630	-2.553	 H	1	UNK0	0.000	
37	   H	-1.310	1.983	2.417	 H	1	UNK0	0.000	
38	   H	-0.763	2.664	0.784	 H	1	UNK0	0.000	
39	   H	-2.216	1.595	0.904	 H	1	UNK0	0.000	
40	   H	-3.331	0.405	-1.947	 H	1	UNK0	0.000	
41	   H	-0.543	0.111	-2.503	 H	1	UNK0	0.000	
42	   H	-1.191	1.597	-1.605	 H	1	UNK0	0.000	
43	   H	-1.729	-1.380	-1.035	 H	1	UNK0	0.000	
44	   H	-2.442	0.010	-0.110	 H	1	UNK0	0.000	
45	   H	-0.538	1.588	0.622	 H	1	UNK0	0.000	
46	   H	1.633	1.236	2.852	 H	1	UNK0	0.000	
47	   H	4.133	1.444	2.694	 H	1	UNK0	0.000	
48	   H	5.254	1.068	0.576	 H	1	UNK0	0.000	
49	   H	3.946	0.489	-1.397	 H	1	UNK0	0.000	
50	   H	1.474	0.277	-1.258	 H	1	UNK0	0.000	
51	   H	0.195	-1.648	2.481	 H	1	UNK0	0.000	
52	   H	-0.400	-1.992	4.811	 H	1	UNK0	0.000	
53	   H	-1.392	-0.160	6.089	 H	1	UNK0	0.000	
54	   H	-1.793	2.017	5.048	 H	1	UNK0	0.000	
55	   H	-1.195	2.380	2.691	 H	1	UNK0	0.000	
56	   H	-3.511	-0.729	-4.015	 H	1	UNK0	0.000	
57	   H	-2.511	-1.670	-2.896	 H	1	UNK0	0.000	
58	   H	-1.752	-0.648	-4.229	 H	1	UNK0	0.000	
59	   H	-1.526	1.888	-3.716	 H	1	UNK0	0.000	
60	   H	-3.168	1.453	-4.413	 H	1	UNK0	0.000	
61	   H	-3.007	2.469	-2.886	 H	1	UNK0	0.000	
@<TRIPOS>BOND
1 1 2 1
2 2 3 1
3 2 6 2
4 3 4 1
5 4 5 2
6 4 11 1
7 5 6 1
8 5 7 1
9 7 8 1
10 7 14 1
11 8 9 2
12 8 10 1
13 10 11 1
14 10 13 1
15 11 12 2
16 14 15 2
17 14 16 1
18 17 18 1
19 17 34 1
20 17 35 1
21 18 19 1
22 19 20 1
23 20 21 1
24 21 22 1
25 21 28 1
26 22 23 2
27 22 27 1
28 23 24 1
29 24 25 2
30 25 26 1
31 26 27 2
32 28 29 2
33 28 33 1
34 29 30 1
35 30 31 2
36 31 32 1
37 32 33 2
38 3 36 1
39 13 37 1
40 13 38 1
41 13 39 1
42 17 40 1
43 18 41 1
44 18 42 1
45 19 43 1
46 19 44 1
47 21 45 1
48 23 46 1
49 24 47 1
50 25 48 1
51 26 49 1
52 27 50 1
53 29 51 1
54 30 52 1
55 31 53 1
56 32 54 1
57 33 55 1
58 34 56 1
59 34 57 1
60 34 58 1
61 35 59 1
62 35 60 1
63 35 61 1
@<TRIPOS>SUBSTRUCTURE
1	UNK0	1	GROUP	1 ****	UNK
