# created with PyMOL 2.3.2
@<TRIPOS>MOLECULE
2275
38 40 1                 
SMALL
USER_CHARGES
@<TRIPOS>ATOM
1	  Cl	-0.354	-0.314	-4.275	Cl	1	UNK0	0.000	
2	   C	-0.043	-0.120	-2.564	C.2	1	UNK0	0.000	
3	   C	0.148	-1.229	-1.766	C.2	1	UNK0	0.000	
4	   C	0.393	-1.001	-0.430	C.2	1	UNK0	0.000	
5	   O	0.583	-1.949	0.392	O.2	1	UNK0	0.000	
6	   N	0.436	0.255	0.039	N.pl3	1	UNK0	0.000	
7	   N	0.260	1.342	-0.686	N.pl3	1	UNK0	0.000	
8	   C	0.316	2.686	-0.136	C.3	1	UNK0	0.000	
9	   C	-0.895	3.013	0.712	C.3	1	UNK0	0.000	
10	   C	-0.732	2.447	2.112	C.3	1	UNK0	0.000	
11	   C	-0.595	0.942	2.084	C.3	1	UNK0	0.000	
12	   C	0.698	0.474	1.470	C.3	1	UNK0	0.000	
13	   C	1.677	1.591	1.544	C.2	1	UNK0	0.000	
14	   C	1.492	2.684	0.812	C.2	1	UNK0	0.000	
15	   C	0.015	1.143	-2.015	C.2	1	UNK0	0.000	
16	   O	-0.160	2.178	-2.743	O.2	1	UNK0	0.000	
17	   N	0.098	-2.563	-2.263	N.pl3	1	UNK0	0.000	
18	   C	-1.087	-3.376	-2.301	C.3	1	UNK0	0.000	
19	   C	-1.668	-3.597	-0.915	C.3	1	UNK0	0.000	
20	   C	-2.173	-2.847	-3.177	C.3	1	UNK0	0.000	
21	   H	0.463	3.444	-0.905	 H	1	UNK0	0.000	
22	   H	-1.843	2.714	0.248	 H	1	UNK0	0.000	
23	   H	-0.923	4.119	0.821	 H	1	UNK0	0.000	
24	   H	-1.666	2.671	2.663	 H	1	UNK0	0.000	
25	   H	0.156	2.904	2.577	 H	1	UNK0	0.000	
26	   H	-1.477	0.568	1.487	 H	1	UNK0	0.000	
27	   H	-0.752	0.550	3.108	 H	1	UNK0	0.000	
28	   H	1.083	-0.451	1.942	 H	1	UNK0	0.000	
29	   H	2.551	1.524	2.195	 H	1	UNK0	0.000	
30	   H	2.144	3.546	0.877	 H	1	UNK0	0.000	
31	   H	1.033	-2.930	-2.616	 H	1	UNK0	0.000	
32	   H	-0.806	-4.379	-2.678	 H	1	UNK0	0.000	
33	   H	-1.979	-2.631	-0.457	 H	1	UNK0	0.000	
34	   H	-2.585	-4.198	-1.048	 H	1	UNK0	0.000	
35	   H	-0.979	-4.165	-0.257	 H	1	UNK0	0.000	
36	   H	-3.058	-3.511	-3.027	 H	1	UNK0	0.000	
37	   H	-1.917	-2.866	-4.265	 H	1	UNK0	0.000	
38	   H	-2.490	-1.848	-2.849	 H	1	UNK0	0.000	
@<TRIPOS>BOND
1 1 2 1
2 2 3 2
3 2 15 1
4 3 4 1
5 3 17 1
6 4 5 2
7 4 6 1
8 6 7 1
9 6 12 1
10 7 8 1
11 7 15 1
12 8 9 1
13 8 14 1
14 9 10 1
15 10 11 1
16 11 12 1
17 12 13 1
18 13 14 2
19 15 16 2
20 17 18 1
21 18 19 1
22 18 20 1
23 8 21 1
24 9 22 1
25 9 23 1
26 10 24 1
27 10 25 1
28 11 26 1
29 11 27 1
30 12 28 1
31 13 29 1
32 14 30 1
33 17 31 1
34 18 32 1
35 19 33 1
36 19 34 1
37 19 35 1
38 20 36 1
39 20 37 1
40 20 38 1
@<TRIPOS>SUBSTRUCTURE
1	UNK0	1	GROUP	1 ****	UNK
