# created with PyMOL 2.3.2
@<TRIPOS>MOLECULE
2276
36 39 1                 
SMALL
USER_CHARGES
@<TRIPOS>ATOM
1	  Cl	2.230	-3.102	1.134	Cl	1	UNK0	0.000	
2	   C	1.442	-1.666	0.511	C.2	1	UNK0	0.000	
3	   C	0.486	-1.827	-0.470	C.2	1	UNK0	0.000	
4	   C	-0.098	-0.638	-0.925	C.2	1	UNK0	0.000	
5	   O	-0.969	-0.725	-1.812	O.2	1	UNK0	0.000	
6	   N	0.264	0.550	-0.426	N.pl3	1	UNK0	0.000	
7	   N	1.183	0.697	0.516	N.pl3	1	UNK0	0.000	
8	   C	1.453	2.060	0.951	C.3	1	UNK0	0.000	
9	   C	1.852	2.837	-0.290	C.3	1	UNK0	0.000	
10	   C	0.868	2.647	-1.362	C.3	1	UNK0	0.000	
11	   C	-0.327	1.807	-0.891	C.3	1	UNK0	0.000	
12	   C	-0.820	2.468	0.366	C.2	1	UNK0	0.000	
13	   C	0.090	2.601	1.316	C.2	1	UNK0	0.000	
14	   C	1.065	4.022	-0.709	C.3	1	UNK0	0.000	
15	   C	1.771	-0.399	0.984	C.2	1	UNK0	0.000	
16	   O	2.645	-0.270	1.879	O.2	1	UNK0	0.000	
17	   N	0.087	-3.085	-1.007	N.pl3	1	UNK0	0.000	
18	   C	-0.977	-3.886	-0.522	C.3	1	UNK0	0.000	
19	   C	-0.833	-4.322	0.913	C.3	1	UNK0	0.000	
20	   C	-2.336	-3.209	-0.633	C.3	1	UNK0	0.000	
21	   H	2.165	2.131	1.766	 H	1	UNK0	0.000	
22	   H	2.940	2.895	-0.461	 H	1	UNK0	0.000	
23	   H	1.146	2.562	-2.429	 H	1	UNK0	0.000	
24	   H	-1.087	1.681	-1.647	 H	1	UNK0	0.000	
25	   H	-1.847	2.779	0.411	 H	1	UNK0	0.000	
26	   H	-0.038	3.041	2.286	 H	1	UNK0	0.000	
27	   H	1.561	4.802	-1.290	 H	1	UNK0	0.000	
28	   H	0.210	4.305	-0.031	 H	1	UNK0	0.000	
29	   H	0.643	-3.415	-1.824	 H	1	UNK0	0.000	
30	   H	-1.059	-4.813	-1.124	 H	1	UNK0	0.000	
31	   H	-0.027	-5.067	1.070	 H	1	UNK0	0.000	
32	   H	-1.771	-4.856	1.250	 H	1	UNK0	0.000	
33	   H	-0.692	-3.513	1.624	 H	1	UNK0	0.000	
34	   H	-3.078	-3.992	-0.303	 H	1	UNK0	0.000	
35	   H	-2.587	-2.999	-1.687	 H	1	UNK0	0.000	
36	   H	-2.457	-2.370	0.050	 H	1	UNK0	0.000	
@<TRIPOS>BOND
1 1 2 1
2 2 3 2
3 2 15 1
4 3 4 1
5 3 17 1
6 4 5 2
7 4 6 1
8 6 7 1
9 6 11 1
10 7 8 1
11 7 15 1
12 8 9 1
13 8 13 1
14 9 10 1
15 9 14 1
16 10 11 1
17 10 14 1
18 11 12 1
19 12 13 2
20 15 16 2
21 17 18 1
22 18 19 1
23 18 20 1
24 8 21 1
25 9 22 1
26 10 23 1
27 11 24 1
28 12 25 1
29 13 26 1
30 14 27 1
31 14 28 1
32 17 29 1
33 18 30 1
34 19 31 1
35 19 32 1
36 19 33 1
37 20 34 1
38 20 35 1
39 20 36 1
@<TRIPOS>SUBSTRUCTURE
1	UNK0	1	GROUP	1 ****	UNK
