# created with PyMOL 2.3.2
@<TRIPOS>MOLECULE
2282
56 59 1                 
SMALL
USER_CHARGES
@<TRIPOS>ATOM
1	  Cl	1.179	0.970	-4.238	Cl	1	UNK0	0.000	
2	   C	0.611	-0.200	-3.066	C.2	1	UNK0	0.000	
3	   C	-0.292	0.250	-2.107	C.2	1	UNK0	0.000	
4	   C	-0.719	-0.697	-1.201	C.2	1	UNK0	0.000	
5	   N	-0.269	-1.962	-1.272	N.2	1	UNK0	0.000	
6	   N	0.587	-2.409	-2.174	N.pl3	1	UNK0	0.000	
7	   C	1.030	-1.516	-3.079	C.2	1	UNK0	0.000	
8	   O	1.849	-1.919	-3.952	O.2	1	UNK0	0.000	
9	   C	1.025	-3.774	-2.186	C.2	1	UNK0	0.000	
10	   C	0.103	-4.795	-2.169	C.2	1	UNK0	0.000	
11	   C	0.519	-6.131	-2.181	C.2	1	UNK0	0.000	
12	   C	1.854	-6.464	-2.210	C.2	1	UNK0	0.000	
13	   C	2.784	-5.448	-2.228	C.2	1	UNK0	0.000	
14	   C	2.358	-4.124	-2.215	C.2	1	UNK0	0.000	
15	   N	-0.734	1.598	-2.066	N.pl3	1	UNK0	0.000	
16	   C	0.170	2.708	-1.882	C.3	1	UNK0	0.000	
17	   C	-0.394	3.665	-0.879	C.3	1	UNK0	0.000	
18	   N	-1.511	3.012	-0.243	N.3	1	UNK0	0.000	
19	   C	-2.571	2.902	-1.179	C.3	1	UNK0	0.000	
20	   C	-2.143	1.861	-2.218	C.3	1	UNK0	0.000	
21	   C	-1.809	3.418	1.072	C.3	1	UNK0	0.000	
22	   C	-0.832	2.998	2.082	C.2	1	UNK0	0.000	
23	   O	-1.062	3.384	3.278	O.2	1	UNK0	0.000	
24	   N	0.324	2.213	1.854	N.pl3	1	UNK0	0.000	
25	   C	1.256	1.824	2.882	C.3	1	UNK0	0.000	
26	   C	0.548	1.003	3.915	C.3	1	UNK0	0.000	
27	   O	0.014	-0.111	3.324	O.3	1	UNK0	0.000	
28	   C	0.482	-1.252	3.916	C.3	1	UNK0	0.000	
29	   C	0.790	-0.810	5.331	C.3	1	UNK0	0.000	
30	   C	1.499	0.514	4.998	C.3	1	UNK0	0.000	
31	   H	-1.426	-0.371	-0.440	 H	1	UNK0	0.000	
32	   H	-0.960	-4.535	-2.146	 H	1	UNK0	0.000	
33	   H	-0.198	-6.935	-2.168	 H	1	UNK0	0.000	
34	   H	2.218	-7.497	-2.221	 H	1	UNK0	0.000	
35	   H	3.835	-5.714	-2.250	 H	1	UNK0	0.000	
36	   H	3.082	-3.319	-2.229	 H	1	UNK0	0.000	
37	   H	0.458	3.193	-2.837	 H	1	UNK0	0.000	
38	   H	1.153	2.352	-1.450	 H	1	UNK0	0.000	
39	   H	-0.836	4.541	-1.443	 H	1	UNK0	0.000	
40	   H	0.311	4.000	-0.116	 H	1	UNK0	0.000	
41	   H	-3.555	2.685	-0.747	 H	1	UNK0	0.000	
42	   H	-2.650	3.872	-1.726	 H	1	UNK0	0.000	
43	   H	-2.402	2.188	-3.256	 H	1	UNK0	0.000	
44	   H	-2.747	0.952	-1.975	 H	1	UNK0	0.000	
45	   H	-2.839	3.099	1.398	 H	1	UNK0	0.000	
46	   H	-1.837	4.550	1.072	 H	1	UNK0	0.000	
47	   H	0.502	1.892	0.881	 H	1	UNK0	0.000	
48	   H	1.707	2.724	3.380	 H	1	UNK0	0.000	
49	   H	2.069	1.243	2.422	 H	1	UNK0	0.000	
50	   H	-0.238	1.577	4.429	 H	1	UNK0	0.000	
51	   H	1.448	-1.528	3.450	 H	1	UNK0	0.000	
52	   H	-0.260	-2.068	3.883	 H	1	UNK0	0.000	
53	   H	1.423	-1.498	5.885	 H	1	UNK0	0.000	
54	   H	-0.162	-0.542	5.833	 H	1	UNK0	0.000	
55	   H	2.477	0.212	4.557	 H	1	UNK0	0.000	
56	   H	1.571	1.167	5.862	 H	1	UNK0	0.000	
@<TRIPOS>BOND
1 1 2 1
2 2 3 2
3 2 7 1
4 3 4 1
5 3 15 1
6 4 5 2
7 5 6 1
8 6 7 1
9 6 9 1
10 7 8 2
11 9 10 2
12 9 14 1
13 10 11 1
14 11 12 2
15 12 13 1
16 13 14 2
17 15 16 1
18 15 20 1
19 16 17 1
20 17 18 1
21 18 19 1
22 18 21 1
23 19 20 1
24 21 22 1
25 22 23 2
26 22 24 1
27 24 25 1
28 25 26 1
29 26 27 1
30 26 30 1
31 27 28 1
32 28 29 1
33 29 30 1
34 4 31 1
35 10 32 1
36 11 33 1
37 12 34 1
38 13 35 1
39 14 36 1
40 16 37 1
41 16 38 1
42 17 39 1
43 17 40 1
44 19 41 1
45 19 42 1
46 20 43 1
47 20 44 1
48 21 45 1
49 21 46 1
50 24 47 1
51 25 48 1
52 25 49 1
53 26 50 1
54 28 51 1
55 28 52 1
56 29 53 1
57 29 54 1
58 30 55 1
59 30 56 1
@<TRIPOS>SUBSTRUCTURE
1	UNK0	1	GROUP	1 ****	UNK
