# created with PyMOL 2.3.2
@<TRIPOS>MOLECULE
2283
60 63 1                 
SMALL
USER_CHARGES
@<TRIPOS>ATOM
1	  Cl	2.935	1.640	-4.722	Cl	1	UNK0	0.000	
2	   C	3.194	1.650	-2.980	C.2	1	UNK0	0.000	
3	   C	3.174	0.510	-2.213	C.2	1	UNK0	0.000	
4	   C	3.426	0.619	-0.831	C.2	1	UNK0	0.000	
5	   N	3.670	1.804	-0.316	N.2	1	UNK0	0.000	
6	   N	3.700	2.926	-1.003	N.pl3	1	UNK0	0.000	
7	   C	3.465	2.856	-2.323	C.2	1	UNK0	0.000	
8	   O	3.485	3.890	-3.005	O.2	1	UNK0	0.000	
9	   C	3.971	4.131	-0.312	C.2	1	UNK0	0.000	
10	   C	4.820	5.072	-0.845	C.2	1	UNK0	0.000	
11	   C	5.097	6.257	-0.188	C.2	1	UNK0	0.000	
12	   C	4.530	6.543	1.036	C.2	1	UNK0	0.000	
13	   C	3.679	5.617	1.588	C.2	1	UNK0	0.000	
14	   C	3.402	4.427	0.925	C.2	1	UNK0	0.000	
15	   N	2.871	-0.749	-2.774	N.pl3	1	UNK0	0.000	
16	   C	3.540	-1.934	-2.319	C.3	1	UNK0	0.000	
17	   C	2.827	-3.151	-2.855	C.3	1	UNK0	0.000	
18	   N	1.391	-3.061	-2.615	N.3	1	UNK0	0.000	
19	   C	0.832	-1.893	-3.244	C.3	1	UNK0	0.000	
20	   C	1.882	-0.919	-3.776	C.3	1	UNK0	0.000	
21	   C	1.257	-2.884	-1.178	C.3	1	UNK0	0.000	
22	   C	-0.115	-2.860	-0.684	C.2	1	UNK0	0.000	
23	   O	-0.249	-2.688	0.581	O.2	1	UNK0	0.000	
24	   N	-1.302	-3.002	-1.416	N.pl3	1	UNK0	0.000	
25	   N	-2.578	-2.954	-0.807	N.pl3	1	UNK0	0.000	
26	   C	-3.671	-2.117	-1.202	C.2	1	UNK0	0.000	
27	   O	-3.640	-1.301	-2.182	O.2	1	UNK0	0.000	
28	   N	-4.753	-2.372	-0.316	N.pl3	1	UNK0	0.000	
29	   C	-4.174	-2.944	0.882	C.3	1	UNK0	0.000	
30	   C	-3.033	-3.697	0.310	C.2	1	UNK0	0.000	
31	   O	-2.538	-4.793	0.721	O.2	1	UNK0	0.000	
32	   C	-5.096	-3.797	1.675	C.3	1	UNK0	0.000	
33	   C	-6.317	-3.060	2.164	C.3	1	UNK0	0.000	
34	   C	-3.546	-1.854	1.754	C.3	1	UNK0	0.000	
35	   H	3.402	-0.308	-0.248	 H	1	UNK0	0.000	
36	   H	5.265	4.847	-1.806	 H	1	UNK0	0.000	
37	   H	5.778	6.976	-0.651	 H	1	UNK0	0.000	
38	   H	4.772	7.486	1.522	 H	1	UNK0	0.000	
39	   H	3.236	5.851	2.550	 H	1	UNK0	0.000	
40	   H	2.728	3.720	1.388	 H	1	UNK0	0.000	
41	   H	3.661	-2.041	-1.244	 H	1	UNK0	0.000	
42	   H	4.584	-1.992	-2.742	 H	1	UNK0	0.000	
43	   H	2.969	-3.164	-3.952	 H	1	UNK0	0.000	
44	   H	3.172	-4.104	-2.463	 H	1	UNK0	0.000	
45	   H	0.264	-1.318	-2.493	 H	1	UNK0	0.000	
46	   H	0.193	-2.244	-4.093	 H	1	UNK0	0.000	
47	   H	1.301	-0.006	-4.031	 H	1	UNK0	0.000	
48	   H	2.299	-1.399	-4.707	 H	1	UNK0	0.000	
49	   H	1.933	-3.542	-0.605	 H	1	UNK0	0.000	
50	   H	1.666	-1.842	-0.990	 H	1	UNK0	0.000	
51	   H	-1.257	-3.151	-2.442	 H	1	UNK0	0.000	
52	   H	-5.740	-2.174	-0.521	 H	1	UNK0	0.000	
53	   H	-4.557	-4.179	2.563	 H	1	UNK0	0.000	
54	   H	-5.362	-4.692	1.063	 H	1	UNK0	0.000	
55	   H	-6.407	-2.039	1.741	 H	1	UNK0	0.000	
56	   H	-6.370	-3.023	3.278	 H	1	UNK0	0.000	
57	   H	-7.207	-3.630	1.829	 H	1	UNK0	0.000	
58	   H	-4.251	-1.078	2.046	 H	1	UNK0	0.000	
59	   H	-3.055	-2.366	2.595	 H	1	UNK0	0.000	
60	   H	-2.733	-1.421	1.110	 H	1	UNK0	0.000	
@<TRIPOS>BOND
1 1 2 1
2 2 3 2
3 2 7 1
4 3 4 1
5 3 15 1
6 4 5 2
7 5 6 1
8 6 7 1
9 6 9 1
10 7 8 2
11 9 10 2
12 9 14 1
13 10 11 1
14 11 12 2
15 12 13 1
16 13 14 2
17 15 16 1
18 15 20 1
19 16 17 1
20 17 18 1
21 18 19 1
22 18 21 1
23 19 20 1
24 21 22 1
25 22 23 2
26 22 24 1
27 24 25 1
28 25 26 1
29 25 30 1
30 26 27 2
31 26 28 1
32 28 29 1
33 29 30 1
34 29 32 1
35 29 34 1
36 30 31 2
37 32 33 1
38 4 35 1
39 10 36 1
40 11 37 1
41 12 38 1
42 13 39 1
43 14 40 1
44 16 41 1
45 16 42 1
46 17 43 1
47 17 44 1
48 19 45 1
49 19 46 1
50 20 47 1
51 20 48 1
52 21 49 1
53 21 50 1
54 24 51 1
55 28 52 1
56 32 53 1
57 32 54 1
58 33 55 1
59 33 56 1
60 33 57 1
61 34 58 1
62 34 59 1
63 34 60 1
@<TRIPOS>SUBSTRUCTURE
1	UNK0	1	GROUP	1 ****	UNK
