# created with PyMOL 2.3.2
@<TRIPOS>MOLECULE
2287
56 59 1                 
SMALL
USER_CHARGES
@<TRIPOS>ATOM
1	   S	-2.634	2.293	2.715	S.O2	1	UNK0	0.000	
2	   O	-2.322	1.153	3.665	O.2	1	UNK0	0.000	
3	   O	-2.671	3.558	3.524	O.2	1	UNK0	0.000	
4	   N	-1.294	2.398	1.626	N.3	1	UNK0	0.000	
5	   C	-1.140	1.235	0.829	C.3	1	UNK0	0.000	
6	   C	-0.878	1.679	-0.617	C.3	1	UNK0	0.000	
7	   N	0.276	2.545	-0.552	N.pl3	1	UNK0	0.000	
8	   C	-0.042	3.851	0.097	C.3	1	UNK0	0.000	
9	   C	-1.213	3.660	0.987	C.3	1	UNK0	0.000	
10	   C	1.574	2.305	-1.008	C.2	1	UNK0	0.000	
11	   O	2.382	3.324	-0.757	O.2	1	UNK0	0.000	
12	   C	2.212	1.203	-1.682	C.3	1	UNK0	0.000	
13	   N	1.433	0.030	-2.040	N.pl3	1	UNK0	0.000	
14	   C	0.758	-0.192	-3.269	C.2	1	UNK0	0.000	
15	   O	0.754	0.676	-4.222	O.2	1	UNK0	0.000	
16	   N	0.138	-1.439	-3.263	N.pl3	1	UNK0	0.000	
17	   C	0.533	-2.141	-2.075	C.3	1	UNK0	0.000	
18	   C	1.222	-1.131	-1.242	C.2	1	UNK0	0.000	
19	   O	1.579	-1.233	-0.034	O.2	1	UNK0	0.000	
20	   C	-0.668	-2.627	-1.285	C.3	1	UNK0	0.000	
21	   C	1.425	-3.254	-2.454	C.2	1	UNK0	0.000	
22	   C	2.248	-3.889	-1.576	C.2	1	UNK0	0.000	
23	   C	3.082	-4.913	-1.939	C.2	1	UNK0	0.000	
24	   C	3.096	-5.333	-3.270	C.2	1	UNK0	0.000	
25	   C	2.290	-4.720	-4.167	C.2	1	UNK0	0.000	
26	   C	1.450	-3.681	-3.773	C.2	1	UNK0	0.000	
27	   C	-4.149	2.118	1.916	C.2	1	UNK0	0.000	
28	   C	-4.884	3.229	1.543	C.2	1	UNK0	0.000	
29	   C	-6.103	3.036	0.902	C.2	1	UNK0	0.000	
30	   C	-6.601	1.780	0.627	C.2	1	UNK0	0.000	
31	   C	-5.853	0.658	1.007	C.2	1	UNK0	0.000	
32	   C	-4.642	0.867	1.645	C.2	1	UNK0	0.000	
33	  Cl	-8.152	1.592	-0.189	Cl	1	UNK0	0.000	
34	   H	-2.101	0.654	0.792	 H	1	UNK0	0.000	
35	   H	-0.313	0.562	1.173	 H	1	UNK0	0.000	
36	   H	-0.801	0.835	-1.283	 H	1	UNK0	0.000	
37	   H	-1.802	2.301	-0.864	 H	1	UNK0	0.000	
38	   H	-0.234	4.605	-0.695	 H	1	UNK0	0.000	
39	   H	0.854	4.157	0.689	 H	1	UNK0	0.000	
40	   H	-1.236	4.487	1.770	 H	1	UNK0	0.000	
41	   H	-2.144	3.778	0.350	 H	1	UNK0	0.000	
42	   H	3.123	0.857	-1.113	 H	1	UNK0	0.000	
43	   H	2.666	1.599	-2.654	 H	1	UNK0	0.000	
44	   H	-0.518	-1.847	-3.977	 H	1	UNK0	0.000	
45	   H	-0.615	-2.281	-0.233	 H	1	UNK0	0.000	
46	   H	-1.617	-2.249	-1.726	 H	1	UNK0	0.000	
47	   H	-0.651	-3.739	-1.260	 H	1	UNK0	0.000	
48	   H	2.222	-3.544	-0.537	 H	1	UNK0	0.000	
49	   H	3.735	-5.424	-1.260	 H	1	UNK0	0.000	
50	   H	3.738	-6.136	-3.604	 H	1	UNK0	0.000	
51	   H	2.303	-5.041	-5.196	 H	1	UNK0	0.000	
52	   H	0.834	-3.240	-4.537	 H	1	UNK0	0.000	
53	   H	-4.569	4.247	1.719	 H	1	UNK0	0.000	
54	   H	-6.664	3.928	0.617	 H	1	UNK0	0.000	
55	   H	-6.262	-0.310	0.783	 H	1	UNK0	0.000	
56	   H	-4.099	-0.041	1.921	 H	1	UNK0	0.000	
@<TRIPOS>BOND
1 1 2 2
2 1 3 2
3 1 4 1
4 1 27 1
5 4 5 1
6 4 9 1
7 5 6 1
8 6 7 1
9 7 8 1
10 7 10 1
11 8 9 1
12 10 11 2
13 10 12 1
14 12 13 1
15 13 14 1
16 13 18 1
17 14 15 2
18 14 16 1
19 16 17 1
20 17 18 1
21 17 20 1
22 17 21 1
23 18 19 2
24 21 22 2
25 21 26 1
26 22 23 1
27 23 24 2
28 24 25 1
29 25 26 2
30 27 28 2
31 27 32 1
32 28 29 1
33 29 30 2
34 30 31 1
35 30 33 1
36 31 32 2
37 5 34 1
38 5 35 1
39 6 36 1
40 6 37 1
41 8 38 1
42 8 39 1
43 9 40 1
44 9 41 1
45 12 42 1
46 12 43 1
47 16 44 1
48 20 45 1
49 20 46 1
50 20 47 1
51 22 48 1
52 23 49 1
53 24 50 1
54 25 51 1
55 26 52 1
56 28 53 1
57 29 54 1
58 31 55 1
59 32 56 1
@<TRIPOS>SUBSTRUCTURE
1	UNK0	1	GROUP	1 ****	UNK
