# created with PyMOL 2.3.2
@<TRIPOS>MOLECULE
2288
53 56 1                 
SMALL
USER_CHARGES
@<TRIPOS>ATOM
1	   S	0.001	-0.010	3.832	S.O2	1	UNK0	0.000	
2	   O	0.896	0.824	4.683	O.2	1	UNK0	0.000	
3	   O	-1.162	-0.516	4.673	O.2	1	UNK0	0.000	
4	   N	0.791	-1.354	3.191	N.3	1	UNK0	0.000	
5	   C	1.886	-1.123	2.323	C.3	1	UNK0	0.000	
6	   C	1.547	-1.201	0.837	C.3	1	UNK0	0.000	
7	   N	0.861	-2.425	0.560	N.pl3	1	UNK0	0.000	
8	   C	0.681	-3.305	1.740	C.3	1	UNK0	0.000	
9	   C	-0.069	-2.436	2.758	C.3	1	UNK0	0.000	
10	   C	0.347	-2.901	-0.650	C.2	1	UNK0	0.000	
11	   O	-0.246	-4.089	-0.614	O.2	1	UNK0	0.000	
12	   C	0.325	-2.348	-1.995	C.3	1	UNK0	0.000	
13	   N	0.931	-1.070	-2.136	N.pl3	1	UNK0	0.000	
14	   C	2.304	-0.798	-2.434	C.2	1	UNK0	0.000	
15	   O	3.205	-1.686	-2.586	O.2	1	UNK0	0.000	
16	   N	2.542	0.595	-2.539	N.pl3	1	UNK0	0.000	
17	   C	1.285	1.267	-2.448	C.3	1	UNK0	0.000	
18	   C	0.879	1.906	-3.773	C.3	1	UNK0	0.000	
19	   C	1.948	2.838	-4.269	C.3	1	UNK0	0.000	
20	   C	2.593	3.680	-3.257	C.3	1	UNK0	0.000	
21	   C	2.479	3.311	-1.841	C.3	1	UNK0	0.000	
22	   C	1.339	2.420	-1.471	C.3	1	UNK0	0.000	
23	   C	0.321	0.237	-2.060	C.2	1	UNK0	0.000	
24	   O	-0.879	0.359	-1.700	O.2	1	UNK0	0.000	
25	   C	-0.735	1.033	2.607	C.2	1	UNK0	0.000	
26	   S	-1.938	0.682	1.455	S.3	1	UNK0	0.000	
27	   C	-2.052	2.207	0.703	C.2	1	UNK0	0.000	
28	   C	-1.133	2.957	1.384	C.2	1	UNK0	0.000	
29	   C	-0.452	2.349	2.369	C.2	1	UNK0	0.000	
30	  Cl	-3.092	2.731	-0.636	Cl	1	UNK0	0.000	
31	   H	2.672	-1.881	2.506	 H	1	UNK0	0.000	
32	   H	2.334	-0.137	2.560	 H	1	UNK0	0.000	
33	   H	1.023	-0.282	0.586	 H	1	UNK0	0.000	
34	   H	2.553	-1.250	0.319	 H	1	UNK0	0.000	
35	   H	0.074	-4.166	1.481	 H	1	UNK0	0.000	
36	   H	1.648	-3.602	2.146	 H	1	UNK0	0.000	
37	   H	-0.309	-3.097	3.614	 H	1	UNK0	0.000	
38	   H	-1.031	-2.086	2.337	 H	1	UNK0	0.000	
39	   H	-0.720	-2.329	-2.427	 H	1	UNK0	0.000	
40	   H	0.942	-3.075	-2.629	 H	1	UNK0	0.000	
41	   H	3.484	1.059	-2.663	 H	1	UNK0	0.000	
42	   H	0.612	1.157	-4.524	 H	1	UNK0	0.000	
43	   H	-0.035	2.499	-3.565	 H	1	UNK0	0.000	
44	   H	1.485	3.442	-5.101	 H	1	UNK0	0.000	
45	   H	2.703	2.191	-4.796	 H	1	UNK0	0.000	
46	   H	2.208	4.738	-3.379	 H	1	UNK0	0.000	
47	   H	3.691	3.778	-3.511	 H	1	UNK0	0.000	
48	   H	2.421	4.209	-1.157	 H	1	UNK0	0.000	
49	   H	3.419	2.785	-1.497	 H	1	UNK0	0.000	
50	   H	1.446	2.100	-0.427	 H	1	UNK0	0.000	
51	   H	0.405	3.014	-1.541	 H	1	UNK0	0.000	
52	   H	-0.988	4.025	1.099	 H	1	UNK0	0.000	
53	   H	0.316	2.886	2.976	 H	1	UNK0	0.000	
@<TRIPOS>BOND
1 1 2 2
2 1 3 2
3 1 4 1
4 1 25 1
5 4 5 1
6 4 9 1
7 5 6 1
8 6 7 1
9 7 8 1
10 7 10 1
11 8 9 1
12 10 11 2
13 10 12 1
14 12 13 1
15 13 14 1
16 13 23 1
17 14 15 2
18 14 16 1
19 16 17 1
20 17 18 1
21 17 22 1
22 17 23 1
23 18 19 1
24 19 20 1
25 20 21 1
26 21 22 1
27 23 24 2
28 25 26 1
29 25 29 2
30 26 27 1
31 27 28 2
32 27 30 1
33 28 29 1
34 5 31 1
35 5 32 1
36 6 33 1
37 6 34 1
38 8 35 1
39 8 36 1
40 9 37 1
41 9 38 1
42 12 39 1
43 12 40 1
44 16 41 1
45 18 42 1
46 18 43 1
47 19 44 1
48 19 45 1
49 20 46 1
50 20 47 1
51 21 48 1
52 21 49 1
53 22 50 1
54 22 51 1
55 28 52 1
56 29 53 1
@<TRIPOS>SUBSTRUCTURE
1	UNK0	1	GROUP	1 ****	UNK
