# created with PyMOL 2.3.2
@<TRIPOS>MOLECULE
2289
48 52 1                 
SMALL
USER_CHARGES
@<TRIPOS>ATOM
1	   S	2.101	-1.150	-1.050	S.O2	1	UNK0	0.000	
2	   O	2.541	-0.370	-2.285	O.2	1	UNK0	0.000	
3	   O	0.724	-1.678	-1.421	O.2	1	UNK0	0.000	
4	   N	1.918	-0.054	0.203	N.3	1	UNK0	0.000	
5	   C	1.339	-0.469	1.415	C.3	1	UNK0	0.000	
6	   C	0.794	0.679	2.250	C.3	1	UNK0	0.000	
7	   N	-0.103	1.495	1.464	N.pl3	1	UNK0	0.000	
8	   C	0.293	1.800	0.112	C.3	1	UNK0	0.000	
9	   C	1.648	1.279	-0.207	C.3	1	UNK0	0.000	
10	   C	-1.308	1.946	2.059	C.2	1	UNK0	0.000	
11	   O	-1.604	1.648	3.252	O.2	1	UNK0	0.000	
12	   C	-2.310	2.790	1.351	C.3	1	UNK0	0.000	
13	   O	-1.963	3.101	0.038	O.3	1	UNK0	0.000	
14	   C	-2.842	3.029	-1.034	C.2	1	UNK0	0.000	
15	   C	-4.022	2.326	-0.904	C.2	1	UNK0	0.000	
16	   C	-4.937	2.217	-1.932	C.2	1	UNK0	0.000	
17	   C	-4.686	2.825	-3.150	C.2	1	UNK0	0.000	
18	   C	-3.494	3.544	-3.305	C.2	1	UNK0	0.000	
19	   C	-2.606	3.628	-2.251	C.2	1	UNK0	0.000	
20	   O	-4.251	1.726	0.325	O.3	1	UNK0	0.000	
21	   C	-3.670	2.197	1.524	C.3	1	UNK0	0.000	
22	   C	3.104	-2.517	-0.772	C.2	1	UNK0	0.000	
23	   C	2.807	-3.443	0.181	C.2	1	UNK0	0.000	
24	   N	1.808	-3.617	1.081	N.2	1	UNK0	0.000	
25	   O	2.063	-4.703	1.730	O.3	1	UNK0	0.000	
26	   N	3.151	-5.272	1.338	N.2	1	UNK0	0.000	
27	   C	3.668	-4.507	0.348	C.2	1	UNK0	0.000	
28	   C	4.813	-4.637	-0.435	C.2	1	UNK0	0.000	
29	   C	5.122	-3.708	-1.399	C.2	1	UNK0	0.000	
30	   C	4.240	-2.652	-1.544	C.2	1	UNK0	0.000	
31	  Cl	5.841	-6.005	-0.159	Cl	1	UNK0	0.000	
32	   H	2.079	-1.025	2.023	 H	1	UNK0	0.000	
33	   H	0.510	-1.181	1.188	 H	1	UNK0	0.000	
34	   H	1.664	1.327	2.520	 H	1	UNK0	0.000	
35	   H	0.362	0.333	3.197	 H	1	UNK0	0.000	
36	   H	0.363	2.928	0.062	 H	1	UNK0	0.000	
37	   H	-0.456	1.434	-0.634	 H	1	UNK0	0.000	
38	   H	2.447	1.942	0.210	 H	1	UNK0	0.000	
39	   H	1.790	1.333	-1.323	 H	1	UNK0	0.000	
40	   H	-2.314	3.768	1.917	 H	1	UNK0	0.000	
41	   H	-5.865	1.665	-1.831	 H	1	UNK0	0.000	
42	   H	-5.404	2.746	-3.973	 H	1	UNK0	0.000	
43	   H	-3.329	4.006	-4.268	 H	1	UNK0	0.000	
44	   H	-1.701	4.190	-2.409	 H	1	UNK0	0.000	
45	   H	-4.403	2.921	1.961	 H	1	UNK0	0.000	
46	   H	-3.632	1.350	2.235	 H	1	UNK0	0.000	
47	   H	6.003	-3.838	-1.978	 H	1	UNK0	0.000	
48	   H	4.508	-1.925	-2.319	 H	1	UNK0	0.000	
@<TRIPOS>BOND
1 1 2 2
2 1 3 2
3 1 4 1
4 1 22 1
5 4 5 1
6 4 9 1
7 5 6 1
8 6 7 1
9 7 8 1
10 7 10 1
11 8 9 1
12 10 11 2
13 10 12 1
14 12 13 1
15 12 21 1
16 13 14 1
17 14 15 2
18 14 19 1
19 15 16 1
20 15 20 1
21 16 17 2
22 17 18 1
23 18 19 2
24 20 21 1
25 22 23 1
26 22 30 2
27 23 24 2
28 23 27 1
29 24 25 1
30 25 26 1
31 26 27 2
32 27 28 1
33 28 29 2
34 28 31 1
35 29 30 1
36 5 32 1
37 5 33 1
38 6 34 1
39 6 35 1
40 8 36 1
41 8 37 1
42 9 38 1
43 9 39 1
44 12 40 1
45 16 41 1
46 17 42 1
47 18 43 1
48 19 44 1
49 21 45 1
50 21 46 1
51 29 47 1
52 30 48 1
@<TRIPOS>SUBSTRUCTURE
1	UNK0	1	GROUP	1 ****	UNK
