# created with PyMOL 2.3.2
@<TRIPOS>MOLECULE
2290
49 52 1                 
SMALL
USER_CHARGES
@<TRIPOS>ATOM
1	   S	-0.652	-0.857	-2.961	S.O2	1	UNK0	0.000	
2	   O	-0.414	-2.308	-3.104	O.2	1	UNK0	0.000	
3	   O	-0.997	-0.324	-4.346	O.2	1	UNK0	0.000	
4	   N	0.642	0.012	-2.358	N.3	1	UNK0	0.000	
5	   C	0.552	1.407	-2.309	C.3	1	UNK0	0.000	
6	   C	0.197	1.855	-0.910	C.3	1	UNK0	0.000	
7	   N	0.980	1.095	0.046	N.pl3	1	UNK0	0.000	
8	   C	2.103	0.354	-0.515	C.3	1	UNK0	0.000	
9	   C	1.588	-0.643	-1.561	C.3	1	UNK0	0.000	
10	   C	0.657	1.092	1.407	C.2	1	UNK0	0.000	
11	   O	-0.330	1.764	1.802	O.2	1	UNK0	0.000	
12	   C	1.411	0.338	2.440	C.3	1	UNK0	0.000	
13	   N	0.944	0.636	3.772	N.pl3	1	UNK0	0.000	
14	   N	0.273	-0.206	4.526	N.2	1	UNK0	0.000	
15	   N	-0.011	0.355	5.683	N.2	1	UNK0	0.000	
16	   N	0.493	1.596	5.670	N.2	1	UNK0	0.000	
17	   C	1.089	1.766	4.472	C.2	1	UNK0	0.000	
18	   C	1.418	-1.114	2.210	C.2	1	UNK0	0.000	
19	   C	2.520	-1.873	2.520	C.2	1	UNK0	0.000	
20	   C	2.507	-3.226	2.298	C.2	1	UNK0	0.000	
21	   C	1.403	-3.884	1.760	C.2	1	UNK0	0.000	
22	   C	0.308	-3.112	1.454	C.2	1	UNK0	0.000	
23	   C	0.321	-1.754	1.677	C.2	1	UNK0	0.000	
24	   C	-2.070	-0.581	-1.972	C.2	1	UNK0	0.000	
25	   C	-2.961	0.445	-2.232	C.2	1	UNK0	0.000	
26	   C	-4.082	0.683	-1.470	C.2	1	UNK0	0.000	
27	   C	-4.334	-0.133	-0.399	C.2	1	UNK0	0.000	
28	   C	-3.474	-1.177	-0.092	C.2	1	UNK0	0.000	
29	   C	-2.364	-1.380	-0.879	C.2	1	UNK0	0.000	
30	  Cl	-5.734	0.077	0.643	Cl	1	UNK0	0.000	
31	   H	1.560	1.849	-2.555	 H	1	UNK0	0.000	
32	   H	-0.138	1.785	-3.069	 H	1	UNK0	0.000	
33	   H	-0.888	1.794	-0.700	 H	1	UNK0	0.000	
34	   H	0.473	2.932	-0.746	 H	1	UNK0	0.000	
35	   H	2.727	1.133	-1.044	 H	1	UNK0	0.000	
36	   H	2.742	-0.114	0.234	 H	1	UNK0	0.000	
37	   H	2.519	-0.966	-2.114	 H	1	UNK0	0.000	
38	   H	1.184	-1.534	-1.082	 H	1	UNK0	0.000	
39	   H	2.464	0.748	2.393	 H	1	UNK0	0.000	
40	   H	1.599	2.690	4.155	 H	1	UNK0	0.000	
41	   H	3.397	-1.422	2.937	 H	1	UNK0	0.000	
42	   H	3.355	-3.838	2.533	 H	1	UNK0	0.000	
43	   H	1.399	-4.958	1.586	 H	1	UNK0	0.000	
44	   H	-0.560	-3.614	1.033	 H	1	UNK0	0.000	
45	   H	-0.590	-1.211	1.407	 H	1	UNK0	0.000	
46	   H	-2.780	1.093	-3.066	 H	1	UNK0	0.000	
47	   H	-4.761	1.500	-1.705	 H	1	UNK0	0.000	
48	   H	-3.646	-1.836	0.745	 H	1	UNK0	0.000	
49	   H	-1.678	-2.178	-0.671	 H	1	UNK0	0.000	
@<TRIPOS>BOND
1 1 2 2
2 1 3 2
3 1 4 1
4 1 24 1
5 4 5 1
6 4 9 1
7 5 6 1
8 6 7 1
9 7 8 1
10 7 10 1
11 8 9 1
12 10 11 2
13 10 12 1
14 12 13 1
15 12 18 1
16 13 14 1
17 13 17 1
18 14 15 2
19 15 16 1
20 16 17 2
21 18 19 2
22 18 23 1
23 19 20 1
24 20 21 2
25 21 22 1
26 22 23 2
27 24 25 2
28 24 29 1
29 25 26 1
30 26 27 2
31 27 28 1
32 27 30 1
33 28 29 2
34 5 31 1
35 5 32 1
36 6 33 1
37 6 34 1
38 8 35 1
39 8 36 1
40 9 37 1
41 9 38 1
42 12 39 1
43 17 40 1
44 19 41 1
45 20 42 1
46 21 43 1
47 22 44 1
48 23 45 1
49 25 46 1
50 26 47 1
51 28 48 1
52 29 49 1
@<TRIPOS>SUBSTRUCTURE
1	UNK0	1	GROUP	1 ****	UNK
