# created with PyMOL 2.3.2
@<TRIPOS>MOLECULE
2291
49 52 1                 
SMALL
USER_CHARGES
@<TRIPOS>ATOM
1	   S	-0.123	-2.272	-2.555	S.O2	1	UNK0	0.000	
2	   O	-1.103	-3.205	-3.281	O.2	1	UNK0	0.000	
3	   O	-0.197	-0.973	-3.247	O.2	1	UNK0	0.000	
4	   N	-0.648	-2.160	-0.965	N.3	1	UNK0	0.000	
5	   C	0.026	-1.353	-0.044	C.3	1	UNK0	0.000	
6	   C	-0.904	-0.500	0.819	C.3	1	UNK0	0.000	
7	   N	-2.246	-0.891	0.498	N.pl3	1	UNK0	0.000	
8	   C	-2.513	-2.295	0.530	C.3	1	UNK0	0.000	
9	   C	-1.757	-2.924	-0.601	C.3	1	UNK0	0.000	
10	   C	-3.335	0.020	0.195	C.2	1	UNK0	0.000	
11	   O	-4.388	-0.650	-0.173	O.2	1	UNK0	0.000	
12	   N	-3.229	1.371	0.293	N.pl3	1	UNK0	0.000	
13	   C	-3.121	2.752	0.393	C.3	1	UNK0	0.000	
14	   C	-1.844	3.262	0.989	C.2	1	UNK0	0.000	
15	   N	-1.617	3.549	2.281	N.pl3	1	UNK0	0.000	
16	   C	-0.353	3.981	2.362	C.2	1	UNK0	0.000	
17	   N	0.193	3.958	1.135	N.2	1	UNK0	0.000	
18	   N	-0.745	3.512	0.313	N.2	1	UNK0	0.000	
19	   C	-0.040	4.319	3.800	C.3	1	UNK0	0.000	
20	   C	-1.002	3.346	4.492	C.3	1	UNK0	0.000	
21	   C	-2.218	3.568	3.580	C.3	1	UNK0	0.000	
22	   C	1.477	-2.929	-2.653	C.2	1	UNK0	0.000	
23	   C	1.686	-4.294	-2.735	C.2	1	UNK0	0.000	
24	   C	2.944	-4.841	-2.838	C.2	1	UNK0	0.000	
25	   C	4.058	-4.026	-2.861	C.2	1	UNK0	0.000	
26	   C	3.860	-2.666	-2.779	C.2	1	UNK0	0.000	
27	   C	2.572	-2.121	-2.674	C.2	1	UNK0	0.000	
28	  Br	5.822	-4.790	-3.011	Br	1	UNK0	0.000	
29	   H	0.668	-0.638	-0.599	 H	1	UNK0	0.000	
30	   H	0.717	-1.956	0.573	 H	1	UNK0	0.000	
31	   H	-0.677	0.575	0.729	 H	1	UNK0	0.000	
32	   H	-0.698	-0.787	1.870	 H	1	UNK0	0.000	
33	   H	-3.599	-2.509	0.368	 H	1	UNK0	0.000	
34	   H	-2.200	-2.753	1.513	 H	1	UNK0	0.000	
35	   H	-1.568	-4.006	-0.435	 H	1	UNK0	0.000	
36	   H	-2.463	-2.920	-1.495	 H	1	UNK0	0.000	
37	   H	-4.488	1.526	-0.148	 H	1	UNK0	0.000	
38	   H	-3.222	3.316	-0.578	 H	1	UNK0	0.000	
39	   H	-3.914	3.251	1.048	 H	1	UNK0	0.000	
40	   H	1.001	4.175	4.064	 H	1	UNK0	0.000	
41	   H	-0.465	5.323	4.008	 H	1	UNK0	0.000	
42	   H	-0.706	2.298	4.351	 H	1	UNK0	0.000	
43	   H	-1.221	3.615	5.523	 H	1	UNK0	0.000	
44	   H	-2.923	2.779	3.806	 H	1	UNK0	0.000	
45	   H	-2.633	4.555	3.864	 H	1	UNK0	0.000	
46	   H	0.802	-4.918	-2.714	 H	1	UNK0	0.000	
47	   H	3.105	-5.903	-2.904	 H	1	UNK0	0.000	
48	   H	4.706	-2.001	-2.797	 H	1	UNK0	0.000	
49	   H	2.422	-1.043	-2.612	 H	1	UNK0	0.000	
@<TRIPOS>BOND
1 1 2 2
2 1 3 2
3 1 4 1
4 1 22 1
5 4 5 1
6 4 9 1
7 5 6 1
8 6 7 1
9 7 8 1
10 7 10 1
11 8 9 1
12 10 11 2
13 10 12 1
14 12 13 1
15 13 14 1
16 14 15 1
17 14 18 2
18 15 16 1
19 15 21 1
20 16 17 2
21 16 19 1
22 17 18 1
23 19 20 1
24 20 21 1
25 22 23 2
26 22 27 1
27 23 24 1
28 24 25 2
29 25 26 1
30 25 28 1
31 26 27 2
32 5 29 1
33 5 30 1
34 6 31 1
35 6 32 1
36 8 33 1
37 8 34 1
38 9 35 1
39 9 36 1
40 12 37 1
41 13 38 1
42 13 39 1
43 19 40 1
44 19 41 1
45 20 42 1
46 20 43 1
47 21 44 1
48 21 45 1
49 23 46 1
50 24 47 1
51 26 48 1
52 27 49 1
@<TRIPOS>SUBSTRUCTURE
1	UNK0	1	GROUP	1 ****	UNK
