# created with PyMOL 2.3.2
@<TRIPOS>MOLECULE
2296
68 71 1                 
SMALL
USER_CHARGES
@<TRIPOS>ATOM
1	   S	4.465	0.659	1.180	S.O2	1	UNK0	0.000	
2	   O	5.947	0.712	1.525	O.2	1	UNK0	0.000	
3	   O	3.930	-0.464	2.082	O.2	1	UNK0	0.000	
4	   N	4.280	0.187	-0.393	N.3	1	UNK0	0.000	
5	   C	4.678	0.881	-1.512	C.3	1	UNK0	0.000	
6	   C	3.615	1.497	-2.364	C.3	1	UNK0	0.000	
7	   N	2.342	0.763	-2.365	N.3	1	UNK0	0.000	
8	   C	2.719	-0.594	-2.020	C.3	1	UNK0	0.000	
9	   C	3.205	-0.772	-0.620	C.3	1	UNK0	0.000	
10	   C	1.502	1.423	-1.453	C.3	1	UNK0	0.000	
11	   C	0.070	1.052	-1.387	C.2	1	UNK0	0.000	
12	   O	-0.555	1.722	-0.478	O.2	1	UNK0	0.000	
13	   N	-0.579	0.119	-2.171	N.pl3	1	UNK0	0.000	
14	   C	-1.907	-0.326	-2.188	C.3	1	UNK0	0.000	
15	   C	-2.548	-1.087	-1.101	C.3	1	UNK0	0.000	
16	   C	-2.629	-0.433	0.242	C.3	1	UNK0	0.000	
17	   C	-3.516	0.794	0.234	C.3	1	UNK0	0.000	
18	   C	-4.942	0.315	0.155	C.3	1	UNK0	0.000	
19	   C	-4.976	-1.045	-0.445	C.3	1	UNK0	0.000	
20	   C	-4.009	-1.291	-1.564	C.3	1	UNK0	0.000	
21	   N	-2.027	-2.436	-0.942	N.3	1	UNK0	0.000	
22	   C	-2.209	-3.317	-2.033	C.3	1	UNK0	0.000	
23	   C	-1.068	-4.352	-1.994	C.3	1	UNK0	0.000	
24	   O	-0.934	-4.811	-0.688	O.3	1	UNK0	0.000	
25	   C	-0.318	-3.835	0.050	C.3	1	UNK0	0.000	
26	   C	-0.670	-2.470	-0.504	C.3	1	UNK0	0.000	
27	   C	3.667	2.111	1.683	C.2	1	UNK0	0.000	
28	   C	4.121	3.358	1.370	C.2	1	UNK0	0.000	
29	   C	3.418	4.530	1.722	C.2	1	UNK0	0.000	
30	   C	2.235	4.404	2.407	C.2	1	UNK0	0.000	
31	   C	1.773	3.138	2.729	C.2	1	UNK0	0.000	
32	   C	2.443	2.000	2.394	C.2	1	UNK0	0.000	
33	  Cl	5.670	3.574	0.582	Cl	1	UNK0	0.000	
34	   H	5.237	0.124	-2.192	 H	1	UNK0	0.000	
35	   H	5.464	1.617	-1.324	 H	1	UNK0	0.000	
36	   H	3.434	2.562	-2.099	 H	1	UNK0	0.000	
37	   H	3.964	1.497	-3.416	 H	1	UNK0	0.000	
38	   H	3.595	-0.825	-2.702	 H	1	UNK0	0.000	
39	   H	1.995	-1.367	-2.247	 H	1	UNK0	0.000	
40	   H	2.428	-0.738	0.145	 H	1	UNK0	0.000	
41	   H	3.681	-1.774	-0.559	 H	1	UNK0	0.000	
42	   H	1.906	1.341	-0.423	 H	1	UNK0	0.000	
43	   H	1.530	2.521	-1.692	 H	1	UNK0	0.000	
44	   H	0.065	-0.330	-2.910	 H	1	UNK0	0.000	
45	   H	-2.614	0.603	-2.335	 H	1	UNK0	0.000	
46	   H	-2.168	-0.864	-3.161	 H	1	UNK0	0.000	
47	   H	-3.112	-1.179	0.981	 H	1	UNK0	0.000	
48	   H	-1.682	-0.197	0.671	 H	1	UNK0	0.000	
49	   H	-3.267	1.449	-0.603	 H	1	UNK0	0.000	
50	   H	-3.298	1.355	1.166	 H	1	UNK0	0.000	
51	   H	-5.616	1.055	-0.346	 H	1	UNK0	0.000	
52	   H	-5.312	0.271	1.218	 H	1	UNK0	0.000	
53	   H	-4.947	-1.796	0.357	 H	1	UNK0	0.000	
54	   H	-6.000	-1.164	-0.913	 H	1	UNK0	0.000	
55	   H	-4.202	-0.519	-2.327	 H	1	UNK0	0.000	
56	   H	-4.171	-2.267	-1.989	 H	1	UNK0	0.000	
57	   H	-3.121	-3.957	-1.957	 H	1	UNK0	0.000	
58	   H	-2.128	-2.854	-3.028	 H	1	UNK0	0.000	
59	   H	-0.154	-4.002	-2.464	 H	1	UNK0	0.000	
60	   H	-1.397	-5.259	-2.585	 H	1	UNK0	0.000	
61	   H	0.791	-3.985	0.084	 H	1	UNK0	0.000	
62	   H	-0.635	-3.864	1.132	 H	1	UNK0	0.000	
63	   H	-0.445	-1.759	0.320	 H	1	UNK0	0.000	
64	   H	0.008	-2.310	-1.376	 H	1	UNK0	0.000	
65	   H	3.838	5.487	1.438	 H	1	UNK0	0.000	
66	   H	1.678	5.287	2.688	 H	1	UNK0	0.000	
67	   H	0.831	3.082	3.274	 H	1	UNK0	0.000	
68	   H	2.063	1.036	2.655	 H	1	UNK0	0.000	
@<TRIPOS>BOND
1 1 2 2
2 1 3 2
3 1 4 1
4 1 27 1
5 4 5 1
6 4 9 1
7 5 6 1
8 6 7 1
9 7 8 1
10 7 10 1
11 8 9 1
12 10 11 1
13 11 12 2
14 11 13 1
15 13 14 1
16 14 15 1
17 15 16 1
18 15 20 1
19 15 21 1
20 16 17 1
21 17 18 1
22 18 19 1
23 19 20 1
24 21 22 1
25 21 26 1
26 22 23 1
27 23 24 1
28 24 25 1
29 25 26 1
30 27 28 2
31 27 32 1
32 28 29 1
33 28 33 1
34 29 30 2
35 30 31 1
36 31 32 2
37 5 34 1
38 5 35 1
39 6 36 1
40 6 37 1
41 8 38 1
42 8 39 1
43 9 40 1
44 9 41 1
45 10 42 1
46 10 43 1
47 13 44 1
48 14 45 1
49 14 46 1
50 16 47 1
51 16 48 1
52 17 49 1
53 17 50 1
54 18 51 1
55 18 52 1
56 19 53 1
57 19 54 1
58 20 55 1
59 20 56 1
60 22 57 1
61 22 58 1
62 23 59 1
63 23 60 1
64 25 61 1
65 25 62 1
66 26 63 1
67 26 64 1
68 29 65 1
69 30 66 1
70 31 67 1
71 32 68 1
@<TRIPOS>SUBSTRUCTURE
1	UNK0	1	GROUP	1 ****	UNK
