# created with PyMOL 2.3.2
@<TRIPOS>MOLECULE
2297
68 71 1                 
SMALL
USER_CHARGES
@<TRIPOS>ATOM
1	   S	-3.773	-1.704	-1.963	S.O2	1	UNK0	0.000	
2	   O	-4.867	-2.652	-1.461	O.2	1	UNK0	0.000	
3	   O	-4.379	-1.008	-3.150	O.2	1	UNK0	0.000	
4	   N	-2.408	-2.596	-2.288	N.3	1	UNK0	0.000	
5	   C	-2.402	-3.985	-2.102	C.3	1	UNK0	0.000	
6	   C	-1.069	-4.438	-1.553	C.3	1	UNK0	0.000	
7	   N	-0.404	-3.206	-1.037	N.3	1	UNK0	0.000	
8	   C	-0.035	-2.440	-2.246	C.3	1	UNK0	0.000	
9	   C	-1.311	-2.032	-2.946	C.3	1	UNK0	0.000	
10	   C	0.750	-3.584	-0.288	C.3	1	UNK0	0.000	
11	   C	1.269	-2.453	0.539	C.2	1	UNK0	0.000	
12	   O	2.320	-2.757	1.186	O.2	1	UNK0	0.000	
13	   N	0.623	-1.221	0.561	N.pl3	1	UNK0	0.000	
14	   C	0.925	-0.013	1.235	C.3	1	UNK0	0.000	
15	   C	2.140	0.708	0.867	C.3	1	UNK0	0.000	
16	   C	3.472	0.094	1.079	C.3	1	UNK0	0.000	
17	   C	3.813	-0.119	2.500	C.3	1	UNK0	0.000	
18	   C	3.109	0.733	3.507	C.3	1	UNK0	0.000	
19	   C	2.405	1.933	3.038	C.3	1	UNK0	0.000	
20	   C	2.231	2.075	1.561	C.3	1	UNK0	0.000	
21	   N	2.008	1.043	-0.562	N.3	1	UNK0	0.000	
22	   C	0.967	1.916	-0.914	C.3	1	UNK0	0.000	
23	   C	0.706	1.710	-2.422	C.3	1	UNK0	0.000	
24	   O	1.769	0.996	-3.009	O.3	1	UNK0	0.000	
25	   C	2.943	1.656	-2.652	C.3	1	UNK0	0.000	
26	   C	3.260	1.321	-1.188	C.3	1	UNK0	0.000	
27	   C	-3.498	-0.590	-0.650	C.2	1	UNK0	0.000	
28	   C	-3.146	0.726	-0.930	C.2	1	UNK0	0.000	
29	   C	-2.923	1.662	0.045	C.2	1	UNK0	0.000	
30	   C	-3.053	1.289	1.387	C.2	1	UNK0	0.000	
31	   C	-3.401	-0.011	1.710	C.2	1	UNK0	0.000	
32	   C	-3.613	-0.908	0.683	C.2	1	UNK0	0.000	
33	  Cl	-2.488	3.328	-0.287	Cl	1	UNK0	0.000	
34	   H	-2.469	-4.467	-3.127	 H	1	UNK0	0.000	
35	   H	-3.251	-4.390	-1.511	 H	1	UNK0	0.000	
36	   H	-1.245	-5.038	-0.638	 H	1	UNK0	0.000	
37	   H	-0.435	-4.970	-2.258	 H	1	UNK0	0.000	
38	   H	0.674	-1.680	-2.026	 H	1	UNK0	0.000	
39	   H	0.517	-3.219	-2.864	 H	1	UNK0	0.000	
40	   H	-1.199	-2.365	-4.006	 H	1	UNK0	0.000	
41	   H	-1.350	-0.923	-2.979	 H	1	UNK0	0.000	
42	   H	1.543	-3.846	-1.033	 H	1	UNK0	0.000	
43	   H	0.640	-4.451	0.360	 H	1	UNK0	0.000	
44	   H	-0.305	-1.235	-0.052	 H	1	UNK0	0.000	
45	   H	0.017	0.658	1.171	 H	1	UNK0	0.000	
46	   H	0.950	-0.323	2.351	 H	1	UNK0	0.000	
47	   H	4.232	0.890	0.709	 H	1	UNK0	0.000	
48	   H	3.621	-0.788	0.456	 H	1	UNK0	0.000	
49	   H	4.942	0.026	2.591	 H	1	UNK0	0.000	
50	   H	3.696	-1.184	2.769	 H	1	UNK0	0.000	
51	   H	3.891	1.056	4.260	 H	1	UNK0	0.000	
52	   H	2.445	0.081	4.145	 H	1	UNK0	0.000	
53	   H	1.363	1.938	3.480	 H	1	UNK0	0.000	
54	   H	2.862	2.875	3.433	 H	1	UNK0	0.000	
55	   H	3.086	2.591	1.090	 H	1	UNK0	0.000	
56	   H	1.317	2.619	1.264	 H	1	UNK0	0.000	
57	   H	0.018	1.716	-0.436	 H	1	UNK0	0.000	
58	   H	1.291	2.982	-0.805	 H	1	UNK0	0.000	
59	   H	0.571	2.696	-2.911	 H	1	UNK0	0.000	
60	   H	-0.238	1.155	-2.594	 H	1	UNK0	0.000	
61	   H	3.736	1.344	-3.333	 H	1	UNK0	0.000	
62	   H	2.713	2.743	-2.672	 H	1	UNK0	0.000	
63	   H	3.801	2.209	-0.766	 H	1	UNK0	0.000	
64	   H	3.922	0.422	-1.246	 H	1	UNK0	0.000	
65	   H	-3.045	1.021	-1.963	 H	1	UNK0	0.000	
66	   H	-2.882	2.014	2.163	 H	1	UNK0	0.000	
67	   H	-3.491	-0.261	2.748	 H	1	UNK0	0.000	
68	   H	-3.885	-1.922	0.937	 H	1	UNK0	0.000	
@<TRIPOS>BOND
1 1 2 2
2 1 3 2
3 1 4 1
4 1 27 1
5 4 5 1
6 4 9 1
7 5 6 1
8 6 7 1
9 7 8 1
10 7 10 1
11 8 9 1
12 10 11 1
13 11 12 2
14 11 13 1
15 13 14 1
16 14 15 1
17 15 16 1
18 15 20 1
19 15 21 1
20 16 17 1
21 17 18 1
22 18 19 1
23 19 20 1
24 21 22 1
25 21 26 1
26 22 23 1
27 23 24 1
28 24 25 1
29 25 26 1
30 27 28 2
31 27 32 1
32 28 29 1
33 29 30 2
34 29 33 1
35 30 31 1
36 31 32 2
37 5 34 1
38 5 35 1
39 6 36 1
40 6 37 1
41 8 38 1
42 8 39 1
43 9 40 1
44 9 41 1
45 10 42 1
46 10 43 1
47 13 44 1
48 14 45 1
49 14 46 1
50 16 47 1
51 16 48 1
52 17 49 1
53 17 50 1
54 18 51 1
55 18 52 1
56 19 53 1
57 19 54 1
58 20 55 1
59 20 56 1
60 22 57 1
61 22 58 1
62 23 59 1
63 23 60 1
64 25 61 1
65 25 62 1
66 26 63 1
67 26 64 1
68 28 65 1
69 30 66 1
70 31 67 1
71 32 68 1
@<TRIPOS>SUBSTRUCTURE
1	UNK0	1	GROUP	1 ****	UNK
