# created with PyMOL 2.3.2
@<TRIPOS>MOLECULE
2299
50 53 1                 
SMALL
USER_CHARGES
@<TRIPOS>ATOM
1	   S	1.907	-0.211	2.812	S.O2	1	UNK0	0.000	
2	   O	3.141	-0.666	3.588	O.2	1	UNK0	0.000	
3	   O	2.217	1.177	2.328	O.2	1	UNK0	0.000	
4	   N	1.666	-1.335	1.568	N.3	1	UNK0	0.000	
5	   C	0.536	-1.079	0.727	C.3	1	UNK0	0.000	
6	   C	0.914	-0.870	-0.749	C.3	1	UNK0	0.000	
7	   N	2.031	-0.030	-0.929	N.3	1	UNK0	0.000	
8	   C	3.147	-0.353	-0.125	C.3	1	UNK0	0.000	
9	   C	2.903	-1.484	0.840	C.3	1	UNK0	0.000	
10	   C	1.829	1.311	-1.305	C.3	1	UNK0	0.000	
11	   C	1.334	1.571	-2.656	C.2	1	UNK0	0.000	
12	   O	1.129	2.747	-3.035	O.2	1	UNK0	0.000	
13	   N	1.075	0.521	-3.574	N.pl3	1	UNK0	0.000	
14	   C	0.591	0.778	-4.912	C.3	1	UNK0	0.000	
15	   C	-0.853	1.110	-4.891	C.2	1	UNK0	0.000	
16	   C	-1.673	1.000	-3.794	C.2	1	UNK0	0.000	
17	   C	-3.029	1.330	-3.847	C.2	1	UNK0	0.000	
18	   C	-3.601	1.784	-5.012	C.2	1	UNK0	0.000	
19	   C	-2.793	1.900	-6.122	C.2	1	UNK0	0.000	
20	   C	-1.452	1.573	-6.068	C.2	1	UNK0	0.000	
21	  Cl	-4.044	1.172	-2.417	Cl	1	UNK0	0.000	
22	   C	0.613	-0.099	3.966	C.2	1	UNK0	0.000	
23	   C	0.742	0.843	5.010	C.2	1	UNK0	0.000	
24	   N	1.766	1.681	5.216	N.2	1	UNK0	0.000	
25	   S	1.344	2.536	6.594	S.3	1	UNK0	0.000	
26	   N	-0.133	1.815	6.892	N.2	1	UNK0	0.000	
27	   C	-0.271	0.920	5.912	C.2	1	UNK0	0.000	
28	   C	-1.388	0.072	5.767	C.2	1	UNK0	0.000	
29	   C	-1.496	-0.840	4.743	C.2	1	UNK0	0.000	
30	   C	-0.470	-0.921	3.827	C.2	1	UNK0	0.000	
31	   H	-0.101	-0.241	1.055	 H	1	UNK0	0.000	
32	   H	-0.091	-1.995	0.698	 H	1	UNK0	0.000	
33	   H	0.009	-0.553	-1.272	 H	1	UNK0	0.000	
34	   H	1.164	-1.888	-1.169	 H	1	UNK0	0.000	
35	   H	3.997	-0.643	-0.768	 H	1	UNK0	0.000	
36	   H	3.483	0.567	0.425	 H	1	UNK0	0.000	
37	   H	2.897	-2.473	0.350	 H	1	UNK0	0.000	
38	   H	3.729	-1.480	1.572	 H	1	UNK0	0.000	
39	   H	1.234	1.848	-0.519	 H	1	UNK0	0.000	
40	   H	2.838	1.826	-1.239	 H	1	UNK0	0.000	
41	   H	1.231	-0.496	-3.307	 H	1	UNK0	0.000	
42	   H	1.152	1.612	-5.397	 H	1	UNK0	0.000	
43	   H	0.728	-0.160	-5.506	 H	1	UNK0	0.000	
44	   H	-1.242	0.651	-2.886	 H	1	UNK0	0.000	
45	   H	-4.654	2.029	-5.015	 H	1	UNK0	0.000	
46	   H	-3.250	2.259	-7.034	 H	1	UNK0	0.000	
47	   H	-0.810	1.660	-6.932	 H	1	UNK0	0.000	
48	   H	-2.212	0.112	6.473	 H	1	UNK0	0.000	
49	   H	-2.361	-1.496	4.632	 H	1	UNK0	0.000	
50	   H	-0.489	-1.616	3.000	 H	1	UNK0	0.000	
@<TRIPOS>BOND
1 1 2 2
2 1 3 2
3 1 4 1
4 1 22 1
5 4 5 1
6 4 9 1
7 5 6 1
8 6 7 1
9 7 8 1
10 7 10 1
11 8 9 1
12 10 11 1
13 11 12 2
14 11 13 1
15 13 14 1
16 14 15 1
17 15 16 2
18 15 20 1
19 16 17 1
20 17 18 2
21 17 21 1
22 18 19 1
23 19 20 2
24 22 23 1
25 22 30 2
26 23 24 2
27 23 27 1
28 24 25 1
29 25 26 1
30 26 27 2
31 27 28 1
32 28 29 2
33 29 30 1
34 5 31 1
35 5 32 1
36 6 33 1
37 6 34 1
38 8 35 1
39 8 36 1
40 9 37 1
41 9 38 1
42 10 39 1
43 10 40 1
44 13 41 1
45 14 42 1
46 14 43 1
47 16 44 1
48 18 45 1
49 19 46 1
50 20 47 1
51 28 48 1
52 29 49 1
53 30 50 1
@<TRIPOS>SUBSTRUCTURE
1	UNK0	1	GROUP	1 ****	UNK
