# created with PyMOL 2.3.2
@<TRIPOS>MOLECULE
2300
52 55 1                 
SMALL
USER_CHARGES
@<TRIPOS>ATOM
1	  Cl	2.128	6.641	2.016	Cl	1	UNK0	0.000	
2	   C	2.929	5.101	1.705	C.2	1	UNK0	0.000	
3	   C	2.430	3.919	2.211	C.2	1	UNK0	0.000	
4	   C	3.031	2.701	1.986	C.2	1	UNK0	0.000	
5	   C	4.177	2.704	1.218	C.2	1	UNK0	0.000	
6	   C	4.702	3.868	0.696	C.2	1	UNK0	0.000	
7	   C	4.070	5.074	0.944	C.2	1	UNK0	0.000	
8	   N	2.458	1.523	2.540	N.pl3	1	UNK0	0.000	
9	   N	2.227	1.251	3.820	N.2	1	UNK0	0.000	
10	   C	1.677	0.056	3.996	C.2	1	UNK0	0.000	
11	   C	1.525	-0.520	2.740	C.2	1	UNK0	0.000	
12	   C	2.022	0.425	1.868	C.2	1	UNK0	0.000	
13	   N	1.988	0.103	0.568	N.2	1	UNK0	0.000	
14	   C	1.498	-1.076	0.123	C.2	1	UNK0	0.000	
15	   N	1.006	-2.017	0.944	N.pl3	1	UNK0	0.000	
16	   C	1.029	-1.716	2.274	C.2	1	UNK0	0.000	
17	   O	0.580	-2.568	3.070	O.2	1	UNK0	0.000	
18	   C	0.475	-3.297	0.490	C.3	1	UNK0	0.000	
19	   C	-0.984	-3.249	0.215	C.2	1	UNK0	0.000	
20	   O	-1.792	-3.462	1.192	O.2	1	UNK0	0.000	
21	   N	-1.571	-2.988	-1.039	N.pl3	1	UNK0	0.000	
22	   C	-3.010	-2.962	-1.180	C.3	1	UNK0	0.000	
23	   C	-3.430	-2.078	-2.351	C.3	1	UNK0	0.000	
24	   N	-2.477	-1.001	-2.539	N.pl3	1	UNK0	0.000	
25	   C	-1.095	-1.317	-2.717	C.3	1	UNK0	0.000	
26	   C	-0.793	-2.739	-2.230	C.3	1	UNK0	0.000	
27	   C	-2.943	0.341	-2.541	C.2	1	UNK0	0.000	
28	   O	-4.164	0.601	-2.384	O.co2	1	UNK0	0.000	
29	   O	-2.076	1.406	-2.714	O.3	1	UNK0	0.000	
30	   C	-2.593	2.723	-2.708	C.3	1	UNK0	0.000	
31	   C	-3.600	2.929	-3.794	C.3	1	UNK0	0.000	
32	   H	1.533	3.941	2.809	 H	1	UNK0	0.000	
33	   H	4.695	1.786	1.005	 H	1	UNK0	0.000	
34	   H	5.597	3.898	0.092	 H	1	UNK0	0.000	
35	   H	4.486	5.997	0.530	 H	1	UNK0	0.000	
36	   H	1.371	-0.456	4.901	 H	1	UNK0	0.000	
37	   H	1.504	-1.270	-0.944	 H	1	UNK0	0.000	
38	   H	0.978	-3.666	-0.408	 H	1	UNK0	0.000	
39	   H	0.613	-4.081	1.271	 H	1	UNK0	0.000	
40	   H	-3.477	-2.549	-0.245	 H	1	UNK0	0.000	
41	   H	-3.419	-3.971	-1.391	 H	1	UNK0	0.000	
42	   H	-3.516	-2.712	-3.258	 H	1	UNK0	0.000	
43	   H	-4.435	-1.689	-2.106	 H	1	UNK0	0.000	
44	   H	-0.786	-1.247	-3.788	 H	1	UNK0	0.000	
45	   H	-0.427	-0.587	-2.184	 H	1	UNK0	0.000	
46	   H	-1.243	-3.397	-3.037	 H	1	UNK0	0.000	
47	   H	0.274	-2.914	-2.142	 H	1	UNK0	0.000	
48	   H	-3.128	2.916	-1.732	 H	1	UNK0	0.000	
49	   H	-1.767	3.473	-2.721	 H	1	UNK0	0.000	
50	   H	-3.741	1.973	-4.341	 H	1	UNK0	0.000	
51	   H	-4.590	3.258	-3.423	 H	1	UNK0	0.000	
52	   H	-3.263	3.707	-4.507	 H	1	UNK0	0.000	
@<TRIPOS>BOND
1 1 2 1
2 2 3 2
3 2 7 1
4 3 4 1
5 4 5 2
6 4 8 1
7 5 6 1
8 6 7 2
9 8 9 1
10 8 12 1
11 9 10 2
12 10 11 1
13 11 12 2
14 11 16 1
15 12 13 1
16 13 14 2
17 14 15 1
18 15 16 1
19 15 18 1
20 16 17 2
21 18 19 1
22 19 20 2
23 19 21 1
24 21 22 1
25 21 26 1
26 22 23 1
27 23 24 1
28 24 25 1
29 24 27 1
30 25 26 1
31 27 28 2
32 27 29 1
33 29 30 1
34 30 31 1
35 3 32 1
36 5 33 1
37 6 34 1
38 7 35 1
39 10 36 1
40 14 37 1
41 18 38 1
42 18 39 1
43 22 40 1
44 22 41 1
45 23 42 1
46 23 43 1
47 25 44 1
48 25 45 1
49 26 46 1
50 26 47 1
51 30 48 1
52 30 49 1
53 31 50 1
54 31 51 1
55 31 52 1
@<TRIPOS>SUBSTRUCTURE
1	UNK0	1	GROUP	1 ****	UNK
