# created with PyMOL 2.3.2
@<TRIPOS>MOLECULE
2302
41 44 1                 
SMALL
USER_CHARGES
@<TRIPOS>ATOM
1	  Cl	5.437	-6.792	-1.533	Cl	1	UNK0	0.000	
2	   C	4.493	-5.337	-1.774	C.2	1	UNK0	0.000	
3	   C	4.572	-4.264	-0.879	C.2	1	UNK0	0.000	
4	   N	3.844	-3.152	-1.074	N.pl3	1	UNK0	0.000	
5	   C	3.040	-3.093	-2.147	C.2	1	UNK0	0.000	
6	   N	2.434	-1.891	-2.112	N.2	1	UNK0	0.000	
7	   C	2.838	-1.179	-1.033	C.2	1	UNK0	0.000	
8	   C	3.734	-1.993	-0.383	C.2	1	UNK0	0.000	
9	   C	2.432	0.160	-0.639	C.2	1	UNK0	0.000	
10	   O	2.888	0.655	0.408	O.2	1	UNK0	0.000	
11	   N	1.531	0.885	-1.443	N.pl3	1	UNK0	0.000	
12	   C	1.031	2.206	-1.195	C.3	1	UNK0	0.000	
13	   C	-0.075	2.289	-0.233	C.2	1	UNK0	0.000	
14	   N	-1.179	3.074	-0.417	N.2	1	UNK0	0.000	
15	   N	-1.984	2.936	0.601	N.pl3	1	UNK0	0.000	
16	   C	-1.459	2.073	1.482	C.2	1	UNK0	0.000	
17	   C	-0.248	1.658	0.962	C.2	1	UNK0	0.000	
18	   C	-2.054	1.628	2.791	C.3	1	UNK0	0.000	
19	   N	-3.359	1.046	2.447	N.3	1	UNK0	0.000	
20	   C	-3.673	1.173	1.050	C.3	1	UNK0	0.000	
21	   C	-4.307	2.490	0.689	C.3	1	UNK0	0.000	
22	   C	-3.272	3.608	0.762	C.3	1	UNK0	0.000	
23	   C	2.938	-4.130	-3.047	C.2	1	UNK0	0.000	
24	   C	3.667	-5.264	-2.865	C.2	1	UNK0	0.000	
25	   H	5.237	-4.357	-0.025	 H	1	UNK0	0.000	
26	   H	4.264	-1.727	0.545	 H	1	UNK0	0.000	
27	   H	1.179	0.399	-2.328	 H	1	UNK0	0.000	
28	   H	1.861	2.902	-0.868	 H	1	UNK0	0.000	
29	   H	0.712	2.641	-2.174	 H	1	UNK0	0.000	
30	   H	0.404	0.945	1.473	 H	1	UNK0	0.000	
31	   H	-1.389	0.943	3.303	 H	1	UNK0	0.000	
32	   H	-2.283	2.556	3.368	 H	1	UNK0	0.000	
33	   H	-3.271	0.011	2.663	 H	1	UNK0	0.000	
34	   H	-4.391	0.374	0.769	 H	1	UNK0	0.000	
35	   H	-2.786	1.004	0.393	 H	1	UNK0	0.000	
36	   H	-5.210	2.695	1.260	 H	1	UNK0	0.000	
37	   H	-4.572	2.408	-0.405	 H	1	UNK0	0.000	
38	   H	-3.303	3.965	1.826	 H	1	UNK0	0.000	
39	   H	-3.447	4.397	0.030	 H	1	UNK0	0.000	
40	   H	2.272	-4.057	-3.916	 H	1	UNK0	0.000	
41	   H	3.558	-6.059	-3.593	 H	1	UNK0	0.000	
@<TRIPOS>BOND
1 1 2 1
2 2 3 2
3 2 24 1
4 3 4 1
5 4 5 1
6 4 8 1
7 5 6 2
8 5 23 1
9 6 7 1
10 7 8 2
11 7 9 1
12 9 10 2
13 9 11 1
14 11 12 1
15 12 13 1
16 13 14 2
17 13 17 1
18 14 15 1
19 15 16 1
20 15 22 1
21 16 17 2
22 16 18 1
23 18 19 1
24 19 20 1
25 20 21 1
26 21 22 1
27 23 24 2
28 3 25 1
29 8 26 1
30 11 27 1
31 12 28 1
32 12 29 1
33 17 30 1
34 18 31 1
35 18 32 1
36 19 33 1
37 20 34 1
38 20 35 1
39 21 36 1
40 21 37 1
41 22 38 1
42 22 39 1
43 23 40 1
44 24 41 1
@<TRIPOS>SUBSTRUCTURE
1	UNK0	1	GROUP	1 ****	UNK
