# created with PyMOL 2.3.2
@<TRIPOS>MOLECULE
2303
58 62 1                 
SMALL
USER_CHARGES
@<TRIPOS>ATOM
1	   S	3.566	-2.251	1.446	S.O2	1	UNK0	0.000	
2	   O	3.531	-3.757	1.212	O.2	1	UNK0	0.000	
3	   O	4.772	-1.994	2.320	O.2	1	UNK0	0.000	
4	   N	3.601	-1.382	0.034	N.3	1	UNK0	0.000	
5	   C	2.601	-1.515	-0.929	C.3	1	UNK0	0.000	
6	   C	2.110	-0.141	-1.350	C.3	1	UNK0	0.000	
7	   N	2.220	0.856	-0.309	N.pl3	1	UNK0	0.000	
8	   C	3.535	0.976	0.335	C.3	1	UNK0	0.000	
9	   C	4.363	-0.217	-0.092	C.3	1	UNK0	0.000	
10	   C	1.167	1.710	0.108	C.2	1	UNK0	0.000	
11	   O	1.356	2.525	1.046	O.2	1	UNK0	0.000	
12	   C	-0.132	1.664	-0.534	C.3	1	UNK0	0.000	
13	   C	-0.192	2.230	-1.934	C.3	1	UNK0	0.000	
14	   N	-1.647	2.173	-2.159	N.pl3	1	UNK0	0.000	
15	   C	-2.212	2.578	-0.921	C.2	1	UNK0	0.000	
16	   O	-3.420	2.887	-0.773	O.2	1	UNK0	0.000	
17	   C	-1.164	2.576	0.146	C.3	1	UNK0	0.000	
18	   C	-2.230	1.785	-3.384	C.2	1	UNK0	0.000	
19	   C	-1.958	2.548	-4.523	C.2	1	UNK0	0.000	
20	   C	-2.484	2.235	-5.748	C.2	1	UNK0	0.000	
21	   C	-3.304	1.145	-5.879	C.2	1	UNK0	0.000	
22	   C	-3.604	0.357	-4.775	C.2	1	UNK0	0.000	
23	   C	-3.054	0.707	-3.562	C.2	1	UNK0	0.000	
24	  Cl	-2.125	3.206	-7.148	Cl	1	UNK0	0.000	
25	   C	2.128	-1.838	2.360	C.2	1	UNK0	0.000	
26	   C	2.161	-0.848	3.319	C.2	1	UNK0	0.000	
27	   C	1.072	-0.473	4.070	C.2	1	UNK0	0.000	
28	   C	-0.137	-1.101	3.879	C.2	1	UNK0	0.000	
29	   C	-0.192	-2.099	2.920	C.2	1	UNK0	0.000	
30	   C	0.915	-2.470	2.167	C.2	1	UNK0	0.000	
31	   O	-1.220	-0.729	4.625	O.3	1	UNK0	0.000	
32	   C	-1.312	0.393	5.454	C.3	1	UNK0	0.000	
33	   C	0.016	0.938	5.831	C.2	1	UNK0	0.000	
34	   O	0.106	1.707	6.803	O.2	1	UNK0	0.000	
35	   N	1.142	0.554	5.056	N.pl3	1	UNK0	0.000	
36	   H	3.079	-1.949	-1.861	 H	1	UNK0	0.000	
37	   H	1.752	-2.180	-0.654	 H	1	UNK0	0.000	
38	   H	1.055	-0.297	-1.669	 H	1	UNK0	0.000	
39	   H	2.646	0.230	-2.245	 H	1	UNK0	0.000	
40	   H	3.425	0.923	1.435	 H	1	UNK0	0.000	
41	   H	4.032	1.919	0.021	 H	1	UNK0	0.000	
42	   H	5.354	-0.232	0.408	 H	1	UNK0	0.000	
43	   H	4.597	-0.049	-1.186	 H	1	UNK0	0.000	
44	   H	-0.617	0.652	-0.496	 H	1	UNK0	0.000	
45	   H	0.372	1.699	-2.688	 H	1	UNK0	0.000	
46	   H	0.040	3.317	-1.877	 H	1	UNK0	0.000	
47	   H	-0.759	3.573	0.350	 H	1	UNK0	0.000	
48	   H	-1.565	2.065	1.046	 H	1	UNK0	0.000	
49	   H	-1.303	3.413	-4.400	 H	1	UNK0	0.000	
50	   H	-3.753	0.844	-6.821	 H	1	UNK0	0.000	
51	   H	-4.261	-0.508	-4.904	 H	1	UNK0	0.000	
52	   H	-3.289	0.091	-2.709	 H	1	UNK0	0.000	
53	   H	3.083	-0.318	3.514	 H	1	UNK0	0.000	
54	   H	-1.160	-2.592	2.777	 H	1	UNK0	0.000	
55	   H	0.829	-3.255	1.428	 H	1	UNK0	0.000	
56	   H	-1.857	0.123	6.402	 H	1	UNK0	0.000	
57	   H	-1.844	1.203	4.916	 H	1	UNK0	0.000	
58	   H	2.076	1.023	5.187	 H	1	UNK0	0.000	
@<TRIPOS>BOND
1 1 2 2
2 1 3 2
3 1 4 1
4 1 25 1
5 4 5 1
6 4 9 1
7 5 6 1
8 6 7 1
9 7 8 1
10 7 10 1
11 8 9 1
12 10 11 2
13 10 12 1
14 12 13 1
15 12 17 1
16 13 14 1
17 14 15 1
18 14 18 1
19 15 16 2
20 15 17 1
21 18 19 2
22 18 23 1
23 19 20 1
24 20 21 2
25 20 24 1
26 21 22 1
27 22 23 2
28 25 26 2
29 25 30 1
30 26 27 1
31 27 28 2
32 27 35 1
33 28 29 1
34 28 31 1
35 29 30 2
36 31 32 1
37 32 33 1
38 33 34 2
39 33 35 1
40 5 36 1
41 5 37 1
42 6 38 1
43 6 39 1
44 8 40 1
45 8 41 1
46 9 42 1
47 9 43 1
48 12 44 1
49 13 45 1
50 13 46 1
51 17 47 1
52 17 48 1
53 19 49 1
54 21 50 1
55 22 51 1
56 23 52 1
57 26 53 1
58 29 54 1
59 30 55 1
60 32 56 1
61 32 57 1
62 35 58 1
@<TRIPOS>SUBSTRUCTURE
1	UNK0	1	GROUP	1 ****	UNK
