# created with PyMOL 2.3.2
@<TRIPOS>MOLECULE
2305
34 37 1                 
SMALL
USER_CHARGES
@<TRIPOS>ATOM
1	   P	-2.850	2.075	-0.824	P.3	1	UNK0	0.000	
2	   O	-3.575	0.729	-0.823	O.co2	1	UNK0	0.000	
3	   O	-1.949	2.275	0.589	O.3	1	UNK0	0.000	
4	   C	-0.609	2.290	0.255	C.3	1	UNK0	0.000	
5	   C	-0.416	1.198	-0.800	C.3	1	UNK0	0.000	
6	   O	0.848	0.709	-0.632	O.3	1	UNK0	0.000	
7	   C	1.201	0.775	0.687	C.3	1	UNK0	0.000	
8	   C	0.294	1.808	1.350	C.3	1	UNK0	0.000	
9	   O	-0.439	1.169	2.371	O.3	1	UNK0	0.000	
10	   N	1.133	-0.497	1.367	N.pl3	1	UNK0	0.000	
11	   C	0.774	-1.664	0.785	C.2	1	UNK0	0.000	
12	   N	0.412	-1.954	-0.471	N.2	1	UNK0	0.000	
13	   C	0.103	-3.224	-0.773	C.2	1	UNK0	0.000	
14	   N	0.141	-4.235	0.141	N.2	1	UNK0	0.000	
15	   C	0.498	-3.996	1.416	C.2	1	UNK0	0.000	
16	   C	0.816	-2.680	1.719	C.2	1	UNK0	0.000	
17	   N	1.211	-2.093	2.885	N.2	1	UNK0	0.000	
18	   C	1.394	-0.770	2.635	C.2	1	UNK0	0.000	
19	  Cl	1.904	0.421	3.818	Cl	1	UNK0	0.000	
20	   N	0.556	-5.007	2.411	N.pl3	1	UNK0	0.000	
21	   C	-0.656	1.857	-2.134	C.3	1	UNK0	0.000	
22	   O	-1.962	2.287	-2.211	O.3	1	UNK0	0.000	
23	   O	-4.080	3.261	-0.792	O.3	1	UNK0	0.000	
24	   H	-0.322	3.276	-0.125	 H	1	UNK0	0.000	
25	   H	-1.191	0.411	-0.683	 H	1	UNK0	0.000	
26	   H	2.276	1.108	0.726	 H	1	UNK0	0.000	
27	   H	0.878	2.635	1.793	 H	1	UNK0	0.000	
28	   H	-0.765	1.807	3.031	 H	1	UNK0	0.000	
29	   H	-0.193	-3.474	-1.790	 H	1	UNK0	0.000	
30	   H	1.186	-4.863	3.227	 H	1	UNK0	0.000	
31	   H	0.008	-5.882	2.373	 H	1	UNK0	0.000	
32	   H	-0.012	2.780	-2.231	 H	1	UNK0	0.000	
33	   H	-0.369	1.174	-2.963	 H	1	UNK0	0.000	
34	   H	-4.371	3.438	0.157	 H	1	UNK0	0.000	
@<TRIPOS>BOND
1 1 2 2
2 1 3 1
3 1 22 1
4 1 23 1
5 3 4 1
6 4 5 1
7 4 8 1
8 5 6 1
9 5 21 1
10 6 7 1
11 7 8 1
12 7 10 1
13 8 9 1
14 10 11 1
15 10 18 1
16 11 12 2
17 11 16 1
18 12 13 1
19 13 14 2
20 14 15 1
21 15 16 2
22 15 20 1
23 16 17 1
24 17 18 2
25 18 19 1
26 21 22 1
27 4 24 1
28 5 25 1
29 7 26 1
30 8 27 1
31 9 28 1
32 13 29 1
33 20 30 1
34 20 31 1
35 21 32 1
36 21 33 1
37 23 34 1
@<TRIPOS>SUBSTRUCTURE
1	UNK0	1	GROUP	1 ****	UNK
