# created with PyMOL 2.3.2
@<TRIPOS>MOLECULE
2306
44 47 1                 
SMALL
USER_CHARGES
@<TRIPOS>ATOM
1	   S	0.240	2.001	2.548	S.3	1	UNK0	0.000	
2	   O	0.056	3.371	3.081	O.2	1	UNK0	0.000	
3	   O	0.007	0.914	3.515	O.2	1	UNK0	0.000	
4	   O	-0.647	1.812	1.104	O.3	1	UNK0	0.000	
5	   C	0.162	0.992	0.317	C.3	1	UNK0	0.000	
6	   C	1.564	1.298	0.566	C.2	1	UNK0	0.000	
7	   C	1.837	1.865	1.785	C.2	1	UNK0	0.000	
8	   C	3.099	2.227	2.214	C.2	1	UNK0	0.000	
9	   C	4.177	2.016	1.385	C.2	1	UNK0	0.000	
10	   C	3.927	1.447	0.153	C.2	1	UNK0	0.000	
11	   C	2.671	1.088	-0.271	C.2	1	UNK0	0.000	
12	   C	-0.176	-0.403	0.628	C.2	1	UNK0	0.000	
13	   C	-1.272	-0.759	1.403	C.2	1	UNK0	0.000	
14	   C	-1.590	-2.064	1.703	C.2	1	UNK0	0.000	
15	   C	-0.789	-3.091	1.219	C.2	1	UNK0	0.000	
16	   C	0.309	-2.779	0.445	C.2	1	UNK0	0.000	
17	   C	0.596	-1.445	0.164	C.2	1	UNK0	0.000	
18	   C	1.176	-3.862	-0.084	C.3	1	UNK0	0.000	
19	   O	-1.075	-4.431	1.499	O.2	1	UNK0	0.000	
20	  Br	-3.105	-2.501	2.771	Br	1	UNK0	0.000	
21	   C	-0.174	1.369	-1.100	C.2	1	UNK0	0.000	
22	   C	-0.149	2.709	-1.489	C.2	1	UNK0	0.000	
23	   C	-0.437	3.117	-2.755	C.2	1	UNK0	0.000	
24	   C	-0.774	2.176	-3.719	C.2	1	UNK0	0.000	
25	   C	-0.809	0.849	-3.372	C.2	1	UNK0	0.000	
26	   C	-0.509	0.453	-2.067	C.2	1	UNK0	0.000	
27	   C	-1.167	-0.183	-4.397	C.3	1	UNK0	0.000	
28	   O	-1.064	2.623	-5.009	O.3	1	UNK0	0.000	
29	  Br	-0.392	4.959	-3.247	Br	1	UNK0	0.000	
30	   H	3.206	2.673	3.206	 H	1	UNK0	0.000	
31	   H	5.173	2.294	1.704	 H	1	UNK0	0.000	
32	   H	4.817	1.296	-0.478	 H	1	UNK0	0.000	
33	   H	2.554	0.645	-1.270	 H	1	UNK0	0.000	
34	   H	-1.906	0.017	1.785	 H	1	UNK0	0.000	
35	   H	1.473	-1.296	-0.447	 H	1	UNK0	0.000	
36	   H	0.484	-4.639	-0.523	 H	1	UNK0	0.000	
37	   H	1.778	-3.514	-0.962	 H	1	UNK0	0.000	
38	   H	1.767	-4.384	0.670	 H	1	UNK0	0.000	
39	   H	0.112	3.458	-0.751	 H	1	UNK0	0.000	
40	   H	-0.547	-0.581	-1.830	 H	1	UNK0	0.000	
41	   H	-1.015	-1.196	-3.978	 H	1	UNK0	0.000	
42	   H	-0.490	-0.118	-5.281	 H	1	UNK0	0.000	
43	   H	-2.191	-0.055	-4.780	 H	1	UNK0	0.000	
44	   H	-1.308	1.924	-5.706	 H	1	UNK0	0.000	
@<TRIPOS>BOND
1 1 2 2
2 1 3 2
3 1 4 1
4 1 7 1
5 4 5 1
6 5 6 1
7 5 12 1
8 5 21 1
9 6 7 2
10 6 11 1
11 7 8 1
12 8 9 2
13 9 10 1
14 10 11 2
15 12 13 2
16 12 17 1
17 13 14 1
18 14 15 2
19 14 20 1
20 15 16 1
21 15 19 1
22 16 17 2
23 16 18 1
24 21 22 2
25 21 26 1
26 22 23 1
27 23 24 2
28 23 29 1
29 24 25 1
30 24 28 1
31 25 26 2
32 25 27 1
33 8 30 1
34 9 31 1
35 10 32 1
36 11 33 1
37 13 34 1
38 17 35 1
39 18 36 1
40 18 37 1
41 18 38 1
42 22 39 1
43 26 40 1
44 27 41 1
45 27 42 1
46 27 43 1
47 28 44 1
@<TRIPOS>SUBSTRUCTURE
1	UNK0	1	GROUP	1 ****	UNK
