# created with PyMOL 2.3.2
@<TRIPOS>MOLECULE
2311
35 38 1                 
SMALL
USER_CHARGES
@<TRIPOS>ATOM
1	  Br	-2.609	-1.383	4.435	Br	1	UNK0	0.000	
2	   C	-1.498	-0.185	3.454	C.2	1	UNK0	0.000	
3	   C	-0.804	-0.575	2.313	C.2	1	UNK0	0.000	
4	   C	-0.002	0.296	1.609	C.2	1	UNK0	0.000	
5	   C	0.109	1.599	2.059	C.2	1	UNK0	0.000	
6	   C	-0.580	1.993	3.194	C.2	1	UNK0	0.000	
7	   C	-1.384	1.114	3.898	C.2	1	UNK0	0.000	
8	   O	-2.059	1.565	5.040	O.2	1	UNK0	0.000	
9	  Br	-0.403	3.792	3.784	Br	1	UNK0	0.000	
10	   C	0.694	-0.078	0.474	C.2	1	UNK0	0.000	
11	   C	0.553	-1.389	0.061	C.2	1	UNK0	0.000	
12	   C	-0.313	-2.252	0.858	C.2	1	UNK0	0.000	
13	   C	-0.470	-3.567	0.466	C.2	1	UNK0	0.000	
14	   C	0.197	-4.009	-0.661	C.2	1	UNK0	0.000	
15	   O	0.045	-5.195	-1.001	O.2	1	UNK0	0.000	
16	   C	1.019	-3.200	-1.422	C.2	1	UNK0	0.000	
17	   C	1.203	-1.879	-1.064	C.2	1	UNK0	0.000	
18	  Br	1.919	-3.885	-2.983	Br	1	UNK0	0.000	
19	  Br	-1.602	-4.712	1.500	Br	1	UNK0	0.000	
20	   O	-0.943	-1.828	1.925	O.3	1	UNK0	0.000	
21	   C	1.547	0.820	-0.288	C.2	1	UNK0	0.000	
22	   C	1.021	1.561	-1.316	C.2	1	UNK0	0.000	
23	   C	1.857	2.413	-2.033	C.2	1	UNK0	0.000	
24	   C	3.194	2.531	-1.740	C.2	1	UNK0	0.000	
25	   C	3.722	1.786	-0.708	C.2	1	UNK0	0.000	
26	   C	2.908	0.942	0.007	C.2	1	UNK0	0.000	
27	   C	3.445	0.146	1.099	C.2	1	UNK0	0.000	
28	   O	3.386	0.581	2.283	O.co2	1	UNK0	0.000	
29	   O	4.032	-1.093	0.911	O.co2	1	UNK0	0.000	
30	  Cl	5.426	1.915	-0.311	Cl	1	UNK0	0.000	
31	  Cl	4.270	3.602	-2.637	Cl	1	UNK0	0.000	
32	  Cl	1.171	3.351	-3.340	Cl	1	UNK0	0.000	
33	  Cl	-0.673	1.435	-1.713	Cl	1	UNK0	0.000	
34	   H	0.738	2.264	1.496	 H	1	UNK0	0.000	
35	   H	1.836	-1.203	-1.627	 H	1	UNK0	0.000	
@<TRIPOS>BOND
1 1 2 1
2 2 3 2
3 2 7 1
4 3 4 1
5 3 20 1
6 4 5 2
7 4 10 1
8 5 6 1
9 6 7 2
10 6 9 1
11 7 8 1
12 10 11 2
13 10 21 1
14 11 12 1
15 11 17 1
16 12 13 2
17 12 20 1
18 13 14 1
19 13 19 1
20 14 15 2
21 14 16 1
22 16 17 2
23 16 18 1
24 21 22 2
25 21 26 1
26 22 23 1
27 22 33 1
28 23 24 2
29 23 32 1
30 24 25 1
31 24 31 1
32 25 26 2
33 25 30 1
34 26 27 1
35 27 28 2
36 27 29 1
37 5 34 1
38 17 35 1
@<TRIPOS>SUBSTRUCTURE
1	UNK0	1	GROUP	1 ****	UNK
