# created with PyMOL 2.3.2
@<TRIPOS>MOLECULE
2312
35 38 1                 
SMALL
USER_CHARGES
@<TRIPOS>ATOM
1	  Br	0.759	4.813	-2.734	Br	1	UNK0	0.000	
2	   C	0.992	3.374	-1.514	C.2	1	UNK0	0.000	
3	   C	-0.036	2.511	-1.145	C.2	1	UNK0	0.000	
4	   C	0.185	1.477	-0.250	C.2	1	UNK0	0.000	
5	   C	1.440	1.288	0.292	C.2	1	UNK0	0.000	
6	   C	2.455	2.131	-0.065	C.2	1	UNK0	0.000	
7	   C	2.229	3.153	-0.952	C.2	1	UNK0	0.000	
8	   O	3.323	3.978	-1.272	O.2	1	UNK0	0.000	
9	  Br	4.176	1.811	0.724	Br	1	UNK0	0.000	
10	   C	-0.815	0.609	0.132	C.2	1	UNK0	0.000	
11	   C	-2.066	0.804	-0.415	C.2	1	UNK0	0.000	
12	   C	-2.209	1.924	-1.353	C.2	1	UNK0	0.000	
13	   C	-3.481	2.109	-1.897	C.2	1	UNK0	0.000	
14	   C	-4.519	1.274	-1.554	C.2	1	UNK0	0.000	
15	   O	-5.647	1.479	-2.070	O.2	1	UNK0	0.000	
16	   C	-4.351	0.221	-0.661	C.2	1	UNK0	0.000	
17	   C	-3.134	-0.018	-0.092	C.2	1	UNK0	0.000	
18	  Br	-5.848	-0.891	-0.241	Br	1	UNK0	0.000	
19	  Br	-3.742	3.558	-3.132	Br	1	UNK0	0.000	
20	   O	-1.214	2.716	-1.676	O.3	1	UNK0	0.000	
21	   C	-0.581	-0.478	1.084	C.2	1	UNK0	0.000	
22	   C	-0.776	-0.282	2.439	C.2	1	UNK0	0.000	
23	   C	-0.557	-1.288	3.356	C.2	1	UNK0	0.000	
24	   C	-0.133	-2.518	2.897	C.2	1	UNK0	0.000	
25	   C	0.071	-2.754	1.572	C.2	1	UNK0	0.000	
26	   C	-0.152	-1.737	0.670	C.2	1	UNK0	0.000	
27	   C	0.067	-1.977	-0.736	C.2	1	UNK0	0.000	
28	   O	1.153	-1.687	-1.309	O.co2	1	UNK0	0.000	
29	   O	-0.935	-2.547	-1.518	O.co2	1	UNK0	0.000	
30	  Cl	0.610	-4.350	1.075	Cl	1	UNK0	0.000	
31	  Cl	-1.321	1.302	3.002	Cl	1	UNK0	0.000	
32	   H	1.595	0.461	1.002	 H	1	UNK0	0.000	
33	   H	-2.948	-0.819	0.604	 H	1	UNK0	0.000	
34	   H	-0.720	-1.101	4.424	 H	1	UNK0	0.000	
35	   H	0.041	-3.314	3.612	 H	1	UNK0	0.000	
@<TRIPOS>BOND
1 1 2 1
2 2 3 2
3 2 7 1
4 3 4 1
5 3 20 1
6 4 5 2
7 4 10 1
8 5 6 1
9 6 7 2
10 6 9 1
11 7 8 1
12 10 11 2
13 10 21 1
14 11 12 1
15 11 17 1
16 12 13 2
17 12 20 1
18 13 14 1
19 13 19 1
20 14 15 2
21 14 16 1
22 16 17 2
23 16 18 1
24 21 22 2
25 21 26 1
26 22 23 1
27 22 31 1
28 23 24 2
29 24 25 1
30 25 26 2
31 25 30 1
32 26 27 1
33 27 28 2
34 27 29 1
35 5 32 1
36 17 33 1
37 23 34 1
38 24 35 1
@<TRIPOS>SUBSTRUCTURE
1	UNK0	1	GROUP	1 ****	UNK
