# created with PyMOL 2.3.2
@<TRIPOS>MOLECULE
2313
35 38 1                 
SMALL
USER_CHARGES
@<TRIPOS>ATOM
1	  Br	4.088	1.321	-2.883	Br	1	UNK0	0.000	
2	   C	2.744	0.118	-2.246	C.2	1	UNK0	0.000	
3	   C	1.582	0.669	-1.697	C.2	1	UNK0	0.000	
4	   C	0.634	-0.223	-1.248	C.2	1	UNK0	0.000	
5	   C	0.784	-1.596	-1.318	C.2	1	UNK0	0.000	
6	   C	1.925	-2.121	-1.857	C.2	1	UNK0	0.000	
7	   C	2.892	-1.242	-2.316	C.2	1	UNK0	0.000	
8	   O	4.061	-1.771	-2.868	O.2	1	UNK0	0.000	
9	  Br	2.120	-4.002	-1.948	Br	1	UNK0	0.000	
10	   C	-0.525	0.319	-0.700	C.2	1	UNK0	0.000	
11	   C	-0.726	1.684	-0.606	C.2	1	UNK0	0.000	
12	   C	0.354	2.521	-1.117	C.2	1	UNK0	0.000	
13	   C	0.188	3.897	-1.039	C.2	1	UNK0	0.000	
14	   C	-0.967	4.410	-0.493	C.2	1	UNK0	0.000	
15	   O	-1.065	5.679	-0.448	O.2	1	UNK0	0.000	
16	   C	-1.985	3.625	-0.011	C.2	1	UNK0	0.000	
17	   C	-1.867	2.253	-0.066	C.2	1	UNK0	0.000	
18	  Br	-3.534	4.447	0.721	Br	1	UNK0	0.000	
19	  Br	1.592	5.001	-1.705	Br	1	UNK0	0.000	
20	   O	1.438	1.983	-1.630	O.3	1	UNK0	0.000	
21	   C	-1.547	-0.566	-0.215	C.2	1	UNK0	0.000	
22	   C	-1.507	-0.977	1.101	C.2	1	UNK0	0.000	
23	   C	-2.478	-1.828	1.591	C.2	1	UNK0	0.000	
24	   C	-3.510	-2.293	0.798	C.2	1	UNK0	0.000	
25	   C	-3.540	-1.875	-0.516	C.2	1	UNK0	0.000	
26	   C	-2.569	-1.026	-1.002	C.2	1	UNK0	0.000	
27	   C	-0.452	-0.545	2.041	C.2	1	UNK0	0.000	
28	   O	0.474	0.216	1.724	O.co2	1	UNK0	0.000	
29	   O	-0.507	-1.016	3.335	O.co2	1	UNK0	0.000	
30	   H	-0.034	-2.200	-0.930	 H	1	UNK0	0.000	
31	   H	-2.655	1.588	0.307	 H	1	UNK0	0.000	
32	   H	-2.475	-2.168	2.617	 H	1	UNK0	0.000	
33	   H	-4.280	-2.965	1.182	 H	1	UNK0	0.000	
34	   H	-4.331	-2.216	-1.170	 H	1	UNK0	0.000	
35	   H	-2.649	-0.724	-2.076	 H	1	UNK0	0.000	
@<TRIPOS>BOND
1 1 2 1
2 2 3 2
3 2 7 1
4 3 4 1
5 3 20 1
6 4 5 2
7 4 10 1
8 5 6 1
9 6 7 2
10 6 9 1
11 7 8 1
12 10 11 2
13 10 21 1
14 11 12 1
15 11 17 1
16 12 13 2
17 12 20 1
18 13 14 1
19 13 19 1
20 14 15 2
21 14 16 1
22 16 17 2
23 16 18 1
24 21 22 2
25 21 26 1
26 22 23 1
27 22 27 1
28 23 24 2
29 24 25 1
30 25 26 2
31 27 28 2
32 27 29 1
33 5 30 1
34 17 31 1
35 23 32 1
36 24 33 1
37 25 34 1
38 26 35 1
@<TRIPOS>SUBSTRUCTURE
1	UNK0	1	GROUP	1 ****	UNK
