# created with PyMOL 2.3.2
@<TRIPOS>MOLECULE
2314
35 39 1                 
SMALL
USER_CHARGES
@<TRIPOS>ATOM
1	  Br	-3.335	-3.791	1.954	Br	1	UNK0	0.000	
2	   C	-1.555	-3.569	1.306	C.2	1	UNK0	0.000	
3	   C	-1.005	-2.291	1.094	C.2	1	UNK0	0.000	
4	   C	0.262	-2.090	0.632	C.2	1	UNK0	0.000	
5	   C	1.037	-3.220	0.362	C.2	1	UNK0	0.000	
6	   C	0.504	-4.458	0.567	C.2	1	UNK0	0.000	
7	   C	-0.777	-4.668	1.035	C.2	1	UNK0	0.000	
8	   O	-1.260	-5.974	1.223	O.2	1	UNK0	0.000	
9	  Br	1.556	-6.007	0.201	Br	1	UNK0	0.000	
10	   C	0.804	-0.754	0.423	C.3	1	UNK0	0.000	
11	   O	1.906	-0.617	1.318	O.3	1	UNK0	0.000	
12	   C	3.082	-0.393	0.656	C.2	1	UNK0	0.000	
13	   O	4.202	-0.235	1.193	O.co2	1	UNK0	0.000	
14	   C	2.748	-0.379	-0.755	C.2	1	UNK0	0.000	
15	   C	1.400	-0.591	-0.934	C.2	1	UNK0	0.000	
16	   C	0.917	-0.608	-2.201	C.2	1	UNK0	0.000	
17	   C	1.771	-0.417	-3.267	C.2	1	UNK0	0.000	
18	   C	3.122	-0.205	-3.092	C.2	1	UNK0	0.000	
19	   C	3.625	-0.184	-1.818	C.2	1	UNK0	0.000	
20	   C	-0.130	0.318	0.751	C.2	1	UNK0	0.000	
21	   C	-1.390	0.053	1.211	C.2	1	UNK0	0.000	
22	   C	-2.279	1.102	1.523	C.2	1	UNK0	0.000	
23	   C	-1.856	2.400	1.357	C.2	1	UNK0	0.000	
24	   C	-0.579	2.677	0.891	C.2	1	UNK0	0.000	
25	   C	0.277	1.655	0.590	C.2	1	UNK0	0.000	
26	  Br	0.021	4.470	0.656	Br	1	UNK0	0.000	
27	   O	-2.740	3.422	1.668	O.2	1	UNK0	0.000	
28	  Br	-4.034	0.691	2.164	Br	1	UNK0	0.000	
29	   O	-1.869	-1.236	1.398	O.3	1	UNK0	0.000	
30	   H	2.041	-3.034	-0.004	 H	1	UNK0	0.000	
31	   H	-0.132	-0.771	-2.379	 H	1	UNK0	0.000	
32	   H	1.417	-0.425	-4.300	 H	1	UNK0	0.000	
33	   H	3.807	-0.052	-3.930	 H	1	UNK0	0.000	
34	   H	4.677	-0.020	-1.655	 H	1	UNK0	0.000	
35	   H	1.283	1.804	0.223	 H	1	UNK0	0.000	
@<TRIPOS>BOND
1 1 2 1
2 2 3 2
3 2 7 1
4 3 4 1
5 3 29 1
6 4 5 2
7 4 10 1
8 5 6 1
9 6 7 2
10 6 9 1
11 7 8 1
12 10 11 1
13 10 15 1
14 10 20 1
15 11 12 1
16 12 13 2
17 12 14 1
18 14 15 2
19 14 19 1
20 15 16 1
21 16 17 2
22 17 18 1
23 18 19 2
24 20 21 2
25 20 25 1
26 21 22 1
27 21 29 1
28 22 23 2
29 22 28 1
30 23 24 1
31 23 27 1
32 24 25 2
33 24 26 1
34 5 30 1
35 16 31 1
36 17 32 1
37 18 33 1
38 19 34 1
39 25 35 1
@<TRIPOS>SUBSTRUCTURE
1	UNK0	1	GROUP	1 ****	UNK
