# created with PyMOL 2.3.2
@<TRIPOS>MOLECULE
2315
39 42 1                 
SMALL
USER_CHARGES
@<TRIPOS>ATOM
1	  Br	-1.377	2.445	-4.533	Br	1	UNK0	0.000	
2	   C	-1.898	1.943	-2.757	C.2	1	UNK0	0.000	
3	   C	-0.891	1.523	-1.897	C.2	1	UNK0	0.000	
4	   C	-1.270	1.164	-0.622	C.2	1	UNK0	0.000	
5	   C	-2.614	1.223	-0.223	C.2	1	UNK0	0.000	
6	   C	-3.608	1.640	-1.079	C.2	1	UNK0	0.000	
7	   C	-3.211	1.996	-2.351	C.2	1	UNK0	0.000	
8	   O	-4.187	2.421	-3.241	O.2	1	UNK0	0.000	
9	   N	-4.970	1.704	-0.689	N.pl3	1	UNK0	0.000	
10	   C	-0.298	0.740	0.264	C.2	1	UNK0	0.000	
11	   C	0.998	0.709	-0.201	C.2	1	UNK0	0.000	
12	   C	1.347	1.101	-1.563	C.2	1	UNK0	0.000	
13	   C	2.659	1.063	-2.014	C.2	1	UNK0	0.000	
14	   C	3.659	0.645	-1.158	C.2	1	UNK0	0.000	
15	   O	4.859	0.612	-1.578	O.2	1	UNK0	0.000	
16	   C	3.350	0.269	0.138	C.2	1	UNK0	0.000	
17	   C	2.051	0.301	0.603	C.2	1	UNK0	0.000	
18	   N	4.404	-0.156	0.992	N.pl3	1	UNK0	0.000	
19	   O	4.171	-0.950	1.924	O.2	1	UNK0	0.000	
20	   O	5.688	0.292	0.814	O.2	1	UNK0	0.000	
21	  Br	3.078	1.581	-3.799	Br	1	UNK0	0.000	
22	   O	0.356	1.487	-2.326	O.3	1	UNK0	0.000	
23	   C	-0.631	0.347	1.627	C.2	1	UNK0	0.000	
24	   C	-0.948	-0.966	1.910	C.2	1	UNK0	0.000	
25	   C	-1.268	-1.361	3.211	C.2	1	UNK0	0.000	
26	   C	-1.265	-0.425	4.220	C.2	1	UNK0	0.000	
27	   C	-0.946	0.887	3.925	C.2	1	UNK0	0.000	
28	   C	-0.629	1.286	2.645	C.2	1	UNK0	0.000	
29	   C	-0.940	-1.920	0.824	C.2	1	UNK0	0.000	
30	   O	-1.222	-3.114	1.051	O.co2	1	UNK0	0.000	
31	   O	-0.627	-1.526	-0.452	O.co2	1	UNK0	0.000	
32	   H	-2.890	0.937	0.782	 H	1	UNK0	0.000	
33	   H	-5.663	0.966	-0.904	 H	1	UNK0	0.000	
34	   H	-5.328	2.533	-0.152	 H	1	UNK0	0.000	
35	   H	1.783	0.009	1.621	 H	1	UNK0	0.000	
36	   H	-1.508	-2.402	3.376	 H	1	UNK0	0.000	
37	   H	-1.513	-0.710	5.253	 H	1	UNK0	0.000	
38	   H	-0.951	1.600	4.735	 H	1	UNK0	0.000	
39	   H	-0.376	2.327	2.410	 H	1	UNK0	0.000	
@<TRIPOS>BOND
1 1 2 1
2 2 3 2
3 2 7 1
4 3 4 1
5 3 22 1
6 4 5 2
7 4 10 1
8 5 6 1
9 6 7 2
10 6 9 1
11 7 8 1
12 10 11 2
13 10 23 1
14 11 12 1
15 11 17 1
16 12 13 2
17 12 22 1
18 13 14 1
19 13 21 1
20 14 15 2
21 14 16 1
22 16 17 2
23 16 18 1
24 18 19 2
25 18 20 1
26 23 24 2
27 23 28 1
28 24 25 1
29 24 29 1
30 25 26 2
31 26 27 1
32 27 28 2
33 29 30 2
34 29 31 1
35 5 32 1
36 9 33 1
37 9 34 1
38 17 35 1
39 25 36 1
40 26 37 1
41 27 38 1
42 28 39 1
@<TRIPOS>SUBSTRUCTURE
1	UNK0	1	GROUP	1 ****	UNK
