# created with PyMOL 2.3.2
@<TRIPOS>MOLECULE
2316
59 62 1                 
SMALL
USER_CHARGES
@<TRIPOS>ATOM
1	   S	0.610	2.491	-0.376	S.O2	1	UNK0	0.000	
2	   O	0.488	1.014	-0.447	O.2	1	UNK0	0.000	
3	   O	0.593	2.858	1.104	O.2	1	UNK0	0.000	
4	   N	-0.777	3.233	-1.055	N.3	1	UNK0	0.000	
5	   C	-0.917	3.010	-2.465	C.3	1	UNK0	0.000	
6	   C	-2.107	2.100	-2.787	C.3	1	UNK0	0.000	
7	   N	-2.279	1.108	-1.828	N.3	1	UNK0	0.000	
8	   C	-2.462	1.550	-0.478	C.3	1	UNK0	0.000	
9	   C	-1.978	2.971	-0.306	C.3	1	UNK0	0.000	
10	   C	-2.925	-0.083	-2.097	C.3	1	UNK0	0.000	
11	   C	-2.285	-1.062	-3.020	C.3	1	UNK0	0.000	
12	   O	-2.064	-0.559	-4.298	O.3	1	UNK0	0.000	
13	   C	-1.045	-1.708	-2.440	C.3	1	UNK0	0.000	
14	   O	-1.345	-2.189	-1.161	O.3	1	UNK0	0.000	
15	   C	-0.396	-2.844	-0.359	C.2	1	UNK0	0.000	
16	   C	-0.748	-3.303	0.908	C.2	1	UNK0	0.000	
17	   C	0.147	-3.948	1.725	C.2	1	UNK0	0.000	
18	   C	1.431	-4.135	1.255	C.2	1	UNK0	0.000	
19	   C	2.378	-4.781	2.039	C.2	1	UNK0	0.000	
20	   C	2.043	-5.242	3.297	C.2	1	UNK0	0.000	
21	   C	0.772	-5.065	3.780	C.2	1	UNK0	0.000	
22	   C	-0.155	-4.418	2.980	C.2	1	UNK0	0.000	
23	  Br	3.344	-6.139	4.398	Br	1	UNK0	0.000	
24	   C	1.802	-3.686	-0.002	C.2	1	UNK0	0.000	
25	   C	0.877	-3.044	-0.792	C.2	1	UNK0	0.000	
26	   N	2.067	3.071	-1.032	N.3	1	UNK0	0.000	
27	   C	2.322	4.462	-0.837	C.3	1	UNK0	0.000	
28	   C	3.788	4.633	-0.421	C.3	1	UNK0	0.000	
29	   O	4.091	3.977	0.748	O.3	1	UNK0	0.000	
30	   C	3.673	2.681	0.705	C.3	1	UNK0	0.000	
31	   C	3.224	2.311	-0.675	C.3	1	UNK0	0.000	
32	   H	0.032	2.569	-2.833	 H	1	UNK0	0.000	
33	   H	-1.023	3.998	-2.959	 H	1	UNK0	0.000	
34	   H	-1.930	1.713	-3.782	 H	1	UNK0	0.000	
35	   H	-2.990	2.787	-2.833	 H	1	UNK0	0.000	
36	   H	-3.500	1.428	-0.174	 H	1	UNK0	0.000	
37	   H	-1.825	0.917	0.178	 H	1	UNK0	0.000	
38	   H	-2.777	3.637	-0.698	 H	1	UNK0	0.000	
39	   H	-1.792	3.243	0.747	 H	1	UNK0	0.000	
40	   H	-3.956	0.129	-2.511	 H	1	UNK0	0.000	
41	   H	-3.132	-0.625	-1.138	 H	1	UNK0	0.000	
42	   H	-3.007	-1.904	-3.159	 H	1	UNK0	0.000	
43	   H	-1.517	-1.232	-4.792	 H	1	UNK0	0.000	
44	   H	-0.786	-2.589	-3.082	 H	1	UNK0	0.000	
45	   H	-0.165	-1.043	-2.465	 H	1	UNK0	0.000	
46	   H	-1.752	-3.154	1.268	 H	1	UNK0	0.000	
47	   H	3.388	-4.937	1.690	 H	1	UNK0	0.000	
48	   H	0.524	-5.431	4.767	 H	1	UNK0	0.000	
49	   H	-1.151	-4.287	3.375	 H	1	UNK0	0.000	
50	   H	2.803	-3.854	-0.320	 H	1	UNK0	0.000	
51	   H	1.186	-2.694	-1.786	 H	1	UNK0	0.000	
52	   H	2.219	5.065	-1.778	 H	1	UNK0	0.000	
53	   H	1.695	4.951	-0.083	 H	1	UNK0	0.000	
54	   H	4.478	4.410	-1.253	 H	1	UNK0	0.000	
55	   H	3.930	5.731	-0.201	 H	1	UNK0	0.000	
56	   H	2.866	2.527	1.439	 H	1	UNK0	0.000	
57	   H	4.462	1.945	0.982	 H	1	UNK0	0.000	
58	   H	2.915	1.243	-0.623	 H	1	UNK0	0.000	
59	   H	4.011	2.450	-1.441	 H	1	UNK0	0.000	
@<TRIPOS>BOND
1 1 2 2
2 1 3 2
3 1 4 1
4 1 26 1
5 4 5 1
6 4 9 1
7 5 6 1
8 6 7 1
9 7 8 1
10 7 10 1
11 8 9 1
12 10 11 1
13 11 12 1
14 11 13 1
15 13 14 1
16 14 15 1
17 15 16 2
18 15 25 1
19 16 17 1
20 17 18 2
21 17 22 1
22 18 19 1
23 18 24 1
24 19 20 2
25 20 21 1
26 20 23 1
27 21 22 2
28 24 25 2
29 26 27 1
30 26 31 1
31 27 28 1
32 28 29 1
33 29 30 1
34 30 31 1
35 5 32 1
36 5 33 1
37 6 34 1
38 6 35 1
39 8 36 1
40 8 37 1
41 9 38 1
42 9 39 1
43 10 40 1
44 10 41 1
45 11 42 1
46 12 43 1
47 13 44 1
48 13 45 1
49 16 46 1
50 19 47 1
51 21 48 1
52 22 49 1
53 24 50 1
54 25 51 1
55 27 52 1
56 27 53 1
57 28 54 1
58 28 55 1
59 30 56 1
60 30 57 1
61 31 58 1
62 31 59 1
@<TRIPOS>SUBSTRUCTURE
1	UNK0	1	GROUP	1 ****	UNK
