# created with PyMOL 2.3.2
@<TRIPOS>MOLECULE
2317
46 49 1                 
SMALL
USER_CHARGES
@<TRIPOS>ATOM
1	  Cl	-4.210	5.600	0.774	Cl	1	UNK0	0.000	
2	   C	-3.201	4.788	-0.397	C.2	1	UNK0	0.000	
3	   C	-3.013	3.405	-0.554	C.2	1	UNK0	0.000	
4	   N	-2.164	3.193	-1.561	N.pl3	1	UNK0	0.000	
5	   N	-1.827	4.385	-2.025	N.2	1	UNK0	0.000	
6	   C	-2.419	5.371	-1.365	C.2	1	UNK0	0.000	
7	   C	-1.688	1.948	-2.049	C.3	1	UNK0	0.000	
8	   C	-0.419	1.429	-1.494	C.3	1	UNK0	0.000	
9	   C	-0.350	1.158	-0.064	C.2	1	UNK0	0.000	
10	   O	-1.394	1.277	0.638	O.2	1	UNK0	0.000	
11	   N	0.836	0.761	0.606	N.pl3	1	UNK0	0.000	
12	   C	0.886	0.497	2.016	C.3	1	UNK0	0.000	
13	   C	0.758	-0.959	2.352	C.3	1	UNK0	0.000	
14	   N	1.155	-1.838	1.276	N.pl3	1	UNK0	0.000	
15	   C	2.273	-1.734	0.392	C.3	1	UNK0	0.000	
16	   C	2.966	-0.405	0.463	C.3	1	UNK0	0.000	
17	   C	2.039	0.619	-0.169	C.3	1	UNK0	0.000	
18	   C	3.295	0.015	1.855	C.3	1	UNK0	0.000	
19	   C	2.279	0.933	2.489	C.3	1	UNK0	0.000	
20	   C	0.283	-2.947	1.112	C.2	1	UNK0	0.000	
21	   N	-0.789	-3.171	1.858	N.2	1	UNK0	0.000	
22	   C	-1.613	-4.224	1.699	C.2	1	UNK0	0.000	
23	   C	-1.342	-5.139	0.703	C.2	1	UNK0	0.000	
24	   C	-0.230	-4.915	-0.079	C.2	1	UNK0	0.000	
25	   N	0.563	-3.827	0.136	N.2	1	UNK0	0.000	
26	   H	-3.546	2.731	0.101	 H	1	UNK0	0.000	
27	   H	-2.312	6.447	-1.546	 H	1	UNK0	0.000	
28	   H	-1.559	1.954	-3.178	 H	1	UNK0	0.000	
29	   H	-2.460	1.122	-1.919	 H	1	UNK0	0.000	
30	   H	-0.109	0.467	-2.007	 H	1	UNK0	0.000	
31	   H	0.460	2.109	-1.726	 H	1	UNK0	0.000	
32	   H	0.111	1.085	2.567	 H	1	UNK0	0.000	
33	   H	-0.294	-1.149	2.673	 H	1	UNK0	0.000	
34	   H	1.401	-1.209	3.227	 H	1	UNK0	0.000	
35	   H	1.882	-1.845	-0.658	 H	1	UNK0	0.000	
36	   H	3.005	-2.570	0.518	 H	1	UNK0	0.000	
37	   H	3.858	-0.465	-0.203	 H	1	UNK0	0.000	
38	   H	2.546	1.628	-0.157	 H	1	UNK0	0.000	
39	   H	1.804	0.294	-1.201	 H	1	UNK0	0.000	
40	   H	3.540	-0.848	2.519	 H	1	UNK0	0.000	
41	   H	4.253	0.608	1.804	 H	1	UNK0	0.000	
42	   H	2.320	0.806	3.580	 H	1	UNK0	0.000	
43	   H	2.454	1.996	2.233	 H	1	UNK0	0.000	
44	   H	-2.486	-4.405	2.309	 H	1	UNK0	0.000	
45	   H	-1.972	-6.002	0.533	 H	1	UNK0	0.000	
46	   H	0.030	-5.590	-0.867	 H	1	UNK0	0.000	
@<TRIPOS>BOND
1 1 2 1
2 2 3 2
3 2 6 1
4 3 4 1
5 4 5 1
6 4 7 1
7 5 6 2
8 7 8 1
9 8 9 1
10 9 10 2
11 9 11 1
12 11 12 1
13 11 17 1
14 12 13 1
15 12 19 1
16 13 14 1
17 14 15 1
18 14 20 1
19 15 16 1
20 16 17 1
21 16 18 1
22 18 19 1
23 20 21 2
24 20 25 1
25 21 22 1
26 22 23 2
27 23 24 1
28 24 25 2
29 3 26 1
30 6 27 1
31 7 28 1
32 7 29 1
33 8 30 1
34 8 31 1
35 12 32 1
36 13 33 1
37 13 34 1
38 15 35 1
39 15 36 1
40 16 37 1
41 17 38 1
42 17 39 1
43 18 40 1
44 18 41 1
45 19 42 1
46 19 43 1
47 22 44 1
48 23 45 1
49 24 46 1
@<TRIPOS>SUBSTRUCTURE
1	UNK0	1	GROUP	1 ****	UNK
