# created with PyMOL 2.3.2
@<TRIPOS>MOLECULE
2318
40 44 1                 
SMALL
USER_CHARGES
@<TRIPOS>ATOM
1	  Cl	-3.573	3.237	-4.849	Cl	1	UNK0	0.000	
2	   C	-2.068	3.676	-4.064	C.2	1	UNK0	0.000	
3	   C	-1.021	2.776	-3.999	C.2	1	UNK0	0.000	
4	   C	0.158	3.114	-3.390	C.2	1	UNK0	0.000	
5	   C	0.284	4.363	-2.845	C.2	1	UNK0	0.000	
6	   C	-0.765	5.293	-2.898	C.2	1	UNK0	0.000	
7	   C	-1.951	4.947	-3.512	C.2	1	UNK0	0.000	
8	   C	1.255	2.146	-3.319	C.3	1	UNK0	0.000	
9	   N	1.299	1.501	-1.997	N.pl3	1	UNK0	0.000	
10	   N	0.666	0.417	-1.585	N.2	1	UNK0	0.000	
11	   C	0.961	0.115	-0.305	C.2	1	UNK0	0.000	
12	   N	1.823	1.068	0.086	N.2	1	UNK0	0.000	
13	   C	2.032	1.916	-0.940	C.2	1	UNK0	0.000	
14	   N	0.471	-0.964	0.496	N.pl3	1	UNK0	0.000	
15	   C	-0.091	-0.836	1.819	C.2	1	UNK0	0.000	
16	   O	0.175	0.085	2.626	O.2	1	UNK0	0.000	
17	   C	-1.024	-1.946	2.078	C.3	1	UNK0	0.000	
18	   C	-0.725	-2.658	3.373	C.3	1	UNK0	0.000	
19	   O	0.403	-3.405	3.018	O.3	1	UNK0	0.000	
20	   C	-0.122	-4.114	1.917	C.3	1	UNK0	0.000	
21	   C	-0.616	-3.012	1.050	C.3	1	UNK0	0.000	
22	   C	0.407	-2.355	0.213	C.2	1	UNK0	0.000	
23	   O	1.134	-2.932	-0.641	O.2	1	UNK0	0.000	
24	   C	-1.324	-4.774	2.558	C.3	1	UNK0	0.000	
25	   C	-1.753	-3.741	3.584	C.3	1	UNK0	0.000	
26	   H	-1.189	1.792	-4.460	 H	1	UNK0	0.000	
27	   H	1.165	4.722	-2.348	 H	1	UNK0	0.000	
28	   H	-0.688	6.274	-2.478	 H	1	UNK0	0.000	
29	   H	-2.785	5.666	-3.562	 H	1	UNK0	0.000	
30	   H	2.246	2.640	-3.477	 H	1	UNK0	0.000	
31	   H	1.114	1.371	-4.115	 H	1	UNK0	0.000	
32	   H	2.682	2.791	-0.928	 H	1	UNK0	0.000	
33	   H	-2.091	-1.663	1.959	 H	1	UNK0	0.000	
34	   H	-0.581	-1.992	4.226	 H	1	UNK0	0.000	
35	   H	0.593	-4.804	1.487	 H	1	UNK0	0.000	
36	   H	-1.489	-3.293	0.424	 H	1	UNK0	0.000	
37	   H	-2.170	-4.894	1.847	 H	1	UNK0	0.000	
38	   H	-1.078	-5.732	3.048	 H	1	UNK0	0.000	
39	   H	-2.788	-3.389	3.400	 H	1	UNK0	0.000	
40	   H	-1.620	-4.133	4.616	 H	1	UNK0	0.000	
@<TRIPOS>BOND
1 1 2 1
2 2 3 2
3 2 7 1
4 3 4 1
5 4 5 2
6 4 8 1
7 5 6 1
8 6 7 2
9 8 9 1
10 9 10 1
11 9 13 1
12 10 11 2
13 11 12 1
14 11 14 1
15 12 13 2
16 14 15 1
17 14 22 1
18 15 16 2
19 15 17 1
20 17 18 1
21 17 21 1
22 18 19 1
23 18 25 1
24 19 20 1
25 20 21 1
26 20 24 1
27 21 22 1
28 22 23 2
29 24 25 1
30 3 26 1
31 5 27 1
32 6 28 1
33 7 29 1
34 8 30 1
35 8 31 1
36 13 32 1
37 17 33 1
38 18 34 1
39 20 35 1
40 21 36 1
41 24 37 1
42 24 38 1
43 25 39 1
44 25 40 1
@<TRIPOS>SUBSTRUCTURE
1	UNK0	1	GROUP	1 ****	UNK
