# created with PyMOL 2.3.2
@<TRIPOS>MOLECULE
2320
27 30 1                 
SMALL
USER_CHARGES
@<TRIPOS>ATOM
1	   I	2.798	3.524	4.519	 I	1	UNK0	0.000	
2	   C	1.925	2.676	2.791	C.2	1	UNK0	0.000	
3	   C	0.607	2.291	2.757	C.2	1	UNK0	0.000	
4	   C	0.062	1.733	1.601	C.2	1	UNK0	0.000	
5	   C	0.831	1.559	0.474	C.2	1	UNK0	0.000	
6	   C	2.150	1.952	0.529	C.2	1	UNK0	0.000	
7	   C	2.702	2.505	1.668	C.2	1	UNK0	0.000	
8	   N	0.235	0.984	-0.701	N.pl3	1	UNK0	0.000	
9	   C	0.204	1.577	-1.973	C.2	1	UNK0	0.000	
10	   O	0.664	2.684	-2.366	O.2	1	UNK0	0.000	
11	   C	-0.508	0.632	-2.865	C.2	1	UNK0	0.000	
12	   C	-0.906	-0.490	-2.206	C.2	1	UNK0	0.000	
13	   N	-1.559	-1.416	-2.906	N.pl3	1	UNK0	0.000	
14	   C	-1.776	-1.182	-4.192	C.2	1	UNK0	0.000	
15	   N	-2.429	-2.028	-5.040	N.2	1	UNK0	0.000	
16	   N	-2.910	-3.187	-4.622	N.2	1	UNK0	0.000	
17	   C	-2.706	-3.457	-3.320	C.2	1	UNK0	0.000	
18	   C	-2.057	-2.621	-2.464	C.2	1	UNK0	0.000	
19	   O	-1.928	-2.992	-1.252	O.2	1	UNK0	0.000	
20	   S	-1.066	0.351	-4.453	S.3	1	UNK0	0.000	
21	   C	-0.425	-0.259	-0.816	C.2	1	UNK0	0.000	
22	   O	-0.550	-1.022	0.189	O.2	1	UNK0	0.000	
23	   H	0.017	2.435	3.650	 H	1	UNK0	0.000	
24	   H	-0.983	1.426	1.567	 H	1	UNK0	0.000	
25	   H	2.754	1.814	-0.361	 H	1	UNK0	0.000	
26	   H	3.738	2.816	1.719	 H	1	UNK0	0.000	
27	   H	-3.077	-4.404	-2.892	 H	1	UNK0	0.000	
@<TRIPOS>BOND
1 1 2 1
2 2 3 2
3 2 7 1
4 3 4 1
5 4 5 2
6 5 6 1
7 5 8 1
8 6 7 2
9 8 9 1
10 8 21 1
11 9 10 2
12 9 11 1
13 11 12 2
14 11 20 1
15 12 13 1
16 12 21 1
17 13 14 1
18 13 18 1
19 14 15 2
20 14 20 1
21 15 16 1
22 16 17 2
23 17 18 1
24 18 19 2
25 21 22 2
26 3 23 1
27 4 24 1
28 6 25 1
29 7 26 1
30 17 27 1
@<TRIPOS>SUBSTRUCTURE
1	UNK0	1	GROUP	1 ****	UNK
