# created with PyMOL 2.3.2
@<TRIPOS>MOLECULE
2321
44 47 1                 
SMALL
USER_CHARGES
@<TRIPOS>ATOM
1	   I	1.509	5.424	2.744	 I	1	UNK0	0.000	
2	   C	0.376	3.910	1.802	C.2	1	UNK0	0.000	
3	   C	-0.963	3.721	2.072	C.2	1	UNK0	0.000	
4	   C	-1.679	2.723	1.442	C.2	1	UNK0	0.000	
5	   C	-1.090	1.879	0.524	C.2	1	UNK0	0.000	
6	   C	0.245	2.084	0.269	C.2	1	UNK0	0.000	
7	   C	0.981	3.076	0.887	C.2	1	UNK0	0.000	
8	   N	-1.880	0.854	-0.108	N.pl3	1	UNK0	0.000	
9	   C	-1.571	-0.521	-0.264	C.2	1	UNK0	0.000	
10	   O	-0.744	-1.137	0.457	O.2	1	UNK0	0.000	
11	   C	-2.369	-1.089	-1.386	C.3	1	UNK0	0.000	
12	   C	-3.609	-0.212	-1.349	C.3	1	UNK0	0.000	
13	   C	-3.158	1.041	-0.712	C.2	1	UNK0	0.000	
14	   O	-3.787	2.139	-0.685	O.2	1	UNK0	0.000	
15	   N	-1.622	-0.964	-2.569	N.3	1	UNK0	0.000	
16	   C	-1.281	0.287	-3.082	C.3	1	UNK0	0.000	
17	   C	0.007	0.095	-3.925	C.3	1	UNK0	0.000	
18	   N	0.962	-0.652	-3.120	N.pl3	1	UNK0	0.000	
19	   C	0.552	-1.967	-2.694	C.3	1	UNK0	0.000	
20	   C	-0.933	-2.105	-3.019	C.3	1	UNK0	0.000	
21	   C	2.215	-0.105	-2.776	C.2	1	UNK0	0.000	
22	   N	2.605	1.102	-3.269	N.2	1	UNK0	0.000	
23	   C	3.770	1.674	-2.973	C.2	1	UNK0	0.000	
24	   C	4.663	1.038	-2.121	C.2	1	UNK0	0.000	
25	   C	4.261	-0.189	-1.623	C.2	1	UNK0	0.000	
26	   N	3.078	-0.728	-1.947	N.2	1	UNK0	0.000	
27	   H	-1.437	4.369	2.783	 H	1	UNK0	0.000	
28	   H	-2.741	2.569	1.655	 H	1	UNK0	0.000	
29	   H	0.728	1.433	-0.447	 H	1	UNK0	0.000	
30	   H	2.041	3.224	0.672	 H	1	UNK0	0.000	
31	   H	-2.703	-2.115	-1.153	 H	1	UNK0	0.000	
32	   H	-4.001	0.025	-2.354	 H	1	UNK0	0.000	
33	   H	-4.385	-0.664	-0.697	 H	1	UNK0	0.000	
34	   H	-2.005	0.818	-3.702	 H	1	UNK0	0.000	
35	   H	-0.908	0.934	-2.233	 H	1	UNK0	0.000	
36	   H	0.463	1.069	-4.184	 H	1	UNK0	0.000	
37	   H	-0.230	-0.417	-4.883	 H	1	UNK0	0.000	
38	   H	1.050	-2.770	-3.286	 H	1	UNK0	0.000	
39	   H	0.705	-2.152	-1.617	 H	1	UNK0	0.000	
40	   H	-1.342	-3.043	-2.575	 H	1	UNK0	0.000	
41	   H	-1.014	-2.271	-4.129	 H	1	UNK0	0.000	
42	   H	4.055	2.633	-3.378	 H	1	UNK0	0.000	
43	   H	5.610	1.498	-1.879	 H	1	UNK0	0.000	
44	   H	4.961	-0.688	-0.956	 H	1	UNK0	0.000	
@<TRIPOS>BOND
1 1 2 1
2 2 3 2
3 2 7 1
4 3 4 1
5 4 5 2
6 5 6 1
7 5 8 1
8 6 7 2
9 8 9 1
10 8 13 1
11 9 10 2
12 9 11 1
13 11 12 1
14 11 15 1
15 12 13 1
16 13 14 2
17 15 16 1
18 15 20 1
19 16 17 1
20 17 18 1
21 18 19 1
22 18 21 1
23 19 20 1
24 21 22 2
25 21 26 1
26 22 23 1
27 23 24 2
28 24 25 1
29 25 26 2
30 3 27 1
31 4 28 1
32 6 29 1
33 7 30 1
34 11 31 1
35 12 32 1
36 12 33 1
37 16 34 1
38 16 35 1
39 17 36 1
40 17 37 1
41 19 38 1
42 19 39 1
43 20 40 1
44 20 41 1
45 23 42 1
46 24 43 1
47 25 44 1
@<TRIPOS>SUBSTRUCTURE
1	UNK0	1	GROUP	1 ****	UNK
