# created with PyMOL 2.3.2
@<TRIPOS>MOLECULE
2326
52 55 1                 
SMALL
USER_CHARGES
@<TRIPOS>ATOM
1	  Cl	2.131	2.050	2.094	Cl	1	UNK0	0.000	
2	   C	3.353	2.483	0.919	C.2	1	UNK0	0.000	
3	   C	3.429	1.723	-0.224	C.2	1	UNK0	0.000	
4	   C	4.374	2.027	-1.174	C.2	1	UNK0	0.000	
5	   C	5.262	3.091	-1.009	C.2	1	UNK0	0.000	
6	   C	5.157	3.830	0.145	C.2	1	UNK0	0.000	
7	   C	4.218	3.561	1.135	C.2	1	UNK0	0.000	
8	   N	6.217	3.358	-2.024	N.pl3	1	UNK0	0.000	
9	   O	6.303	2.689	-3.062	O.2	1	UNK0	0.000	
10	   O	7.084	4.420	-1.824	O.2	1	UNK0	0.000	
11	   C	2.509	0.608	-0.403	C.2	1	UNK0	0.000	
12	   N	2.521	-0.149	-1.448	N.2	1	UNK0	0.000	
13	   N	1.651	-1.222	-1.645	N.pl3	1	UNK0	0.000	
14	   C	0.308	-1.259	-1.193	C.2	1	UNK0	0.000	
15	   N	-0.075	-1.657	0.032	N.2	1	UNK0	0.000	
16	   C	-1.392	-1.674	0.387	C.2	1	UNK0	0.000	
17	   N	-2.319	-1.295	-0.479	N.2	1	UNK0	0.000	
18	   C	-1.979	-0.891	-1.710	C.2	1	UNK0	0.000	
19	   N	-0.654	-0.880	-2.048	N.2	1	UNK0	0.000	
20	   N	-2.897	-0.478	-2.688	N.pl3	1	UNK0	0.000	
21	   C	-2.447	0.027	-3.949	C.3	1	UNK0	0.000	
22	   C	-3.174	-0.664	-5.096	C.3	1	UNK0	0.000	
23	   O	-4.314	-1.327	-4.645	O.3	1	UNK0	0.000	
24	   C	-5.063	-0.569	-3.746	C.3	1	UNK0	0.000	
25	   C	-4.308	-0.563	-2.428	C.3	1	UNK0	0.000	
26	   N	-1.761	-2.097	1.707	N.pl3	1	UNK0	0.000	
27	   C	-3.107	-2.313	2.117	C.3	1	UNK0	0.000	
28	   C	-3.340	-1.580	3.413	C.3	1	UNK0	0.000	
29	   O	-2.359	-1.701	4.347	O.3	1	UNK0	0.000	
30	   C	-1.308	-2.525	4.067	C.3	1	UNK0	0.000	
31	   C	-0.716	-2.314	2.697	C.3	1	UNK0	0.000	
32	   H	4.453	1.448	-2.076	 H	1	UNK0	0.000	
33	   H	5.855	4.653	0.256	 H	1	UNK0	0.000	
34	   H	4.142	4.146	2.038	 H	1	UNK0	0.000	
35	   H	1.759	0.363	0.349	 H	1	UNK0	0.000	
36	   H	2.016	-2.050	-2.158	 H	1	UNK0	0.000	
37	   H	-2.620	1.134	-4.019	 H	1	UNK0	0.000	
38	   H	-1.360	-0.120	-4.125	 H	1	UNK0	0.000	
39	   H	-2.488	-1.385	-5.560	 H	1	UNK0	0.000	
40	   H	-3.531	0.116	-5.804	 H	1	UNK0	0.000	
41	   H	-5.209	0.472	-4.106	 H	1	UNK0	0.000	
42	   H	-6.024	-1.096	-3.594	 H	1	UNK0	0.000	
43	   H	-4.580	-1.538	-1.924	 H	1	UNK0	0.000	
44	   H	-4.642	0.272	-1.778	 H	1	UNK0	0.000	
45	   H	-3.268	-3.405	2.313	 H	1	UNK0	0.000	
46	   H	-3.859	-1.956	1.381	 H	1	UNK0	0.000	
47	   H	-3.517	-0.501	3.205	 H	1	UNK0	0.000	
48	   H	-4.291	-1.984	3.869	 H	1	UNK0	0.000	
49	   H	-0.487	-2.275	4.802	 H	1	UNK0	0.000	
50	   H	-1.582	-3.582	4.183	 H	1	UNK0	0.000	
51	   H	-0.035	-1.435	2.738	 H	1	UNK0	0.000	
52	   H	-0.115	-3.209	2.445	 H	1	UNK0	0.000	
@<TRIPOS>BOND
1 1 2 1
2 2 3 2
3 2 7 1
4 3 4 1
5 3 11 1
6 4 5 2
7 5 6 1
8 5 8 1
9 6 7 2
10 8 9 2
11 8 10 1
12 11 12 2
13 12 13 1
14 13 14 1
15 14 15 2
16 14 19 1
17 15 16 1
18 16 17 2
19 16 26 1
20 17 18 1
21 18 19 2
22 18 20 1
23 20 21 1
24 20 25 1
25 21 22 1
26 22 23 1
27 23 24 1
28 24 25 1
29 26 27 1
30 26 31 1
31 27 28 1
32 28 29 1
33 29 30 1
34 30 31 1
35 4 32 1
36 6 33 1
37 7 34 1
38 11 35 1
39 13 36 1
40 21 37 1
41 21 38 1
42 22 39 1
43 22 40 1
44 24 41 1
45 24 42 1
46 25 43 1
47 25 44 1
48 27 45 1
49 27 46 1
50 28 47 1
51 28 48 1
52 30 49 1
53 30 50 1
54 31 51 1
55 31 52 1
@<TRIPOS>SUBSTRUCTURE
1	UNK0	1	GROUP	1 ****	UNK
