# created with PyMOL 2.3.2
@<TRIPOS>MOLECULE
2327
31 34 1                 
SMALL
USER_CHARGES
@<TRIPOS>ATOM
1	  Cl	-0.686	-3.816	1.538	Cl	1	UNK0	0.000	
2	   C	0.330	-2.403	1.704	C.2	1	UNK0	0.000	
3	   C	0.305	-1.434	0.727	C.2	1	UNK0	0.000	
4	   C	1.117	-0.337	0.885	C.2	1	UNK0	0.000	
5	   C	1.954	-0.165	1.977	C.2	1	UNK0	0.000	
6	   C	1.946	-1.170	2.941	C.2	1	UNK0	0.000	
7	   C	1.149	-2.289	2.824	C.2	1	UNK0	0.000	
8	   N	2.786	0.967	2.125	N.pl3	1	UNK0	0.000	
9	   O	2.782	1.853	1.275	O.2	1	UNK0	0.000	
10	   O	3.595	1.072	3.209	O.2	1	UNK0	0.000	
11	   N	-0.561	-1.611	-0.412	N.pl3	1	UNK0	0.000	
12	   C	-0.161	-1.987	-1.733	C.2	1	UNK0	0.000	
13	   O	0.834	-2.749	-2.002	O.2	1	UNK0	0.000	
14	   C	-1.076	-1.352	-2.682	C.3	1	UNK0	0.000	
15	   C	-0.707	0.091	-2.833	C.3	1	UNK0	0.000	
16	   O	-1.387	0.726	-1.763	O.3	1	UNK0	0.000	
17	   C	-2.677	0.205	-2.065	C.3	1	UNK0	0.000	
18	   C	-2.363	-1.260	-1.876	C.3	1	UNK0	0.000	
19	   C	-1.974	-1.447	-0.469	C.2	1	UNK0	0.000	
20	   O	-2.765	-1.458	0.501	O.2	1	UNK0	0.000	
21	   C	-2.780	0.588	-3.500	C.2	1	UNK0	0.000	
22	   C	-1.531	0.621	-3.963	C.2	1	UNK0	0.000	
23	   H	1.092	0.425	0.115	 H	1	UNK0	0.000	
24	   H	2.587	-1.084	3.816	 H	1	UNK0	0.000	
25	   H	1.153	-3.074	3.590	 H	1	UNK0	0.000	
26	   H	-1.211	-1.896	-3.632	 H	1	UNK0	0.000	
27	   H	0.344	0.317	-2.875	 H	1	UNK0	0.000	
28	   H	-3.457	0.591	-1.439	 H	1	UNK0	0.000	
29	   H	-3.147	-1.931	-2.230	 H	1	UNK0	0.000	
30	   H	-3.646	0.809	-4.095	 H	1	UNK0	0.000	
31	   H	-1.134	0.941	-4.909	 H	1	UNK0	0.000	
@<TRIPOS>BOND
1 1 2 1
2 2 3 2
3 2 7 1
4 3 4 1
5 3 11 1
6 4 5 2
7 5 6 1
8 5 8 1
9 6 7 2
10 8 9 2
11 8 10 1
12 11 12 1
13 11 19 1
14 12 13 2
15 12 14 1
16 14 15 1
17 14 18 1
18 15 16 1
19 15 22 1
20 16 17 1
21 17 18 1
22 17 21 1
23 18 19 1
24 19 20 2
25 21 22 2
26 4 23 1
27 6 24 1
28 7 25 1
29 14 26 1
30 15 27 1
31 17 28 1
32 18 29 1
33 21 30 1
34 22 31 1
@<TRIPOS>SUBSTRUCTURE
1	UNK0	1	GROUP	1 ****	UNK
