# created with PyMOL 2.3.2
@<TRIPOS>MOLECULE
2328
60 63 1                 
SMALL
USER_CHARGES
@<TRIPOS>ATOM
1	   S	-2.238	-3.412	0.824	S.O2	1	UNK0	0.000	
2	   O	-3.400	-3.871	1.655	O.2	1	UNK0	0.000	
3	   O	-0.999	-4.031	1.367	O.2	1	UNK0	0.000	
4	   N	-2.178	-1.690	0.929	N.3	1	UNK0	0.000	
5	   C	-3.420	-1.069	0.552	C.3	1	UNK0	0.000	
6	   C	-3.142	0.382	0.229	C.3	1	UNK0	0.000	
7	   N	-2.172	0.854	1.202	N.pl3	1	UNK0	0.000	
8	   C	-2.225	0.184	2.502	C.3	1	UNK0	0.000	
9	   C	-1.762	-1.256	2.249	C.3	1	UNK0	0.000	
10	   C	-1.247	1.884	0.926	C.2	1	UNK0	0.000	
11	   O	-0.446	2.230	1.806	O.2	1	UNK0	0.000	
12	   C	-1.241	2.534	-0.389	C.3	1	UNK0	0.000	
13	   N	-0.296	3.545	-0.605	N.3	1	UNK0	0.000	
14	   C	1.072	3.293	-0.683	C.3	1	UNK0	0.000	
15	   C	1.707	4.087	0.447	C.3	1	UNK0	0.000	
16	   C	0.690	5.113	0.864	C.3	1	UNK0	0.000	
17	   C	-0.505	4.805	0.026	C.3	1	UNK0	0.000	
18	   C	1.553	1.917	-0.729	C.2	1	UNK0	0.000	
19	   O	0.768	0.948	-0.707	O.2	1	UNK0	0.000	
20	   N	2.951	1.673	-0.800	N.pl3	1	UNK0	0.000	
21	   C	3.467	0.318	-0.850	C.3	1	UNK0	0.000	
22	   C	2.985	-0.412	-2.041	C.2	1	UNK0	0.000	
23	   O	3.186	-1.668	-2.296	O.3	1	UNK0	0.000	
24	   C	2.618	-1.998	-3.445	C.2	1	UNK0	0.000	
25	   C	2.009	-0.874	-3.965	C.2	1	UNK0	0.000	
26	   C	2.246	0.146	-3.061	C.2	1	UNK0	0.000	
27	   C	-2.552	-3.919	-0.836	C.2	1	UNK0	0.000	
28	   C	-1.701	-3.588	-1.867	C.2	1	UNK0	0.000	
29	   C	-1.961	-3.993	-3.154	C.2	1	UNK0	0.000	
30	   C	-3.069	-4.743	-3.486	C.2	1	UNK0	0.000	
31	   C	-3.910	-5.065	-2.439	C.2	1	UNK0	0.000	
32	   C	-3.667	-4.669	-1.144	C.2	1	UNK0	0.000	
33	  Cl	-0.282	-2.639	-1.503	Cl	1	UNK0	0.000	
34	   H	-3.896	-1.598	-0.297	 H	1	UNK0	0.000	
35	   H	-4.088	-1.096	1.451	 H	1	UNK0	0.000	
36	   H	-2.635	0.474	-0.765	 H	1	UNK0	0.000	
37	   H	-4.067	0.997	0.241	 H	1	UNK0	0.000	
38	   H	-3.270	0.144	2.841	 H	1	UNK0	0.000	
39	   H	-1.519	0.615	3.215	 H	1	UNK0	0.000	
40	   H	-2.234	-1.947	2.979	 H	1	UNK0	0.000	
41	   H	-0.679	-1.360	2.338	 H	1	UNK0	0.000	
42	   H	-2.270	3.038	-0.505	 H	1	UNK0	0.000	
43	   H	-1.234	1.838	-1.258	 H	1	UNK0	0.000	
44	   H	1.443	3.846	-1.623	 H	1	UNK0	0.000	
45	   H	2.656	4.573	0.095	 H	1	UNK0	0.000	
46	   H	1.972	3.359	1.239	 H	1	UNK0	0.000	
47	   H	1.092	6.147	0.672	 H	1	UNK0	0.000	
48	   H	0.498	5.086	1.959	 H	1	UNK0	0.000	
49	   H	-0.534	5.580	-0.794	 H	1	UNK0	0.000	
50	   H	-1.472	4.912	0.550	 H	1	UNK0	0.000	
51	   H	3.617	2.472	-0.817	 H	1	UNK0	0.000	
52	   H	3.063	-0.231	0.046	 H	1	UNK0	0.000	
53	   H	4.565	0.297	-0.761	 H	1	UNK0	0.000	
54	   H	2.630	-2.977	-3.896	 H	1	UNK0	0.000	
55	   H	1.449	-0.742	-4.878	 H	1	UNK0	0.000	
56	   H	1.890	1.162	-3.195	 H	1	UNK0	0.000	
57	   H	-1.303	-3.744	-3.994	 H	1	UNK0	0.000	
58	   H	-3.277	-5.064	-4.498	 H	1	UNK0	0.000	
59	   H	-4.798	-5.661	-2.675	 H	1	UNK0	0.000	
60	   H	-4.341	-4.933	-0.328	 H	1	UNK0	0.000	
@<TRIPOS>BOND
1 1 2 2
2 1 3 2
3 1 4 1
4 1 27 1
5 4 5 1
6 4 9 1
7 5 6 1
8 6 7 1
9 7 8 1
10 7 10 1
11 8 9 1
12 10 11 2
13 10 12 1
14 12 13 1
15 13 14 1
16 13 17 1
17 14 15 1
18 14 18 1
19 15 16 1
20 16 17 1
21 18 19 2
22 18 20 1
23 20 21 1
24 21 22 1
25 22 23 1
26 22 26 2
27 23 24 1
28 24 25 2
29 25 26 1
30 27 28 2
31 27 32 1
32 28 29 1
33 28 33 1
34 29 30 2
35 30 31 1
36 31 32 2
37 5 34 1
38 5 35 1
39 6 36 1
40 6 37 1
41 8 38 1
42 8 39 1
43 9 40 1
44 9 41 1
45 12 42 1
46 12 43 1
47 14 44 1
48 15 45 1
49 15 46 1
50 16 47 1
51 16 48 1
52 17 49 1
53 17 50 1
54 20 51 1
55 21 52 1
56 21 53 1
57 24 54 1
58 25 55 1
59 26 56 1
60 29 57 1
61 30 58 1
62 31 59 1
63 32 60 1
@<TRIPOS>SUBSTRUCTURE
1	UNK0	1	GROUP	1 ****	UNK
