# created with PyMOL 2.3.2
@<TRIPOS>MOLECULE
2329
58 61 1                 
SMALL
USER_CHARGES
@<TRIPOS>ATOM
1	   S	-1.319	-2.428	-3.356	S.O2	1	UNK0	0.000	
2	   O	-1.405	-3.917	-3.432	O.2	1	UNK0	0.000	
3	   O	-1.089	-1.833	-4.698	O.2	1	UNK0	0.000	
4	   N	-0.042	-1.937	-2.301	N.3	1	UNK0	0.000	
5	   C	-0.202	-2.459	-0.971	C.3	1	UNK0	0.000	
6	   C	0.997	-2.053	-0.150	C.3	1	UNK0	0.000	
7	   N	1.853	-1.097	-0.818	N.pl3	1	UNK0	0.000	
8	   C	2.331	-1.426	-2.144	C.3	1	UNK0	0.000	
9	   C	1.258	-2.245	-2.828	C.3	1	UNK0	0.000	
10	   C	2.202	0.121	-0.176	C.2	1	UNK0	0.000	
11	   O	2.951	0.912	-0.805	O.2	1	UNK0	0.000	
12	   C	1.702	0.448	1.184	C.3	1	UNK0	0.000	
13	   N	2.140	1.705	1.685	N.3	1	UNK0	0.000	
14	   C	1.645	2.869	1.059	C.3	1	UNK0	0.000	
15	   C	2.476	4.070	1.428	C.3	1	UNK0	0.000	
16	   C	3.092	4.003	2.785	C.3	1	UNK0	0.000	
17	   C	2.467	3.020	3.720	C.3	1	UNK0	0.000	
18	   C	2.134	1.701	3.109	C.3	1	UNK0	0.000	
19	   C	0.198	3.181	1.338	C.3	1	UNK0	0.000	
20	   O	-0.679	2.208	0.944	O.3	1	UNK0	0.000	
21	   C	-1.805	2.783	0.404	C.3	1	UNK0	0.000	
22	   C	-1.311	4.164	0.014	C.3	1	UNK0	0.000	
23	   O	-0.153	4.380	0.720	O.3	1	UNK0	0.000	
24	   C	-2.816	-1.783	-2.694	C.2	1	UNK0	0.000	
25	   C	-2.985	-0.431	-2.535	C.2	1	UNK0	0.000	
26	   C	-4.137	0.115	-2.023	C.2	1	UNK0	0.000	
27	   C	-5.162	-0.747	-1.656	C.2	1	UNK0	0.000	
28	   C	-4.988	-2.085	-1.815	C.2	1	UNK0	0.000	
29	   C	-3.821	-2.629	-2.334	C.2	1	UNK0	0.000	
30	  Cl	-1.672	0.630	-3.008	Cl	1	UNK0	0.000	
31	   H	-1.126	-2.069	-0.505	 H	1	UNK0	0.000	
32	   H	-0.330	-3.578	-0.972	 H	1	UNK0	0.000	
33	   H	1.613	-2.978	0.027	 H	1	UNK0	0.000	
34	   H	0.697	-1.705	0.862	 H	1	UNK0	0.000	
35	   H	3.309	-1.974	-2.097	 H	1	UNK0	0.000	
36	   H	2.490	-0.521	-2.769	 H	1	UNK0	0.000	
37	   H	1.527	-3.318	-2.708	 H	1	UNK0	0.000	
38	   H	1.232	-2.058	-3.933	 H	1	UNK0	0.000	
39	   H	0.601	0.290	1.283	 H	1	UNK0	0.000	
40	   H	2.151	-0.343	1.858	 H	1	UNK0	0.000	
41	   H	1.736	2.745	-0.045	 H	1	UNK0	0.000	
42	   H	1.839	4.985	1.283	 H	1	UNK0	0.000	
43	   H	3.329	4.152	0.692	 H	1	UNK0	0.000	
44	   H	4.200	3.826	2.753	 H	1	UNK0	0.000	
45	   H	2.993	5.016	3.272	 H	1	UNK0	0.000	
46	   H	3.218	2.851	4.544	 H	1	UNK0	0.000	
47	   H	1.581	3.463	4.249	 H	1	UNK0	0.000	
48	   H	2.891	0.924	3.430	 H	1	UNK0	0.000	
49	   H	1.169	1.293	3.534	 H	1	UNK0	0.000	
50	   H	0.021	3.351	2.435	 H	1	UNK0	0.000	
51	   H	-2.634	2.918	1.099	 H	1	UNK0	0.000	
52	   H	-2.147	2.207	-0.498	 H	1	UNK0	0.000	
53	   H	-2.088	4.936	0.195	 H	1	UNK0	0.000	
54	   H	-1.107	4.170	-1.072	 H	1	UNK0	0.000	
55	   H	-4.271	1.187	-1.896	 H	1	UNK0	0.000	
56	   H	-6.085	-0.351	-1.247	 H	1	UNK0	0.000	
57	   H	-5.775	-2.754	-1.534	 H	1	UNK0	0.000	
58	   H	-3.745	-3.692	-2.434	 H	1	UNK0	0.000	
@<TRIPOS>BOND
1 1 2 2
2 1 3 2
3 1 4 1
4 1 24 1
5 4 5 1
6 4 9 1
7 5 6 1
8 6 7 1
9 7 8 1
10 7 10 1
11 8 9 1
12 10 11 2
13 10 12 1
14 12 13 1
15 13 14 1
16 13 18 1
17 14 15 1
18 14 19 1
19 15 16 1
20 16 17 1
21 17 18 1
22 19 20 1
23 19 23 1
24 20 21 1
25 21 22 1
26 22 23 1
27 24 25 2
28 24 29 1
29 25 26 1
30 25 30 1
31 26 27 2
32 27 28 1
33 28 29 2
34 5 31 1
35 5 32 1
36 6 33 1
37 6 34 1
38 8 35 1
39 8 36 1
40 9 37 1
41 9 38 1
42 12 39 1
43 12 40 1
44 14 41 1
45 15 42 1
46 15 43 1
47 16 44 1
48 16 45 1
49 17 46 1
50 17 47 1
51 18 48 1
52 18 49 1
53 19 50 1
54 21 51 1
55 21 52 1
56 22 53 1
57 22 54 1
58 26 55 1
59 27 56 1
60 28 57 1
61 29 58 1
@<TRIPOS>SUBSTRUCTURE
1	UNK0	1	GROUP	1 ****	UNK
