# created with PyMOL 2.3.2
@<TRIPOS>MOLECULE
2331
41 44 1                 
SMALL
USER_CHARGES
@<TRIPOS>ATOM
1	   S	0.527	-3.099	1.752	S.O2	1	UNK0	0.000	
2	   O	1.261	-3.939	0.716	O.2	1	UNK0	0.000	
3	   O	0.583	-3.883	3.032	O.2	1	UNK0	0.000	
4	   N	-1.076	-2.941	1.267	N.3	1	UNK0	0.000	
5	   C	-1.304	-2.340	0.001	C.3	1	UNK0	0.000	
6	   C	-2.303	-1.175	0.085	C.3	1	UNK0	0.000	
7	   N	-1.958	-0.422	1.217	N.3	1	UNK0	0.000	
8	   C	-2.090	-1.042	2.463	C.3	1	UNK0	0.000	
9	   C	-1.999	-2.545	2.281	C.3	1	UNK0	0.000	
10	   C	-2.071	0.985	1.164	C.3	1	UNK0	0.000	
11	   C	-1.232	1.594	0.115	C.2	1	UNK0	0.000	
12	   N	-0.405	1.029	-0.766	N.2	1	UNK0	0.000	
13	   C	0.155	1.963	-1.535	C.2	1	UNK0	0.000	
14	   N	-0.318	3.140	-1.143	N.pl3	1	UNK0	0.000	
15	   C	-1.177	2.947	-0.126	C.2	1	UNK0	0.000	
16	   C	0.117	4.261	-1.792	C.2	1	UNK0	0.000	
17	   C	1.015	4.177	-2.818	C.2	1	UNK0	0.000	
18	   C	1.502	2.948	-3.220	C.2	1	UNK0	0.000	
19	   C	1.074	1.815	-2.576	C.2	1	UNK0	0.000	
20	  Cl	1.648	0.207	-3.029	Cl	1	UNK0	0.000	
21	  Cl	1.605	5.585	-3.683	Cl	1	UNK0	0.000	
22	   C	1.397	-1.620	1.926	C.2	1	UNK0	0.000	
23	   N	1.980	-1.156	3.056	N.pl3	1	UNK0	0.000	
24	   C	2.559	0.023	2.799	C.2	1	UNK0	0.000	
25	   N	2.346	0.305	1.517	N.2	1	UNK0	0.000	
26	   N	1.648	-0.684	0.993	N.2	1	UNK0	0.000	
27	   H	-1.756	-3.101	-0.675	 H	1	UNK0	0.000	
28	   H	-0.415	-1.952	-0.496	 H	1	UNK0	0.000	
29	   H	-2.349	-0.616	-0.840	 H	1	UNK0	0.000	
30	   H	-3.323	-1.625	0.244	 H	1	UNK0	0.000	
31	   H	-3.072	-0.862	2.981	 H	1	UNK0	0.000	
32	   H	-1.309	-0.675	3.166	 H	1	UNK0	0.000	
33	   H	-1.649	-3.004	3.250	 H	1	UNK0	0.000	
34	   H	-2.996	-2.984	2.035	 H	1	UNK0	0.000	
35	   H	-1.734	1.404	2.136	 H	1	UNK0	0.000	
36	   H	-3.109	1.308	1.010	 H	1	UNK0	0.000	
37	   H	-1.690	3.769	0.359	 H	1	UNK0	0.000	
38	   H	-0.261	5.234	-1.483	 H	1	UNK0	0.000	
39	   H	2.211	2.836	-4.024	 H	1	UNK0	0.000	
40	   H	1.958	-1.668	3.966	 H	1	UNK0	0.000	
41	   H	3.097	0.626	3.506	 H	1	UNK0	0.000	
@<TRIPOS>BOND
1 1 2 2
2 1 3 2
3 1 4 1
4 1 22 1
5 4 5 1
6 4 9 1
7 5 6 1
8 6 7 1
9 7 8 1
10 7 10 1
11 8 9 1
12 10 11 1
13 11 12 1
14 11 15 2
15 12 13 2
16 13 14 1
17 13 19 1
18 14 15 1
19 14 16 1
20 16 17 2
21 17 18 1
22 17 21 1
23 18 19 2
24 19 20 1
25 22 23 1
26 22 26 2
27 23 24 1
28 24 25 2
29 25 26 1
30 5 27 1
31 5 28 1
32 6 29 1
33 6 30 1
34 8 31 1
35 8 32 1
36 9 33 1
37 9 34 1
38 10 35 1
39 10 36 1
40 15 37 1
41 16 38 1
42 18 39 1
43 23 40 1
44 24 41 1
@<TRIPOS>SUBSTRUCTURE
1	UNK0	1	GROUP	1 ****	UNK
