# created with PyMOL 2.3.2
@<TRIPOS>MOLECULE
2332
53 57 1                 
SMALL
USER_CHARGES
@<TRIPOS>ATOM
1	   S	-0.101	-0.943	1.794	S.O2	1	UNK0	0.000	
2	   O	-0.247	-0.099	3.054	O.2	1	UNK0	0.000	
3	   O	-0.545	-2.335	2.153	O.2	1	UNK0	0.000	
4	   N	1.514	-0.857	1.314	N.3	1	UNK0	0.000	
5	   C	1.887	-1.545	0.143	C.3	1	UNK0	0.000	
6	   C	2.763	-2.722	0.423	C.3	1	UNK0	0.000	
7	   C	3.955	-2.446	1.270	C.3	1	UNK0	0.000	
8	   O	3.986	-3.235	2.426	O.3	1	UNK0	0.000	
9	   C	5.322	-3.178	2.795	C.3	1	UNK0	0.000	
10	   C	6.091	-2.846	1.558	C.3	1	UNK0	0.000	
11	   O	5.108	-2.713	0.578	O.3	1	UNK0	0.000	
12	   C	3.860	-1.009	1.755	C.3	1	UNK0	0.000	
13	   C	2.482	-0.858	2.364	C.3	1	UNK0	0.000	
14	   C	-1.153	-0.244	0.578	C.2	1	UNK0	0.000	
15	   C	-0.689	0.318	-0.588	C.2	1	UNK0	0.000	
16	   C	-1.569	0.872	-1.524	C.2	1	UNK0	0.000	
17	   C	-2.933	0.887	-1.334	C.2	1	UNK0	0.000	
18	   C	-3.399	0.316	-0.149	C.2	1	UNK0	0.000	
19	   C	-2.536	-0.231	0.776	C.2	1	UNK0	0.000	
20	  Cl	-3.143	-0.936	2.247	Cl	1	UNK0	0.000	
21	   N	-3.844	1.449	-2.272	N.pl3	1	UNK0	0.000	
22	   C	-3.269	2.019	-3.465	C.2	1	UNK0	0.000	
23	   O	-3.919	2.876	-4.079	O.2	1	UNK0	0.000	
24	   C	-1.933	1.517	-3.846	C.3	1	UNK0	0.000	
25	   O	-1.078	1.438	-2.703	O.3	1	UNK0	0.000	
26	   C	-5.261	1.465	-2.045	C.3	1	UNK0	0.000	
27	   C	-5.691	2.664	-1.278	C.2	1	UNK0	0.000	
28	   N	-6.944	2.864	-0.862	N.2	1	UNK0	0.000	
29	   O	-7.000	3.990	-0.223	O.3	1	UNK0	0.000	
30	   C	-5.813	4.530	-0.210	C.2	1	UNK0	0.000	
31	   N	-4.987	3.712	-0.867	N.2	1	UNK0	0.000	
32	   C	-5.499	5.841	0.443	C.3	1	UNK0	0.000	
33	   H	2.465	-0.838	-0.512	 H	1	UNK0	0.000	
34	   H	0.986	-1.916	-0.424	 H	1	UNK0	0.000	
35	   H	3.121	-3.159	-0.554	 H	1	UNK0	0.000	
36	   H	2.121	-3.493	0.923	 H	1	UNK0	0.000	
37	   H	5.473	-2.350	3.523	 H	1	UNK0	0.000	
38	   H	5.693	-4.126	3.215	 H	1	UNK0	0.000	
39	   H	6.623	-1.888	1.633	 H	1	UNK0	0.000	
40	   H	6.799	-3.661	1.303	 H	1	UNK0	0.000	
41	   H	4.666	-0.762	2.472	 H	1	UNK0	0.000	
42	   H	3.899	-0.354	0.864	 H	1	UNK0	0.000	
43	   H	2.361	-1.739	3.053	 H	1	UNK0	0.000	
44	   H	2.405	0.079	2.963	 H	1	UNK0	0.000	
45	   H	0.365	0.342	-0.793	 H	1	UNK0	0.000	
46	   H	-4.476	0.330	0.002	 H	1	UNK0	0.000	
47	   H	-2.075	0.480	-4.243	 H	1	UNK0	0.000	
48	   H	-1.426	2.101	-4.612	 H	1	UNK0	0.000	
49	   H	-5.787	1.551	-3.040	 H	1	UNK0	0.000	
50	   H	-5.682	0.564	-1.582	 H	1	UNK0	0.000	
51	   H	-6.268	6.066	1.181	 H	1	UNK0	0.000	
52	   H	-4.527	5.765	1.008	 H	1	UNK0	0.000	
53	   H	-5.378	6.666	-0.265	 H	1	UNK0	0.000	
@<TRIPOS>BOND
1 1 2 2
2 1 3 2
3 1 4 1
4 1 14 1
5 4 5 1
6 4 13 1
7 5 6 1
8 6 7 1
9 7 8 1
10 7 11 1
11 7 12 1
12 8 9 1
13 9 10 1
14 10 11 1
15 12 13 1
16 14 15 2
17 14 19 1
18 15 16 1
19 16 17 2
20 16 25 1
21 17 18 1
22 17 21 1
23 18 19 2
24 19 20 1
25 21 22 1
26 21 26 1
27 22 23 2
28 22 24 1
29 24 25 1
30 26 27 1
31 27 28 2
32 27 31 1
33 28 29 1
34 29 30 1
35 30 31 2
36 30 32 1
37 5 33 1
38 5 34 1
39 6 35 1
40 6 36 1
41 9 37 1
42 9 38 1
43 10 39 1
44 10 40 1
45 12 41 1
46 12 42 1
47 13 43 1
48 13 44 1
49 15 45 1
50 18 46 1
51 24 47 1
52 24 48 1
53 26 49 1
54 26 50 1
55 32 51 1
56 32 52 1
57 32 53 1
@<TRIPOS>SUBSTRUCTURE
1	UNK0	1	GROUP	1 ****	UNK
