# created with PyMOL 2.3.2
@<TRIPOS>MOLECULE
2333
54 57 1                 
SMALL
USER_CHARGES
@<TRIPOS>ATOM
1	   S	-4.160	2.475	1.610	S.O2	1	UNK0	0.000	
2	   O	-4.217	3.919	2.043	O.2	1	UNK0	0.000	
3	   O	-5.535	1.918	1.662	O.2	1	UNK0	0.000	
4	   N	-3.491	2.319	0.030	N.3	1	UNK0	0.000	
5	   C	-3.442	0.928	-0.330	C.3	1	UNK0	0.000	
6	   C	-2.681	0.654	-1.579	C.3	1	UNK0	0.000	
7	   N	-2.041	1.798	-2.138	N.3	1	UNK0	0.000	
8	   C	-1.370	2.624	-1.176	C.3	1	UNK0	0.000	
9	   C	-2.256	3.018	-0.022	C.3	1	UNK0	0.000	
10	   C	-1.314	1.579	-3.339	C.3	1	UNK0	0.000	
11	   C	-0.238	0.586	-3.113	C.2	1	UNK0	0.000	
12	   N	-0.348	-0.767	-3.230	N.2	1	UNK0	0.000	
13	   O	0.787	-1.311	-2.961	O.3	1	UNK0	0.000	
14	   C	1.692	-0.383	-2.658	C.2	1	UNK0	0.000	
15	   N	1.038	0.787	-2.757	N.2	1	UNK0	0.000	
16	   C	3.104	-0.649	-2.297	C.3	1	UNK0	0.000	
17	   C	3.323	-0.845	-0.833	C.3	1	UNK0	0.000	
18	   C	2.934	0.327	-0.016	C.2	1	UNK0	0.000	
19	   O	2.484	1.354	-0.584	O.2	1	UNK0	0.000	
20	   N	3.052	0.335	1.384	N.pl3	1	UNK0	0.000	
21	   C	3.546	-0.741	2.256	C.3	1	UNK0	0.000	
22	   C	4.148	-0.028	3.449	C.3	1	UNK0	0.000	
23	   C	3.983	1.467	3.150	C.3	1	UNK0	0.000	
24	   C	2.710	1.410	2.294	C.3	1	UNK0	0.000	
25	   C	-3.159	1.647	2.816	C.2	1	UNK0	0.000	
26	   S	-1.533	1.908	3.249	S.3	1	UNK0	0.000	
27	   C	-1.376	0.712	4.454	C.2	1	UNK0	0.000	
28	   C	-2.620	0.137	4.481	C.2	1	UNK0	0.000	
29	   C	-3.537	0.621	3.635	C.2	1	UNK0	0.000	
30	  Br	0.153	0.251	5.533	Br	1	UNK0	0.000	
31	   H	-3.033	0.296	0.489	 H	1	UNK0	0.000	
32	   H	-4.502	0.578	-0.450	 H	1	UNK0	0.000	
33	   H	-3.388	0.266	-2.370	 H	1	UNK0	0.000	
34	   H	-1.914	-0.115	-1.401	 H	1	UNK0	0.000	
35	   H	-0.891	3.513	-1.628	 H	1	UNK0	0.000	
36	   H	-0.534	2.019	-0.742	 H	1	UNK0	0.000	
37	   H	-1.743	2.973	0.950	 H	1	UNK0	0.000	
38	   H	-2.501	4.111	-0.173	 H	1	UNK0	0.000	
39	   H	-0.831	2.544	-3.624	 H	1	UNK0	0.000	
40	   H	-1.938	1.273	-4.198	 H	1	UNK0	0.000	
41	   H	3.412	-1.586	-2.808	 H	1	UNK0	0.000	
42	   H	3.768	0.156	-2.704	 H	1	UNK0	0.000	
43	   H	4.407	-1.037	-0.684	 H	1	UNK0	0.000	
44	   H	2.752	-1.747	-0.525	 H	1	UNK0	0.000	
45	   H	4.287	-1.365	1.715	 H	1	UNK0	0.000	
46	   H	2.645	-1.321	2.554	 H	1	UNK0	0.000	
47	   H	5.184	-0.304	3.641	 H	1	UNK0	0.000	
48	   H	3.493	-0.204	4.352	 H	1	UNK0	0.000	
49	   H	4.823	1.808	2.519	 H	1	UNK0	0.000	
50	   H	3.832	2.054	4.064	 H	1	UNK0	0.000	
51	   H	1.906	1.097	3.008	 H	1	UNK0	0.000	
52	   H	2.507	2.359	1.793	 H	1	UNK0	0.000	
53	   H	-2.809	-0.698	5.198	 H	1	UNK0	0.000	
54	   H	-4.571	0.222	3.582	 H	1	UNK0	0.000	
@<TRIPOS>BOND
1 1 2 2
2 1 3 2
3 1 4 1
4 1 25 1
5 4 5 1
6 4 9 1
7 5 6 1
8 6 7 1
9 7 8 1
10 7 10 1
11 8 9 1
12 10 11 1
13 11 12 2
14 11 15 1
15 12 13 1
16 13 14 1
17 14 15 2
18 14 16 1
19 16 17 1
20 17 18 1
21 18 19 2
22 18 20 1
23 20 21 1
24 20 24 1
25 21 22 1
26 22 23 1
27 23 24 1
28 25 26 1
29 25 29 2
30 26 27 1
31 27 28 2
32 27 30 1
33 28 29 1
34 5 31 1
35 5 32 1
36 6 33 1
37 6 34 1
38 8 35 1
39 8 36 1
40 9 37 1
41 9 38 1
42 10 39 1
43 10 40 1
44 16 41 1
45 16 42 1
46 17 43 1
47 17 44 1
48 21 45 1
49 21 46 1
50 22 47 1
51 22 48 1
52 23 49 1
53 23 50 1
54 24 51 1
55 24 52 1
56 28 53 1
57 29 54 1
@<TRIPOS>SUBSTRUCTURE
1	UNK0	1	GROUP	1 ****	UNK
