# created with PyMOL 2.3.2
@<TRIPOS>MOLECULE
2334
53 56 1                 
SMALL
USER_CHARGES
@<TRIPOS>ATOM
1	   S	-0.674	1.993	-1.166	S.O2	1	UNK0	0.000	
2	   O	-1.894	2.757	-0.646	O.2	1	UNK0	0.000	
3	   O	-0.261	2.766	-2.424	O.2	1	UNK0	0.000	
4	   N	0.525	2.133	0.023	N.3	1	UNK0	0.000	
5	   C	1.797	1.583	-0.285	C.3	1	UNK0	0.000	
6	   C	2.815	1.780	0.814	C.3	1	UNK0	0.000	
7	   C	2.940	3.225	1.155	C.3	1	UNK0	0.000	
8	   C	1.584	3.865	1.398	C.3	1	UNK0	0.000	
9	   C	0.703	3.585	0.231	C.3	1	UNK0	0.000	
10	   C	2.639	0.878	1.970	C.2	1	UNK0	0.000	
11	   O	2.183	1.439	3.034	O.2	1	UNK0	0.000	
12	   N	2.904	-0.483	2.030	N.pl3	1	UNK0	0.000	
13	   C	2.651	-1.249	3.210	C.3	1	UNK0	0.000	
14	   C	2.167	-2.645	2.933	C.3	1	UNK0	0.000	
15	   O	2.510	-3.155	1.720	O.3	1	UNK0	0.000	
16	   C	2.426	-2.301	0.640	C.3	1	UNK0	0.000	
17	   C	3.465	-1.200	0.911	C.3	1	UNK0	0.000	
18	   C	-1.135	0.414	-1.644	C.2	1	UNK0	0.000	
19	   C	-0.360	-0.370	-2.463	C.2	1	UNK0	0.000	
20	   C	-0.757	-1.665	-2.761	C.2	1	UNK0	0.000	
21	   C	-1.941	-2.200	-2.246	C.2	1	UNK0	0.000	
22	   C	-2.729	-1.424	-1.426	C.2	1	UNK0	0.000	
23	   C	-2.318	-0.143	-1.142	C.2	1	UNK0	0.000	
24	   C	-3.969	-1.956	-0.877	C.2	1	UNK0	0.000	
25	   N	-4.822	-1.304	-0.069	N.2	1	UNK0	0.000	
26	   O	-5.828	-2.078	0.232	O.3	1	UNK0	0.000	
27	   C	-5.667	-3.233	-0.357	C.2	1	UNK0	0.000	
28	   N	-4.514	-3.171	-1.050	N.2	1	UNK0	0.000	
29	   C	-6.588	-4.420	-0.283	C.3	1	UNK0	0.000	
30	  Cl	1.100	0.200	-3.243	Cl	1	UNK0	0.000	
31	   H	1.735	0.482	-0.509	 H	1	UNK0	0.000	
32	   H	2.195	2.066	-1.194	 H	1	UNK0	0.000	
33	   H	3.802	1.492	0.337	 H	1	UNK0	0.000	
34	   H	3.373	3.748	0.273	 H	1	UNK0	0.000	
35	   H	3.587	3.385	2.033	 H	1	UNK0	0.000	
36	   H	1.143	3.407	2.300	 H	1	UNK0	0.000	
37	   H	1.751	4.945	1.469	 H	1	UNK0	0.000	
38	   H	1.181	3.981	-0.709	 H	1	UNK0	0.000	
39	   H	-0.276	4.068	0.392	 H	1	UNK0	0.000	
40	   H	1.920	-0.771	3.897	 H	1	UNK0	0.000	
41	   H	3.618	-1.293	3.786	 H	1	UNK0	0.000	
42	   H	1.047	-2.726	3.059	 H	1	UNK0	0.000	
43	   H	2.593	-3.303	3.723	 H	1	UNK0	0.000	
44	   H	1.410	-1.826	0.664	 H	1	UNK0	0.000	
45	   H	2.629	-2.847	-0.276	 H	1	UNK0	0.000	
46	   H	3.729	-0.620	0.041	 H	1	UNK0	0.000	
47	   H	4.366	-1.742	1.345	 H	1	UNK0	0.000	
48	   H	-0.137	-2.269	-3.403	 H	1	UNK0	0.000	
49	   H	-2.243	-3.210	-2.484	 H	1	UNK0	0.000	
50	   H	-2.954	0.443	-0.497	 H	1	UNK0	0.000	
51	   H	-7.482	-4.127	0.289	 H	1	UNK0	0.000	
52	   H	-6.800	-4.724	-1.324	 H	1	UNK0	0.000	
53	   H	-6.007	-5.228	0.218	 H	1	UNK0	0.000	
@<TRIPOS>BOND
1 1 2 2
2 1 3 2
3 1 4 1
4 1 18 1
5 4 5 1
6 4 9 1
7 5 6 1
8 6 7 1
9 6 10 1
10 7 8 1
11 8 9 1
12 10 11 2
13 10 12 1
14 12 13 1
15 12 17 1
16 13 14 1
17 14 15 1
18 15 16 1
19 16 17 1
20 18 19 2
21 18 23 1
22 19 20 1
23 19 30 1
24 20 21 2
25 21 22 1
26 22 23 2
27 22 24 1
28 24 25 2
29 24 28 1
30 25 26 1
31 26 27 1
32 27 28 2
33 27 29 1
34 5 31 1
35 5 32 1
36 6 33 1
37 7 34 1
38 7 35 1
39 8 36 1
40 8 37 1
41 9 38 1
42 9 39 1
43 13 40 1
44 13 41 1
45 14 42 1
46 14 43 1
47 16 44 1
48 16 45 1
49 17 46 1
50 17 47 1
51 20 48 1
52 21 49 1
53 23 50 1
54 29 51 1
55 29 52 1
56 29 53 1
@<TRIPOS>SUBSTRUCTURE
1	UNK0	1	GROUP	1 ****	UNK
