# created with PyMOL 2.3.2
@<TRIPOS>MOLECULE
2336
47 50 1                 
SMALL
USER_CHARGES
@<TRIPOS>ATOM
1	  Cl	-0.512	-6.392	5.294	Cl	1	UNK0	0.000	
2	   C	0.068	-5.136	4.195	C.2	1	UNK0	0.000	
3	   N	0.022	-5.306	2.853	N.2	1	UNK0	0.000	
4	   N	0.442	-4.398	2.003	N.2	1	UNK0	0.000	
5	   C	0.965	-3.196	2.392	C.2	1	UNK0	0.000	
6	   C	1.021	-3.002	3.750	C.2	1	UNK0	0.000	
7	   C	0.583	-3.947	4.662	C.2	1	UNK0	0.000	
8	   N	1.401	-2.254	1.437	N.pl3	1	UNK0	0.000	
9	   C	1.263	-2.534	0.025	C.3	1	UNK0	0.000	
10	   C	0.946	-1.198	-0.638	C.3	1	UNK0	0.000	
11	   C	0.057	-0.401	0.325	C.3	1	UNK0	0.000	
12	   C	0.968	0.071	1.444	C.3	1	UNK0	0.000	
13	   C	1.990	-0.998	1.814	C.3	1	UNK0	0.000	
14	   N	-0.423	0.793	-0.348	N.pl3	1	UNK0	0.000	
15	   C	-1.802	1.072	-0.517	C.2	1	UNK0	0.000	
16	   O	-2.630	0.247	-0.063	O.2	1	UNK0	0.000	
17	   C	-2.283	2.289	-1.203	C.3	1	UNK0	0.000	
18	   C	-1.802	2.374	-2.628	C.3	1	UNK0	0.000	
19	   N	-0.753	3.375	-2.634	N.pl3	1	UNK0	0.000	
20	   C	-0.831	4.140	-1.440	C.2	1	UNK0	0.000	
21	   O	-0.175	5.171	-1.212	O.2	1	UNK0	0.000	
22	   C	-1.802	3.545	-0.500	C.3	1	UNK0	0.000	
23	   C	0.219	3.578	-3.669	C.3	1	UNK0	0.000	
24	   C	-0.167	3.373	-5.088	C.3	1	UNK0	0.000	
25	   C	0.743	2.388	-4.396	C.3	1	UNK0	0.000	
26	   H	1.413	-2.092	4.164	 H	1	UNK0	0.000	
27	   H	0.628	-3.792	5.734	 H	1	UNK0	0.000	
28	   H	2.261	-2.851	-0.347	 H	1	UNK0	0.000	
29	   H	0.463	-3.262	-0.195	 H	1	UNK0	0.000	
30	   H	1.873	-0.613	-0.801	 H	1	UNK0	0.000	
31	   H	0.440	-1.328	-1.612	 H	1	UNK0	0.000	
32	   H	-0.769	-1.024	0.667	 H	1	UNK0	0.000	
33	   H	0.380	0.387	2.332	 H	1	UNK0	0.000	
34	   H	1.549	0.921	1.030	 H	1	UNK0	0.000	
35	   H	2.904	-0.889	1.156	 H	1	UNK0	0.000	
36	   H	2.356	-0.919	2.831	 H	1	UNK0	0.000	
37	   H	0.263	1.487	-0.731	 H	1	UNK0	0.000	
38	   H	-3.388	2.353	-1.228	 H	1	UNK0	0.000	
39	   H	-2.596	2.707	-3.308	 H	1	UNK0	0.000	
40	   H	-1.405	1.377	-2.915	 H	1	UNK0	0.000	
41	   H	-2.626	4.257	-0.292	 H	1	UNK0	0.000	
42	   H	-1.334	3.309	0.482	 H	1	UNK0	0.000	
43	   H	0.959	4.394	-3.516	 H	1	UNK0	0.000	
44	   H	-1.214	3.115	-5.279	 H	1	UNK0	0.000	
45	   H	0.330	3.954	-5.890	 H	1	UNK0	0.000	
46	   H	0.273	1.391	-4.254	 H	1	UNK0	0.000	
47	   H	1.806	2.340	-4.627	 H	1	UNK0	0.000	
@<TRIPOS>BOND
1 1 2 1
2 2 3 2
3 2 7 1
4 3 4 1
5 4 5 2
6 5 6 1
7 5 8 1
8 6 7 2
9 8 9 1
10 8 13 1
11 9 10 1
12 10 11 1
13 11 12 1
14 11 14 1
15 12 13 1
16 14 15 1
17 15 16 2
18 15 17 1
19 17 18 1
20 17 22 1
21 18 19 1
22 19 20 1
23 19 23 1
24 20 21 2
25 20 22 1
26 23 24 1
27 23 25 1
28 24 25 1
29 6 26 1
30 7 27 1
31 9 28 1
32 9 29 1
33 10 30 1
34 10 31 1
35 11 32 1
36 12 33 1
37 12 34 1
38 13 35 1
39 13 36 1
40 14 37 1
41 17 38 1
42 18 39 1
43 18 40 1
44 22 41 1
45 22 42 1
46 23 43 1
47 24 44 1
48 24 45 1
49 25 46 1
50 25 47 1
@<TRIPOS>SUBSTRUCTURE
1	UNK0	1	GROUP	1 ****	UNK
