# created with PyMOL 2.3.2
@<TRIPOS>MOLECULE
2341
42 45 1                 
SMALL
USER_CHARGES
@<TRIPOS>ATOM
1	  Cl	-2.979	2.797	-5.499	Cl	1	UNK0	0.000	
2	   C	-2.226	1.604	-4.460	C.2	1	UNK0	0.000	
3	   C	-2.412	1.575	-3.098	C.2	1	UNK0	0.000	
4	   C	-1.786	0.607	-2.349	C.2	1	UNK0	0.000	
5	   C	-0.965	-0.352	-2.912	C.2	1	UNK0	0.000	
6	   N	-0.506	-1.148	-1.935	N.pl3	1	UNK0	0.000	
7	   C	-0.989	-0.761	-0.715	C.2	1	UNK0	0.000	
8	   C	-1.781	0.326	-0.982	C.2	1	UNK0	0.000	
9	   C	-2.487	1.024	0.138	C.3	1	UNK0	0.000	
10	   C	-2.783	-0.048	1.167	C.3	1	UNK0	0.000	
11	   N	-1.502	-0.551	1.628	N.3	1	UNK0	0.000	
12	   C	-0.785	-1.302	0.656	C.3	1	UNK0	0.000	
13	   C	0.682	-1.296	1.009	C.3	1	UNK0	0.000	
14	   C	0.971	-1.822	2.341	C.2	1	UNK0	0.000	
15	   O	0.133	-2.388	3.106	O.2	1	UNK0	0.000	
16	   N	2.319	-1.685	2.819	N.pl3	1	UNK0	0.000	
17	   C	3.178	-0.682	2.289	C.2	1	UNK0	0.000	
18	   O	4.378	-0.555	2.709	O.2	1	UNK0	0.000	
19	   N	2.655	0.175	1.275	N.pl3	1	UNK0	0.000	
20	   C	1.316	0.011	0.826	C.2	1	UNK0	0.000	
21	   O	0.757	1.015	0.294	O.2	1	UNK0	0.000	
22	   C	3.501	1.225	0.696	C.3	1	UNK0	0.000	
23	   C	2.844	-2.563	3.852	C.3	1	UNK0	0.000	
24	   C	-0.808	-0.283	-4.282	C.2	1	UNK0	0.000	
25	   C	-1.410	0.663	-5.081	C.2	1	UNK0	0.000	
26	   H	-3.044	2.309	-2.642	 H	1	UNK0	0.000	
27	   H	0.139	-1.966	-2.057	 H	1	UNK0	0.000	
28	   H	-3.476	1.411	-0.197	 H	1	UNK0	0.000	
29	   H	-1.859	1.829	0.529	 H	1	UNK0	0.000	
30	   H	-3.332	0.320	2.038	 H	1	UNK0	0.000	
31	   H	-3.295	-0.878	0.631	 H	1	UNK0	0.000	
32	   H	-1.729	-1.155	2.463	 H	1	UNK0	0.000	
33	   H	-1.109	-2.365	0.618	 H	1	UNK0	0.000	
34	   H	1.173	-1.997	0.270	 H	1	UNK0	0.000	
35	   H	3.199	2.201	1.091	 H	1	UNK0	0.000	
36	   H	3.382	1.208	-0.405	 H	1	UNK0	0.000	
37	   H	4.562	0.962	0.937	 H	1	UNK0	0.000	
38	   H	3.253	-3.484	3.396	 H	1	UNK0	0.000	
39	   H	3.621	-2.053	4.455	 H	1	UNK0	0.000	
40	   H	2.019	-2.826	4.562	 H	1	UNK0	0.000	
41	   H	-0.174	-1.013	-4.768	 H	1	UNK0	0.000	
42	   H	-1.266	0.691	-6.164	 H	1	UNK0	0.000	
@<TRIPOS>BOND
1 1 2 1
2 2 3 2
3 2 25 1
4 3 4 1
5 4 5 2
6 4 8 1
7 5 6 1
8 5 24 1
9 6 7 1
10 7 8 2
11 7 12 1
12 8 9 1
13 9 10 1
14 10 11 1
15 11 12 1
16 12 13 1
17 13 14 1
18 13 20 1
19 14 15 2
20 14 16 1
21 16 17 1
22 16 23 1
23 17 18 2
24 17 19 1
25 19 20 1
26 19 22 1
27 20 21 2
28 24 25 2
29 3 26 1
30 6 27 1
31 9 28 1
32 9 29 1
33 10 30 1
34 10 31 1
35 11 32 1
36 12 33 1
37 13 34 1
38 22 35 1
39 22 36 1
40 22 37 1
41 23 38 1
42 23 39 1
43 23 40 1
44 24 41 1
45 25 42 1
@<TRIPOS>SUBSTRUCTURE
1	UNK0	1	GROUP	1 ****	UNK
