# created with PyMOL 2.3.2
@<TRIPOS>MOLECULE
2342
41 44 1                 
SMALL
USER_CHARGES
@<TRIPOS>ATOM
1	  Cl	-7.510	-0.427	3.053	Cl	1	UNK0	0.000	
2	   C	-5.772	-0.146	2.879	C.2	1	UNK0	0.000	
3	   C	-5.045	0.492	3.859	C.2	1	UNK0	0.000	
4	   C	-3.693	0.691	3.684	C.2	1	UNK0	0.000	
5	   C	-3.059	0.252	2.525	C.2	1	UNK0	0.000	
6	   C	-3.802	-0.391	1.540	C.2	1	UNK0	0.000	
7	   C	-5.154	-0.585	1.726	C.2	1	UNK0	0.000	
8	   N	-1.749	0.557	2.582	N.pl3	1	UNK0	0.000	
9	   C	-1.595	1.179	3.776	C.2	1	UNK0	0.000	
10	   O	-0.472	1.609	4.166	O.co2	1	UNK0	0.000	
11	   O	-2.747	1.246	4.404	O.3	1	UNK0	0.000	
12	   C	-0.716	0.291	1.602	C.3	1	UNK0	0.000	
13	   C	-0.592	1.433	0.621	C.3	1	UNK0	0.000	
14	   C	0.465	1.147	-0.373	C.2	1	UNK0	0.000	
15	   O	1.086	0.065	-0.286	O.2	1	UNK0	0.000	
16	   N	0.786	2.055	-1.406	N.pl3	1	UNK0	0.000	
17	   C	1.812	1.809	-2.394	C.3	1	UNK0	0.000	
18	   C	1.448	0.571	-3.129	C.2	1	UNK0	0.000	
19	   N	2.061	-0.642	-3.115	N.pl3	1	UNK0	0.000	
20	   C	1.399	-1.484	-3.922	C.2	1	UNK0	0.000	
21	   N	0.366	-0.778	-4.438	N.2	1	UNK0	0.000	
22	   N	0.400	0.454	-3.959	N.2	1	UNK0	0.000	
23	   C	2.022	-2.832	-3.948	C.3	1	UNK0	0.000	
24	   C	2.945	-2.793	-2.742	C.3	1	UNK0	0.000	
25	   C	3.189	-1.312	-2.523	C.3	1	UNK0	0.000	
26	   H	-5.562	0.820	4.745	 H	1	UNK0	0.000	
27	   H	-3.270	-0.713	0.661	 H	1	UNK0	0.000	
28	   H	-5.718	-1.085	0.953	 H	1	UNK0	0.000	
29	   H	0.255	0.081	2.091	 H	1	UNK0	0.000	
30	   H	-0.952	-0.624	1.001	 H	1	UNK0	0.000	
31	   H	-0.226	2.319	1.212	 H	1	UNK0	0.000	
32	   H	-1.541	1.726	0.177	 H	1	UNK0	0.000	
33	   H	0.256	2.967	-1.471	 H	1	UNK0	0.000	
34	   H	2.809	1.667	-1.890	 H	1	UNK0	0.000	
35	   H	1.847	2.638	-3.120	 H	1	UNK0	0.000	
36	   H	1.308	-3.651	-3.853	 H	1	UNK0	0.000	
37	   H	2.587	-2.922	-4.890	 H	1	UNK0	0.000	
38	   H	3.885	-3.351	-2.921	 H	1	UNK0	0.000	
39	   H	2.398	-3.203	-1.866	 H	1	UNK0	0.000	
40	   H	3.274	-1.071	-1.467	 H	1	UNK0	0.000	
41	   H	4.151	-1.043	-3.025	 H	1	UNK0	0.000	
@<TRIPOS>BOND
1 1 2 1
2 2 3 2
3 2 7 1
4 3 4 1
5 4 5 2
6 4 11 1
7 5 6 1
8 5 8 1
9 6 7 2
10 8 9 1
11 8 12 1
12 9 10 2
13 9 11 1
14 12 13 1
15 13 14 1
16 14 15 2
17 14 16 1
18 16 17 1
19 17 18 1
20 18 19 1
21 18 22 2
22 19 20 1
23 19 25 1
24 20 21 2
25 20 23 1
26 21 22 1
27 23 24 1
28 24 25 1
29 3 26 1
30 6 27 1
31 7 28 1
32 12 29 1
33 12 30 1
34 13 31 1
35 13 32 1
36 16 33 1
37 17 34 1
38 17 35 1
39 23 36 1
40 23 37 1
41 24 38 1
42 24 39 1
43 25 40 1
44 25 41 1
@<TRIPOS>SUBSTRUCTURE
1	UNK0	1	GROUP	1 ****	UNK
