# created with PyMOL 2.3.2
@<TRIPOS>MOLECULE
2343
46 49 1                 
SMALL
USER_CHARGES
@<TRIPOS>ATOM
1	  Cl	2.625	-2.284	2.819	Cl	1	UNK0	0.000	
2	   C	3.145	-1.548	1.312	C.2	1	UNK0	0.000	
3	   C	3.758	-2.297	0.334	C.2	1	UNK0	0.000	
4	   N	4.155	-1.746	-0.814	N.2	1	UNK0	0.000	
5	   C	3.979	-0.446	-1.063	C.2	1	UNK0	0.000	
6	   C	3.343	0.384	-0.103	C.2	1	UNK0	0.000	
7	   C	2.940	-0.183	1.059	C.2	1	UNK0	0.000	
8	   C	2.219	0.510	2.185	C.3	1	UNK0	0.000	
9	   N	1.010	1.006	1.777	N.3	1	UNK0	0.000	
10	   C	0.488	2.134	1.252	C.3	1	UNK0	0.000	
11	   C	-0.156	1.978	-0.100	C.3	1	UNK0	0.000	
12	   C	-0.547	0.534	-0.342	C.3	1	UNK0	0.000	
13	   C	-0.939	-0.169	0.910	C.3	1	UNK0	0.000	
14	   C	-0.092	0.091	2.115	C.3	1	UNK0	0.000	
15	   C	-2.417	0.034	1.259	C.3	1	UNK0	0.000	
16	   O	-3.176	-0.639	0.344	O.3	1	UNK0	0.000	
17	   C	-2.592	-0.770	-0.893	C.3	1	UNK0	0.000	
18	   C	-1.769	0.463	-1.264	C.3	1	UNK0	0.000	
19	   O	0.469	-0.108	-1.070	O.3	1	UNK0	0.000	
20	   C	0.593	2.606	-1.210	C.3	1	UNK0	0.000	
21	   O	1.757	3.227	-0.964	O.3	1	UNK0	0.000	
22	   C	1.961	3.899	0.193	C.3	1	UNK0	0.000	
23	   C	1.200	3.450	1.398	C.3	1	UNK0	0.000	
24	   H	3.934	-3.369	0.500	 H	1	UNK0	0.000	
25	   H	4.366	0.063	-1.962	 H	1	UNK0	0.000	
26	   H	3.274	1.480	-0.234	 H	1	UNK0	0.000	
27	   H	2.268	-0.029	3.112	 H	1	UNK0	0.000	
28	   H	2.938	1.401	2.401	 H	1	UNK0	0.000	
29	   H	-0.460	2.320	1.927	 H	1	UNK0	0.000	
30	   H	-1.166	2.525	-0.086	 H	1	UNK0	0.000	
31	   H	-0.848	-1.274	0.669	 H	1	UNK0	0.000	
32	   H	0.255	-0.834	2.619	 H	1	UNK0	0.000	
33	   H	-0.677	0.631	2.864	 H	1	UNK0	0.000	
34	   H	-2.540	-0.389	2.306	 H	1	UNK0	0.000	
35	   H	-2.586	1.115	1.279	 H	1	UNK0	0.000	
36	   H	-3.426	-0.824	-1.654	 H	1	UNK0	0.000	
37	   H	-2.035	-1.709	-0.997	 H	1	UNK0	0.000	
38	   H	-2.408	1.321	-1.084	 H	1	UNK0	0.000	
39	   H	-1.486	0.335	-2.332	 H	1	UNK0	0.000	
40	   H	0.532	-1.071	-0.851	 H	1	UNK0	0.000	
41	   H	0.765	1.796	-1.982	 H	1	UNK0	0.000	
42	   H	-0.042	3.352	-1.790	 H	1	UNK0	0.000	
43	   H	1.890	4.982	-0.015	 H	1	UNK0	0.000	
44	   H	3.048	3.757	0.495	 H	1	UNK0	0.000	
45	   H	1.744	3.478	2.339	 H	1	UNK0	0.000	
46	   H	0.391	4.241	1.513	 H	1	UNK0	0.000	
@<TRIPOS>BOND
1 1 2 1
2 2 3 2
3 2 7 1
4 3 4 1
5 4 5 2
6 5 6 1
7 6 7 2
8 7 8 1
9 8 9 1
10 9 10 1
11 9 14 1
12 10 11 1
13 10 23 1
14 11 12 1
15 11 20 1
16 12 13 1
17 12 18 1
18 12 19 1
19 13 14 1
20 13 15 1
21 15 16 1
22 16 17 1
23 17 18 1
24 20 21 1
25 21 22 1
26 22 23 1
27 3 24 1
28 5 25 1
29 6 26 1
30 8 27 1
31 8 28 1
32 10 29 1
33 11 30 1
34 13 31 1
35 14 32 1
36 14 33 1
37 15 34 1
38 15 35 1
39 17 36 1
40 17 37 1
41 18 38 1
42 18 39 1
43 19 40 1
44 20 41 1
45 20 42 1
46 22 43 1
47 22 44 1
48 23 45 1
49 23 46 1
@<TRIPOS>SUBSTRUCTURE
1	UNK0	1	GROUP	1 ****	UNK
