# created with PyMOL 2.3.2
@<TRIPOS>MOLECULE
2344
48 51 1                 
SMALL
USER_CHARGES
@<TRIPOS>ATOM
1	  Cl	-0.809	2.161	9.296	Cl	1	UNK0	0.000	
2	   C	-0.278	1.856	7.643	C.2	1	UNK0	0.000	
3	   C	0.279	0.649	7.274	C.2	1	UNK0	0.000	
4	   C	0.695	0.425	5.969	C.2	1	UNK0	0.000	
5	   C	0.570	1.398	4.987	C.2	1	UNK0	0.000	
6	   C	0.007	2.594	5.398	C.2	1	UNK0	0.000	
7	   C	-0.410	2.830	6.685	C.2	1	UNK0	0.000	
8	   N	1.000	1.173	3.655	N.pl3	1	UNK0	0.000	
9	   C	0.636	0.070	2.786	C.3	1	UNK0	0.000	
10	   C	0.900	0.535	1.378	C.3	1	UNK0	0.000	
11	   C	1.538	1.877	1.462	C.3	1	UNK0	0.000	
12	   C	1.882	1.994	2.904	C.2	1	UNK0	0.000	
13	   O	2.806	2.701	3.434	O.2	1	UNK0	0.000	
14	   C	-0.321	0.616	0.541	C.2	1	UNK0	0.000	
15	   O	-0.777	1.743	0.253	O.2	1	UNK0	0.000	
16	   N	-0.982	-0.555	0.065	N.pl3	1	UNK0	0.000	
17	   C	-0.495	-1.899	0.350	C.3	1	UNK0	0.000	
18	   C	-0.413	-2.640	-0.933	C.3	1	UNK0	0.000	
19	   N	-0.669	-1.834	-2.129	N.pl3	1	UNK0	0.000	
20	   C	-1.713	-0.862	-2.168	C.3	1	UNK0	0.000	
21	   C	-2.187	-0.494	-0.757	C.3	1	UNK0	0.000	
22	   C	0.146	-2.077	-3.243	C.2	1	UNK0	0.000	
23	   O	1.023	-3.041	-3.006	O.2	1	UNK0	0.000	
24	   C	0.175	-1.462	-4.562	C.3	1	UNK0	0.000	
25	   C	-0.926	-0.814	-5.259	C.3	1	UNK0	0.000	
26	   C	0.283	0.007	-4.815	C.3	1	UNK0	0.000	
27	   H	0.397	-0.141	8.005	 H	1	UNK0	0.000	
28	   H	1.126	-0.533	5.720	 H	1	UNK0	0.000	
29	   H	-0.116	3.387	4.678	 H	1	UNK0	0.000	
30	   H	-0.854	3.777	6.998	 H	1	UNK0	0.000	
31	   H	1.242	-0.841	2.978	 H	1	UNK0	0.000	
32	   H	-0.436	-0.219	2.876	 H	1	UNK0	0.000	
33	   H	1.643	-0.162	0.872	 H	1	UNK0	0.000	
34	   H	0.856	2.721	1.240	 H	1	UNK0	0.000	
35	   H	2.495	1.952	0.910	 H	1	UNK0	0.000	
36	   H	0.475	-1.886	0.897	 H	1	UNK0	0.000	
37	   H	-1.249	-2.380	1.022	 H	1	UNK0	0.000	
38	   H	-1.173	-3.463	-0.953	 H	1	UNK0	0.000	
39	   H	0.569	-3.150	-0.992	 H	1	UNK0	0.000	
40	   H	-2.582	-1.285	-2.718	 H	1	UNK0	0.000	
41	   H	-1.454	0.099	-2.624	 H	1	UNK0	0.000	
42	   H	-2.842	-1.325	-0.429	 H	1	UNK0	0.000	
43	   H	-2.692	0.469	-0.733	 H	1	UNK0	0.000	
44	   H	0.906	-2.027	-5.255	 H	1	UNK0	0.000	
45	   H	-1.027	-0.979	-6.385	 H	1	UNK0	0.000	
46	   H	-1.884	-0.508	-4.841	 H	1	UNK0	0.000	
47	   H	0.231	0.701	-3.984	 H	1	UNK0	0.000	
48	   H	0.914	0.355	-5.679	 H	1	UNK0	0.000	
@<TRIPOS>BOND
1 1 2 1
2 2 3 2
3 2 7 1
4 3 4 1
5 4 5 2
6 5 6 1
7 5 8 1
8 6 7 2
9 8 9 1
10 8 12 1
11 9 10 1
12 10 11 1
13 10 14 1
14 11 12 1
15 12 13 2
16 14 15 2
17 14 16 1
18 16 17 1
19 16 21 1
20 17 18 1
21 18 19 1
22 19 20 1
23 19 22 1
24 20 21 1
25 22 23 2
26 22 24 1
27 24 25 1
28 24 26 1
29 25 26 1
30 3 27 1
31 4 28 1
32 6 29 1
33 7 30 1
34 9 31 1
35 9 32 1
36 10 33 1
37 11 34 1
38 11 35 1
39 17 36 1
40 17 37 1
41 18 38 1
42 18 39 1
43 20 40 1
44 20 41 1
45 21 42 1
46 21 43 1
47 24 44 1
48 25 45 1
49 25 46 1
50 26 47 1
51 26 48 1
@<TRIPOS>SUBSTRUCTURE
1	UNK0	1	GROUP	1 ****	UNK
