# created with PyMOL 2.3.2
@<TRIPOS>MOLECULE
2345
49 52 1                 
SMALL
USER_CHARGES
@<TRIPOS>ATOM
1	  Cl	-1.187	-3.967	-4.766	Cl	1	UNK0	0.000	
2	   C	-0.440	-2.495	-4.146	C.2	1	UNK0	0.000	
3	   C	0.586	-2.557	-3.241	C.2	1	UNK0	0.000	
4	   C	1.163	-1.395	-2.763	C.2	1	UNK0	0.000	
5	   C	0.746	-0.144	-3.164	C.2	1	UNK0	0.000	
6	   C	-0.287	-0.097	-4.076	C.2	1	UNK0	0.000	
7	   C	-0.879	-1.270	-4.566	C.2	1	UNK0	0.000	
8	   N	1.345	1.051	-2.673	N.pl3	1	UNK0	0.000	
9	   C	0.775	2.392	-2.626	C.3	1	UNK0	0.000	
10	   C	1.470	3.110	-1.503	C.3	1	UNK0	0.000	
11	   C	2.712	2.343	-1.193	C.3	1	UNK0	0.000	
12	   C	2.669	1.181	-2.111	C.2	1	UNK0	0.000	
13	   O	3.592	0.361	-2.426	O.2	1	UNK0	0.000	
14	   C	0.618	3.436	-0.353	C.2	1	UNK0	0.000	
15	   O	0.559	4.675	-0.008	O.2	1	UNK0	0.000	
16	   N	-0.140	2.545	0.414	N.pl3	1	UNK0	0.000	
17	   C	-0.926	3.030	1.537	C.3	1	UNK0	0.000	
18	   C	-0.522	2.314	2.822	C.3	1	UNK0	0.000	
19	   N	-0.174	0.959	2.511	N.pl3	1	UNK0	0.000	
20	   C	-0.754	0.348	1.354	C.3	1	UNK0	0.000	
21	   C	-0.193	1.127	0.148	C.3	1	UNK0	0.000	
22	   C	0.729	0.238	3.321	C.2	1	UNK0	0.000	
23	   N	0.428	-0.471	4.444	N.pl3	1	UNK0	0.000	
24	   C	1.551	-1.019	4.927	C.2	1	UNK0	0.000	
25	   C	2.593	-0.658	4.106	C.2	1	UNK0	0.000	
26	   N	2.059	0.093	3.159	N.2	1	UNK0	0.000	
27	   C	-0.912	-0.608	5.030	C.3	1	UNK0	0.000	
28	   H	0.916	-3.542	-2.923	 H	1	UNK0	0.000	
29	   H	1.970	-1.508	-2.048	 H	1	UNK0	0.000	
30	   H	-0.645	0.842	-4.415	 H	1	UNK0	0.000	
31	   H	-1.689	-1.221	-5.282	 H	1	UNK0	0.000	
32	   H	-0.306	2.323	-2.523	 H	1	UNK0	0.000	
33	   H	0.996	2.851	-3.629	 H	1	UNK0	0.000	
34	   H	1.834	4.080	-1.967	 H	1	UNK0	0.000	
35	   H	3.664	2.890	-1.472	 H	1	UNK0	0.000	
36	   H	2.819	2.082	-0.132	 H	1	UNK0	0.000	
37	   H	-1.991	2.777	1.321	 H	1	UNK0	0.000	
38	   H	-0.880	4.122	1.651	 H	1	UNK0	0.000	
39	   H	-1.429	2.271	3.472	 H	1	UNK0	0.000	
40	   H	0.304	2.883	3.299	 H	1	UNK0	0.000	
41	   H	-0.427	-0.706	1.209	 H	1	UNK0	0.000	
42	   H	-1.857	0.451	1.378	 H	1	UNK0	0.000	
43	   H	-0.831	0.860	-0.718	 H	1	UNK0	0.000	
44	   H	0.843	0.763	0.071	 H	1	UNK0	0.000	
45	   H	1.627	-1.638	5.812	 H	1	UNK0	0.000	
46	   H	3.652	-0.925	4.198	 H	1	UNK0	0.000	
47	   H	-0.903	-0.154	6.052	 H	1	UNK0	0.000	
48	   H	-1.629	-0.059	4.402	 H	1	UNK0	0.000	
49	   H	-1.150	-1.666	5.154	 H	1	UNK0	0.000	
@<TRIPOS>BOND
1 1 2 1
2 2 3 2
3 2 7 1
4 3 4 1
5 4 5 2
6 5 6 1
7 5 8 1
8 6 7 2
9 8 9 1
10 8 12 1
11 9 10 1
12 10 11 1
13 10 14 1
14 11 12 1
15 12 13 2
16 14 15 2
17 14 16 1
18 16 17 1
19 16 21 1
20 17 18 1
21 18 19 1
22 19 20 1
23 19 22 1
24 20 21 1
25 22 23 1
26 22 26 2
27 23 24 1
28 23 27 1
29 24 25 2
30 25 26 1
31 3 28 1
32 4 29 1
33 6 30 1
34 7 31 1
35 9 32 1
36 9 33 1
37 10 34 1
38 11 35 1
39 11 36 1
40 17 37 1
41 17 38 1
42 18 39 1
43 18 40 1
44 20 41 1
45 20 42 1
46 21 43 1
47 21 44 1
48 24 45 1
49 25 46 1
50 27 47 1
51 27 48 1
52 27 49 1
@<TRIPOS>SUBSTRUCTURE
1	UNK0	1	GROUP	1 ****	UNK
