# created with PyMOL 2.3.2
@<TRIPOS>MOLECULE
2346
50 53 1                 
SMALL
USER_CHARGES
@<TRIPOS>ATOM
1	  Cl	-5.282	-2.252	-6.009	Cl	1	UNK0	0.000	
2	   C	-3.962	-1.952	-4.872	C.2	1	UNK0	0.000	
3	   C	-2.743	-2.603	-4.989	C.2	1	UNK0	0.000	
4	   C	-1.726	-2.362	-4.101	C.2	1	UNK0	0.000	
5	   C	-1.883	-1.469	-3.068	C.2	1	UNK0	0.000	
6	   C	-3.083	-0.841	-2.967	C.2	1	UNK0	0.000	
7	   C	-4.119	-1.063	-3.844	C.2	1	UNK0	0.000	
8	   N	-0.825	-1.196	-2.146	N.pl3	1	UNK0	0.000	
9	   C	-0.891	-1.167	-0.719	C.3	1	UNK0	0.000	
10	   C	0.503	-1.104	-0.243	C.3	1	UNK0	0.000	
11	   C	1.182	-0.256	-1.335	C.3	1	UNK0	0.000	
12	   C	0.534	-0.888	-2.515	C.2	1	UNK0	0.000	
13	   O	0.965	-1.158	-3.656	O.2	1	UNK0	0.000	
14	   N	0.740	-0.471	1.028	N.pl3	1	UNK0	0.000	
15	   C	1.586	-0.969	2.027	C.2	1	UNK0	0.000	
16	   O	2.199	-2.042	1.855	O.2	1	UNK0	0.000	
17	   C	1.807	-0.263	3.330	C.3	1	UNK0	0.000	
18	   N	3.105	0.393	3.308	N.pl3	1	UNK0	0.000	
19	   N	4.212	-0.220	3.734	N.2	1	UNK0	0.000	
20	   N	5.230	0.579	3.599	N.2	1	UNK0	0.000	
21	   N	4.778	1.702	3.088	N.2	1	UNK0	0.000	
22	   C	3.430	1.596	2.898	C.2	1	UNK0	0.000	
23	   C	2.601	2.644	2.343	C.3	1	UNK0	0.000	
24	   N	2.318	3.752	3.226	N.3	1	UNK0	0.000	
25	   C	1.615	3.330	4.379	C.3	1	UNK0	0.000	
26	   C	0.138	3.516	4.104	C.3	1	UNK0	0.000	
27	   C	0.068	4.430	2.902	C.3	1	UNK0	0.000	
28	   C	1.474	4.659	2.478	C.3	1	UNK0	0.000	
29	   H	-2.582	-3.310	-5.789	 H	1	UNK0	0.000	
30	   H	-0.797	-2.877	-4.211	 H	1	UNK0	0.000	
31	   H	-3.200	-0.129	-2.139	 H	1	UNK0	0.000	
32	   H	-5.050	-0.544	-3.728	 H	1	UNK0	0.000	
33	   H	-1.423	-0.247	-0.335	 H	1	UNK0	0.000	
34	   H	-1.455	-2.057	-0.327	 H	1	UNK0	0.000	
35	   H	1.047	-2.090	-0.314	 H	1	UNK0	0.000	
36	   H	2.264	-0.351	-1.308	 H	1	UNK0	0.000	
37	   H	0.814	0.784	-1.175	 H	1	UNK0	0.000	
38	   H	0.230	0.424	1.204	 H	1	UNK0	0.000	
39	   H	1.819	-1.060	4.103	 H	1	UNK0	0.000	
40	   H	0.994	0.421	3.579	 H	1	UNK0	0.000	
41	   H	3.124	3.131	1.453	 H	1	UNK0	0.000	
42	   H	1.618	2.298	1.957	 H	1	UNK0	0.000	
43	   H	1.844	3.978	5.279	 H	1	UNK0	0.000	
44	   H	1.845	2.306	4.731	 H	1	UNK0	0.000	
45	   H	-0.382	2.562	3.938	 H	1	UNK0	0.000	
46	   H	-0.386	4.044	4.933	 H	1	UNK0	0.000	
47	   H	-0.458	5.363	3.109	 H	1	UNK0	0.000	
48	   H	-0.552	3.894	2.127	 H	1	UNK0	0.000	
49	   H	1.531	4.460	1.367	 H	1	UNK0	0.000	
50	   H	1.818	5.716	2.584	 H	1	UNK0	0.000	
@<TRIPOS>BOND
1 1 2 1
2 2 3 2
3 2 7 1
4 3 4 1
5 4 5 2
6 5 6 1
7 5 8 1
8 6 7 2
9 8 9 1
10 8 12 1
11 9 10 1
12 10 11 1
13 10 14 1
14 11 12 1
15 12 13 2
16 14 15 1
17 15 16 2
18 15 17 1
19 17 18 1
20 18 19 1
21 18 22 1
22 19 20 2
23 20 21 1
24 21 22 2
25 22 23 1
26 23 24 1
27 24 25 1
28 24 28 1
29 25 26 1
30 26 27 1
31 27 28 1
32 3 29 1
33 4 30 1
34 6 31 1
35 7 32 1
36 9 33 1
37 9 34 1
38 10 35 1
39 11 36 1
40 11 37 1
41 14 38 1
42 17 39 1
43 17 40 1
44 23 41 1
45 23 42 1
46 25 43 1
47 25 44 1
48 26 45 1
49 26 46 1
50 27 47 1
51 27 48 1
52 28 49 1
53 28 50 1
@<TRIPOS>SUBSTRUCTURE
1	UNK0	1	GROUP	1 ****	UNK
