# created with PyMOL 2.3.2
@<TRIPOS>MOLECULE
2347
36 39 1                 
SMALL
USER_CHARGES
@<TRIPOS>ATOM
1	  Cl	3.394	0.535	-5.246	Cl	1	UNK0	0.000	
2	   C	2.601	0.537	-3.697	C.2	1	UNK0	0.000	
3	   C	3.145	-0.122	-2.632	C.2	1	UNK0	0.000	
4	   C	2.501	-0.111	-1.402	C.2	1	UNK0	0.000	
5	   C	1.301	0.551	-1.188	C.2	1	UNK0	0.000	
6	   C	0.778	1.210	-2.293	C.2	1	UNK0	0.000	
7	   C	1.409	1.204	-3.515	C.2	1	UNK0	0.000	
8	   N	0.668	0.548	0.065	N.pl3	1	UNK0	0.000	
9	   C	1.138	-0.116	1.250	C.3	1	UNK0	0.000	
10	   C	-0.158	-0.793	1.714	C.3	1	UNK0	0.000	
11	   C	-1.279	0.046	1.146	C.3	1	UNK0	0.000	
12	   C	-0.556	1.179	0.468	C.3	1	UNK0	0.000	
13	   N	-0.170	-2.139	1.181	N.pl3	1	UNK0	0.000	
14	   C	-1.193	-3.074	1.446	C.2	1	UNK0	0.000	
15	   N	-1.111	-4.296	0.885	N.2	1	UNK0	0.000	
16	   N	-2.015	-5.233	1.078	N.pl3	1	UNK0	0.000	
17	   N	-2.120	-6.470	0.632	N.2	1	UNK0	0.000	
18	   N	-3.243	-6.981	1.142	N.2	1	UNK0	0.000	
19	   N	-3.825	-6.062	1.899	N.2	1	UNK0	0.000	
20	   C	-3.070	-4.946	1.877	C.2	1	UNK0	0.000	
21	   C	-3.211	-3.729	2.474	C.2	1	UNK0	0.000	
22	   C	-2.248	-2.742	2.264	C.2	1	UNK0	0.000	
23	   H	4.078	-0.649	-2.758	 H	1	UNK0	0.000	
24	   H	2.998	-0.655	-0.617	 H	1	UNK0	0.000	
25	   H	-0.154	1.732	-2.151	 H	1	UNK0	0.000	
26	   H	0.992	1.720	-4.363	 H	1	UNK0	0.000	
27	   H	1.934	-0.841	1.097	 H	1	UNK0	0.000	
28	   H	1.414	0.691	1.978	 H	1	UNK0	0.000	
29	   H	-0.212	-0.745	2.801	 H	1	UNK0	0.000	
30	   H	-1.981	0.406	1.927	 H	1	UNK0	0.000	
31	   H	-1.853	-0.569	0.395	 H	1	UNK0	0.000	
32	   H	-1.126	1.617	-0.368	 H	1	UNK0	0.000	
33	   H	-0.291	1.927	1.246	 H	1	UNK0	0.000	
34	   H	0.629	-2.424	0.566	 H	1	UNK0	0.000	
35	   H	-4.073	-3.547	3.105	 H	1	UNK0	0.000	
36	   H	-2.355	-1.794	2.729	 H	1	UNK0	0.000	
@<TRIPOS>BOND
1 1 2 1
2 2 3 2
3 2 7 1
4 3 4 1
5 4 5 2
6 5 6 1
7 5 8 1
8 6 7 2
9 8 9 1
10 8 12 1
11 9 10 1
12 10 11 1
13 10 13 1
14 11 12 1
15 13 14 1
16 14 15 2
17 14 22 1
18 15 16 1
19 16 17 1
20 16 20 1
21 17 18 2
22 18 19 1
23 19 20 2
24 20 21 1
25 21 22 2
26 3 23 1
27 4 24 1
28 6 25 1
29 7 26 1
30 9 27 1
31 9 28 1
32 10 29 1
33 11 30 1
34 11 31 1
35 12 32 1
36 12 33 1
37 13 34 1
38 21 35 1
39 22 36 1
@<TRIPOS>SUBSTRUCTURE
1	UNK0	1	GROUP	1 ****	UNK
