# created with PyMOL 2.3.2
@<TRIPOS>MOLECULE
2348
51 54 1                 
SMALL
USER_CHARGES
@<TRIPOS>ATOM
1	   S	1.493	-1.110	-3.023	S.O2	1	UNK0	0.000	
2	   O	1.562	-0.652	-4.438	O.2	1	UNK0	0.000	
3	   O	2.442	-2.274	-2.806	O.2	1	UNK0	0.000	
4	   N	1.874	0.204	-1.997	N.3	1	UNK0	0.000	
5	   C	1.879	-0.187	-0.615	C.3	1	UNK0	0.000	
6	   C	2.009	1.004	0.308	C.3	1	UNK0	0.000	
7	   N	1.154	2.086	-0.062	N.pl3	1	UNK0	0.000	
8	   C	1.428	2.489	-1.477	C.3	1	UNK0	0.000	
9	   C	0.967	1.293	-2.275	C.3	1	UNK0	0.000	
10	   C	0.182	2.770	0.656	C.2	1	UNK0	0.000	
11	   O	-0.376	3.761	-0.009	O.2	1	UNK0	0.000	
12	   C	-0.347	2.640	1.975	C.3	1	UNK0	0.000	
13	   N	-0.023	1.615	2.849	N.3	1	UNK0	0.000	
14	   C	-0.484	0.312	2.814	C.3	1	UNK0	0.000	
15	   C	-1.248	0.571	4.130	C.3	1	UNK0	0.000	
16	   C	-0.343	1.779	4.222	C.3	1	UNK0	0.000	
17	   C	0.527	-0.775	3.009	C.3	1	UNK0	0.000	
18	   C	-0.178	-1.928	3.704	C.3	1	UNK0	0.000	
19	   O	-1.531	-1.828	3.504	O.3	1	UNK0	0.000	
20	   C	-1.883	-1.573	2.183	C.3	1	UNK0	0.000	
21	   C	-1.478	-0.162	1.797	C.3	1	UNK0	0.000	
22	   C	-0.125	-1.762	-2.714	C.2	1	UNK0	0.000	
23	   S	-0.757	-2.472	-1.307	S.3	1	UNK0	0.000	
24	   C	-2.340	-2.792	-1.843	C.2	1	UNK0	0.000	
25	   C	-2.338	-2.331	-3.124	C.2	1	UNK0	0.000	
26	   C	-1.184	-1.792	-3.584	C.2	1	UNK0	0.000	
27	  Cl	-3.705	-3.542	-0.988	Cl	1	UNK0	0.000	
28	   H	2.737	-0.857	-0.454	 H	1	UNK0	0.000	
29	   H	0.960	-0.753	-0.401	 H	1	UNK0	0.000	
30	   H	2.061	0.694	1.321	 H	1	UNK0	0.000	
31	   H	3.065	1.412	0.097	 H	1	UNK0	0.000	
32	   H	2.521	2.641	-1.574	 H	1	UNK0	0.000	
33	   H	0.860	3.407	-1.714	 H	1	UNK0	0.000	
34	   H	-0.076	1.075	-2.053	 H	1	UNK0	0.000	
35	   H	1.037	1.500	-3.357	 H	1	UNK0	0.000	
36	   H	-1.484	2.747	1.984	 H	1	UNK0	0.000	
37	   H	-0.069	3.624	2.519	 H	1	UNK0	0.000	
38	   H	-0.998	-0.140	4.942	 H	1	UNK0	0.000	
39	   H	-2.314	0.757	4.020	 H	1	UNK0	0.000	
40	   H	-0.892	2.693	4.520	 H	1	UNK0	0.000	
41	   H	0.551	1.628	4.870	 H	1	UNK0	0.000	
42	   H	1.393	-0.387	3.542	 H	1	UNK0	0.000	
43	   H	0.837	-1.191	2.022	 H	1	UNK0	0.000	
44	   H	0.047	-1.908	4.786	 H	1	UNK0	0.000	
45	   H	0.243	-2.893	3.322	 H	1	UNK0	0.000	
46	   H	-1.304	-2.281	1.574	 H	1	UNK0	0.000	
47	   H	-2.966	-1.755	2.014	 H	1	UNK0	0.000	
48	   H	-2.399	0.479	1.861	 H	1	UNK0	0.000	
49	   H	-1.133	-0.198	0.765	 H	1	UNK0	0.000	
50	   H	-3.256	-2.407	-3.743	 H	1	UNK0	0.000	
51	   H	-1.070	-1.382	-4.618	 H	1	UNK0	0.000	
@<TRIPOS>BOND
1 1 2 2
2 1 3 2
3 1 4 1
4 1 22 1
5 4 5 1
6 4 9 1
7 5 6 1
8 6 7 1
9 7 8 1
10 7 10 1
11 8 9 1
12 10 11 2
13 10 12 1
14 12 13 1
15 13 14 1
16 13 16 1
17 14 15 1
18 14 17 1
19 14 21 1
20 15 16 1
21 17 18 1
22 18 19 1
23 19 20 1
24 20 21 1
25 22 23 1
26 22 26 2
27 23 24 1
28 24 25 2
29 24 27 1
30 25 26 1
31 5 28 1
32 5 29 1
33 6 30 1
34 6 31 1
35 8 32 1
36 8 33 1
37 9 34 1
38 9 35 1
39 12 36 1
40 12 37 1
41 15 38 1
42 15 39 1
43 16 40 1
44 16 41 1
45 17 42 1
46 17 43 1
47 18 44 1
48 18 45 1
49 20 46 1
50 20 47 1
51 21 48 1
52 21 49 1
53 25 50 1
54 26 51 1
@<TRIPOS>SUBSTRUCTURE
1	UNK0	1	GROUP	1 ****	UNK
