# created with PyMOL 2.3.2
@<TRIPOS>MOLECULE
2349
45 48 1                 
SMALL
USER_CHARGES
@<TRIPOS>ATOM
1	  Cl	-2.158	-2.835	7.157	Cl	1	UNK0	0.000	
2	   C	-2.186	-2.323	5.480	C.2	1	UNK0	0.000	
3	   C	-2.013	-3.247	4.449	C.2	1	UNK0	0.000	
4	   C	-2.024	-2.864	3.135	C.2	1	UNK0	0.000	
5	   C	-2.206	-1.538	2.737	C.2	1	UNK0	0.000	
6	   C	-2.378	-0.629	3.768	C.2	1	UNK0	0.000	
7	   C	-2.367	-1.011	5.088	C.2	1	UNK0	0.000	
8	   N	-2.207	-1.167	1.373	N.pl3	1	UNK0	0.000	
9	   C	-3.299	-1.633	0.567	C.2	1	UNK0	0.000	
10	   O	-4.214	-2.310	1.115	O.2	1	UNK0	0.000	
11	   N	-3.269	-1.292	-0.808	N.2	1	UNK0	0.000	
12	   C	-2.362	-0.626	-1.373	C.2	1	UNK0	0.000	
13	   C	-1.135	-0.071	-0.704	C.3	1	UNK0	0.000	
14	   C	0.007	-0.824	-1.326	C.3	1	UNK0	0.000	
15	   N	1.277	-0.208	-1.311	N.4	1	UNK0	0.000	
16	   C	1.300	1.183	-1.569	C.2	1	UNK0	0.000	
17	   C	0.175	1.925	-1.403	C.2	1	UNK0	0.000	
18	   C	0.237	3.291	-1.665	C.2	1	UNK0	0.000	
19	   C	1.423	3.859	-2.084	C.2	1	UNK0	0.000	
20	   C	2.571	3.100	-2.254	C.2	1	UNK0	0.000	
21	   C	2.495	1.734	-1.988	C.2	1	UNK0	0.000	
22	   C	1.519	5.323	-2.384	C.3	1	UNK0	0.000	
23	   C	-1.128	1.388	-0.954	C.3	1	UNK0	0.000	
24	   C	2.103	-0.505	-0.151	C.3	1	UNK0	0.000	
25	   C	-1.198	-0.400	0.741	C.2	1	UNK0	0.000	
26	   O	-0.288	0.021	1.542	O.2	1	UNK0	0.000	
27	   O	-2.443	-0.342	-2.749	O.2	1	UNK0	0.000	
28	   H	-1.869	-4.291	4.759	 H	1	UNK0	0.000	
29	   H	-1.887	-3.605	2.325	 H	1	UNK0	0.000	
30	   H	-2.520	0.394	3.452	 H	1	UNK0	0.000	
31	   H	-2.506	-0.249	5.867	 H	1	UNK0	0.000	
32	   H	-0.248	-1.145	-2.375	 H	1	UNK0	0.000	
33	   H	0.084	-1.790	-0.750	 H	1	UNK0	0.000	
34	   H	1.829	-0.631	-2.125	 H	1	UNK0	0.000	
35	   H	-0.633	3.930	-1.551	 H	1	UNK0	0.000	
36	   H	3.526	3.529	-2.588	 H	1	UNK0	0.000	
37	   H	3.401	1.146	-2.125	 H	1	UNK0	0.000	
38	   H	0.519	5.785	-2.531	 H	1	UNK0	0.000	
39	   H	2.191	5.466	-3.272	 H	1	UNK0	0.000	
40	   H	2.001	5.835	-1.540	 H	1	UNK0	0.000	
41	   H	-1.852	1.684	-1.774	 H	1	UNK0	0.000	
42	   H	-1.444	1.965	-0.067	 H	1	UNK0	0.000	
43	   H	1.754	-1.393	0.418	 H	1	UNK0	0.000	
44	   H	2.216	0.414	0.472	 H	1	UNK0	0.000	
45	   H	3.163	-0.758	-0.460	 H	1	UNK0	0.000	
@<TRIPOS>BOND
1 1 2 1
2 2 3 2
3 2 7 1
4 3 4 1
5 4 5 2
6 5 6 1
7 5 8 1
8 6 7 2
9 8 9 1
10 8 25 1
11 9 10 2
12 9 11 1
13 11 12 2
14 12 13 1
15 12 27 1
16 13 14 1
17 13 23 1
18 13 25 1
19 14 15 1
20 15 16 1
21 15 24 1
22 16 17 2
23 16 21 1
24 17 18 1
25 17 23 1
26 18 19 2
27 19 20 1
28 19 22 1
29 20 21 2
30 25 26 2
31 3 28 1
32 4 29 1
33 6 30 1
34 7 31 1
35 14 32 1
36 14 33 1
37 15 34 1
38 18 35 1
39 20 36 1
40 21 37 1
41 22 38 1
42 22 39 1
43 22 40 1
44 23 41 1
45 23 42 1
46 24 43 1
47 24 44 1
48 24 45 1
@<TRIPOS>SUBSTRUCTURE
1	UNK0	1	GROUP	1 ****	UNK
