# created with PyMOL 2.3.2
@<TRIPOS>MOLECULE
2351
37 40 1                 
SMALL
USER_CHARGES
@<TRIPOS>ATOM
1	  Cl	-5.019	-2.135	5.506	Cl	1	UNK0	0.000	
2	   C	-3.604	-1.625	4.608	C.2	1	UNK0	0.000	
3	   C	-3.776	-0.734	3.572	C.2	1	UNK0	0.000	
4	   C	-2.660	-0.336	2.868	C.2	1	UNK0	0.000	
5	   C	-1.372	-0.794	3.156	C.2	1	UNK0	0.000	
6	   C	-1.223	-1.684	4.196	C.2	1	UNK0	0.000	
7	   C	-2.335	-2.088	4.908	C.2	1	UNK0	0.000	
8	   N	-0.264	-0.348	2.394	N.pl3	1	UNK0	0.000	
9	   C	1.056	-0.001	2.865	C.2	1	UNK0	0.000	
10	   O	1.329	0.389	4.040	O.2	1	UNK0	0.000	
11	   C	1.971	-0.197	1.722	C.3	1	UNK0	0.000	
12	   O	3.061	0.630	1.674	O.3	1	UNK0	0.000	
13	   N	3.187	0.894	0.337	N.pl3	1	UNK0	0.000	
14	   C	1.872	0.978	-0.242	C.2	1	UNK0	0.000	
15	   C	1.099	0.315	0.596	C.2	1	UNK0	0.000	
16	   C	-0.227	-0.145	0.979	C.2	1	UNK0	0.000	
17	   O	-1.150	-0.317	0.149	O.2	1	UNK0	0.000	
18	   C	1.528	1.632	-1.493	C.2	1	UNK0	0.000	
19	   C	0.800	1.102	-2.525	C.2	1	UNK0	0.000	
20	   N	0.680	2.042	-3.510	N.pl3	1	UNK0	0.000	
21	   N	1.319	3.117	-3.089	N.2	1	UNK0	0.000	
22	   C	1.845	2.927	-1.888	C.2	1	UNK0	0.000	
23	   C	-0.010	1.903	-4.771	C.3	1	UNK0	0.000	
24	   C	0.213	-0.254	-2.679	C.3	1	UNK0	0.000	
25	   H	-4.771	-0.381	3.346	 H	1	UNK0	0.000	
26	   H	-2.745	0.366	2.042	 H	1	UNK0	0.000	
27	   H	-0.266	-2.086	4.476	 H	1	UNK0	0.000	
28	   H	-2.269	-2.792	5.739	 H	1	UNK0	0.000	
29	   H	2.204	-1.263	1.574	 H	1	UNK0	0.000	
30	   H	4.055	1.024	-0.211	 H	1	UNK0	0.000	
31	   H	2.422	3.599	-1.268	 H	1	UNK0	0.000	
32	   H	0.312	0.949	-5.265	 H	1	UNK0	0.000	
33	   H	0.227	2.718	-5.447	 H	1	UNK0	0.000	
34	   H	-1.110	1.882	-4.621	 H	1	UNK0	0.000	
35	   H	0.482	-0.628	-3.693	 H	1	UNK0	0.000	
36	   H	-0.883	-0.234	-2.616	 H	1	UNK0	0.000	
37	   H	0.684	-0.918	-1.900	 H	1	UNK0	0.000	
@<TRIPOS>BOND
1 1 2 1
2 2 3 2
3 2 7 1
4 3 4 1
5 4 5 2
6 5 6 1
7 5 8 1
8 6 7 2
9 8 9 1
10 8 16 1
11 9 10 2
12 9 11 1
13 11 12 1
14 11 15 1
15 12 13 1
16 13 14 1
17 14 15 2
18 14 18 1
19 15 16 1
20 16 17 2
21 18 19 2
22 18 22 1
23 19 20 1
24 19 24 1
25 20 21 1
26 20 23 1
27 21 22 2
28 3 25 1
29 4 26 1
30 6 27 1
31 7 28 1
32 11 29 1
33 13 30 1
34 22 31 1
35 23 32 1
36 23 33 1
37 23 34 1
38 24 35 1
39 24 36 1
40 24 37 1
@<TRIPOS>SUBSTRUCTURE
1	UNK0	1	GROUP	1 ****	UNK
