# created with PyMOL 2.3.2
@<TRIPOS>MOLECULE
2356
50 53 1                 
SMALL
USER_CHARGES
@<TRIPOS>ATOM
1	  Cl	-3.957	-1.696	-4.590	Cl	1	UNK0	0.000	
2	   C	-2.606	-0.764	-3.980	C.2	1	UNK0	0.000	
3	   C	-2.270	-0.907	-2.636	C.2	1	UNK0	0.000	
4	   C	-1.204	-0.163	-2.181	C.2	1	UNK0	0.000	
5	   C	-0.480	0.695	-2.993	C.2	1	UNK0	0.000	
6	   C	-0.839	0.816	-4.326	C.2	1	UNK0	0.000	
7	   C	-1.904	0.082	-4.811	C.2	1	UNK0	0.000	
8	   N	0.608	1.425	-2.435	N.pl3	1	UNK0	0.000	
9	   C	1.803	1.507	-3.205	C.2	1	UNK0	0.000	
10	   O	1.916	0.964	-4.338	O.2	1	UNK0	0.000	
11	   N	2.917	2.233	-2.675	N.pl3	1	UNK0	0.000	
12	   C	2.877	2.876	-1.408	C.2	1	UNK0	0.000	
13	   O	3.857	3.518	-0.935	O.2	1	UNK0	0.000	
14	   C	1.656	2.804	-0.598	C.2	1	UNK0	0.000	
15	   C	1.598	3.399	0.590	C.2	1	UNK0	0.000	
16	   N	0.417	3.323	1.362	N.pl3	1	UNK0	0.000	
17	   N	0.250	2.497	2.466	N.pl3	1	UNK0	0.000	
18	   C	0.472	1.099	2.463	C.2	1	UNK0	0.000	
19	   N	1.627	0.468	2.738	N.pl3	1	UNK0	0.000	
20	   C	1.462	-0.864	2.637	C.2	1	UNK0	0.000	
21	   C	0.147	-1.088	2.283	C.2	1	UNK0	0.000	
22	   N	-0.419	0.108	2.187	N.2	1	UNK0	0.000	
23	   N	-0.238	-2.368	2.127	N.pl3	1	UNK0	0.000	
24	   C	0.606	-3.395	2.303	C.2	1	UNK0	0.000	
25	   O	0.147	-4.555	2.132	O.2	1	UNK0	0.000	
26	   N	1.901	-3.216	2.650	N.pl3	1	UNK0	0.000	
27	   C	2.312	-1.935	2.813	C.2	1	UNK0	0.000	
28	   O	3.511	-1.732	3.136	O.2	1	UNK0	0.000	
29	   C	2.786	-4.348	2.833	C.3	1	UNK0	0.000	
30	   C	-1.611	-2.606	1.757	C.3	1	UNK0	0.000	
31	   C	2.902	1.094	3.099	C.3	1	UNK0	0.000	
32	   C	0.534	2.060	-1.158	C.2	1	UNK0	0.000	
33	   O	-0.524	1.971	-0.506	O.2	1	UNK0	0.000	
34	   H	-2.834	-1.579	-1.989	 H	1	UNK0	0.000	
35	   H	-0.915	-0.249	-1.143	 H	1	UNK0	0.000	
36	   H	-0.282	1.479	-4.961	 H	1	UNK0	0.000	
37	   H	-2.217	0.153	-5.864	 H	1	UNK0	0.000	
38	   H	3.774	2.279	-3.252	 H	1	UNK0	0.000	
39	   H	2.470	3.944	0.961	 H	1	UNK0	0.000	
40	   H	-0.380	3.936	1.073	 H	1	UNK0	0.000	
41	   H	-0.060	2.929	3.364	 H	1	UNK0	0.000	
42	   H	3.500	-4.470	1.995	 H	1	UNK0	0.000	
43	   H	2.164	-5.259	2.883	 H	1	UNK0	0.000	
44	   H	3.319	-4.235	3.786	 H	1	UNK0	0.000	
45	   H	-1.744	-2.484	0.644	 H	1	UNK0	0.000	
46	   H	-1.971	-3.600	2.086	 H	1	UNK0	0.000	
47	   H	-2.267	-1.822	2.209	 H	1	UNK0	0.000	
48	   H	3.425	0.482	3.884	 H	1	UNK0	0.000	
49	   H	2.725	2.085	3.570	 H	1	UNK0	0.000	
50	   H	3.597	1.137	2.242	 H	1	UNK0	0.000	
@<TRIPOS>BOND
1 1 2 1
2 2 3 2
3 2 7 1
4 3 4 1
5 4 5 2
6 5 6 1
7 5 8 1
8 6 7 2
9 8 9 1
10 8 32 1
11 9 10 2
12 9 11 1
13 11 12 1
14 12 13 2
15 12 14 1
16 14 15 2
17 14 32 1
18 15 16 1
19 16 17 1
20 17 18 1
21 18 19 1
22 18 22 2
23 19 20 1
24 19 31 1
25 20 21 2
26 20 27 1
27 21 22 1
28 21 23 1
29 23 24 1
30 23 30 1
31 24 25 2
32 24 26 1
33 26 27 1
34 26 29 1
35 27 28 2
36 32 33 2
37 3 34 1
38 4 35 1
39 6 36 1
40 7 37 1
41 11 38 1
42 15 39 1
43 16 40 1
44 17 41 1
45 29 42 1
46 29 43 1
47 29 44 1
48 30 45 1
49 30 46 1
50 30 47 1
51 31 48 1
52 31 49 1
53 31 50 1
@<TRIPOS>SUBSTRUCTURE
1	UNK0	1	GROUP	1 ****	UNK
