# created with PyMOL 2.3.2
@<TRIPOS>MOLECULE
2357
51 54 1                 
SMALL
USER_CHARGES
@<TRIPOS>ATOM
1	  Cl	5.706	-3.790	0.821	Cl	1	UNK0	0.000	
2	   C	3.955	-3.551	0.748	C.2	1	UNK0	0.000	
3	   C	3.370	-2.948	-0.337	C.2	1	UNK0	0.000	
4	   C	2.002	-2.770	-0.377	C.2	1	UNK0	0.000	
5	   C	1.188	-3.181	0.647	C.2	1	UNK0	0.000	
6	   C	1.771	-3.781	1.728	C.2	1	UNK0	0.000	
7	   C	3.158	-3.971	1.786	C.2	1	UNK0	0.000	
8	   N	-0.217	-2.980	0.577	N.pl3	1	UNK0	0.000	
9	   C	-0.960	-3.527	-0.503	C.2	1	UNK0	0.000	
10	   O	-0.307	-4.192	-1.381	O.2	1	UNK0	0.000	
11	   N	-2.343	-3.340	-0.590	N.pl3	1	UNK0	0.000	
12	   C	-3.036	-2.601	0.396	C.2	1	UNK0	0.000	
13	   O	-4.274	-2.692	0.505	O.2	1	UNK0	0.000	
14	   C	-2.288	-1.708	1.309	C.3	1	UNK0	0.000	
15	   C	-0.927	-2.240	1.559	C.2	1	UNK0	0.000	
16	   O	-0.398	-2.029	2.664	O.2	1	UNK0	0.000	
17	   C	-2.144	-0.340	0.701	C.2	1	UNK0	0.000	
18	   C	-2.586	0.808	1.176	C.2	1	UNK0	0.000	
19	   C	-2.222	1.913	0.254	C.3	1	UNK0	0.000	
20	   N	-1.948	1.222	-0.975	N.pl3	1	UNK0	0.000	
21	   N	-1.498	-0.030	-0.529	N.pl3	1	UNK0	0.000	
22	   C	-1.086	2.635	0.815	C.2	1	UNK0	0.000	
23	   C	-0.834	2.516	2.165	C.2	1	UNK0	0.000	
24	   C	0.217	3.156	2.790	C.2	1	UNK0	0.000	
25	   C	1.053	3.958	2.002	C.2	1	UNK0	0.000	
26	   C	0.841	4.109	0.649	C.2	1	UNK0	0.000	
27	   C	-0.230	3.438	0.093	C.2	1	UNK0	0.000	
28	   O	1.683	4.902	-0.072	O.3	1	UNK0	0.000	
29	   C	1.613	5.166	-1.443	C.3	1	UNK0	0.000	
30	   O	2.115	4.617	2.579	O.3	1	UNK0	0.000	
31	   O	0.480	3.042	4.149	O.3	1	UNK0	0.000	
32	   C	-0.390	2.220	4.900	C.3	1	UNK0	0.000	
33	   H	4.010	-2.626	-1.141	 H	1	UNK0	0.000	
34	   H	1.566	-2.293	-1.243	 H	1	UNK0	0.000	
35	   H	1.149	-4.110	2.541	 H	1	UNK0	0.000	
36	   H	3.610	-4.444	2.640	 H	1	UNK0	0.000	
37	   H	-2.848	-3.772	-1.417	 H	1	UNK0	0.000	
38	   H	-2.878	-1.610	2.242	 H	1	UNK0	0.000	
39	   H	-3.138	0.889	2.120	 H	1	UNK0	0.000	
40	   H	-3.114	2.574	0.150	 H	1	UNK0	0.000	
41	   H	-1.307	1.696	-1.609	 H	1	UNK0	0.000	
42	   H	-0.805	-0.621	-1.030	 H	1	UNK0	0.000	
43	   H	-1.461	1.903	2.807	 H	1	UNK0	0.000	
44	   H	-0.429	3.531	-0.958	 H	1	UNK0	0.000	
45	   H	1.378	4.263	-2.049	 H	1	UNK0	0.000	
46	   H	2.507	5.612	-1.870	 H	1	UNK0	0.000	
47	   H	0.767	5.868	-1.616	 H	1	UNK0	0.000	
48	   H	2.289	4.520	3.570	 H	1	UNK0	0.000	
49	   H	-0.185	2.309	5.980	 H	1	UNK0	0.000	
50	   H	-0.396	1.177	4.554	 H	1	UNK0	0.000	
51	   H	-1.431	2.611	4.755	 H	1	UNK0	0.000	
@<TRIPOS>BOND
1 1 2 1
2 2 3 2
3 2 7 1
4 3 4 1
5 4 5 2
6 5 6 1
7 5 8 1
8 6 7 2
9 8 9 1
10 8 15 1
11 9 10 2
12 9 11 1
13 11 12 1
14 12 13 2
15 12 14 1
16 14 15 1
17 14 17 1
18 15 16 2
19 17 18 2
20 17 21 1
21 18 19 1
22 19 20 1
23 19 22 1
24 20 21 1
25 22 23 2
26 22 27 1
27 23 24 1
28 24 25 2
29 24 31 1
30 25 26 1
31 25 30 1
32 26 27 2
33 26 28 1
34 28 29 1
35 31 32 1
36 3 33 1
37 4 34 1
38 6 35 1
39 7 36 1
40 11 37 1
41 14 38 1
42 18 39 1
43 19 40 1
44 20 41 1
45 21 42 1
46 23 43 1
47 27 44 1
48 29 45 1
49 29 46 1
50 29 47 1
51 30 48 1
52 32 49 1
53 32 50 1
54 32 51 1
@<TRIPOS>SUBSTRUCTURE
1	UNK0	1	GROUP	1 ****	UNK
