# created with PyMOL 2.3.2
@<TRIPOS>MOLECULE
2360
43 46 1                 
SMALL
USER_CHARGES
@<TRIPOS>ATOM
1	  Cl	4.786	6.250	-2.327	Cl	1	UNK0	0.000	
2	   C	4.284	4.724	-1.627	C.2	1	UNK0	0.000	
3	   C	3.823	3.693	-2.417	C.2	1	UNK0	0.000	
4	   C	3.419	2.485	-1.905	C.2	1	UNK0	0.000	
5	   C	3.464	2.252	-0.525	C.2	1	UNK0	0.000	
6	   C	3.924	3.277	0.271	C.2	1	UNK0	0.000	
7	   C	4.329	4.495	-0.263	C.2	1	UNK0	0.000	
8	   N	3.044	1.000	-0.025	N.pl3	1	UNK0	0.000	
9	   C	3.866	-0.155	0.080	C.2	1	UNK0	0.000	
10	   O	5.070	-0.033	-0.293	O.2	1	UNK0	0.000	
11	   N	3.383	-1.393	0.574	N.pl3	1	UNK0	0.000	
12	   C	2.013	-1.493	0.984	C.2	1	UNK0	0.000	
13	   O	1.760	-2.419	1.785	O.2	1	UNK0	0.000	
14	   C	1.071	-0.529	0.441	C.3	1	UNK0	0.000	
15	   C	1.690	0.822	0.408	C.2	1	UNK0	0.000	
16	   O	1.024	1.823	0.763	O.2	1	UNK0	0.000	
17	   C	-0.260	-0.470	1.044	C.2	1	UNK0	0.000	
18	   C	-0.743	-1.072	2.114	C.2	1	UNK0	0.000	
19	   C	-2.158	-0.641	2.245	C.3	1	UNK0	0.000	
20	   N	-2.164	0.627	1.557	N.pl3	1	UNK0	0.000	
21	   N	-1.310	0.358	0.486	N.pl3	1	UNK0	0.000	
22	   C	-3.044	-1.562	1.443	C.2	1	UNK0	0.000	
23	   C	-2.645	-2.840	1.113	C.2	1	UNK0	0.000	
24	   C	-3.437	-3.694	0.380	C.2	1	UNK0	0.000	
25	   C	-4.684	-3.287	-0.057	C.2	1	UNK0	0.000	
26	   C	-5.099	-2.019	0.262	C.2	1	UNK0	0.000	
27	   C	-4.299	-1.175	0.995	C.2	1	UNK0	0.000	
28	   O	-5.497	-4.158	-0.808	O.3	1	UNK0	0.000	
29	   H	3.781	3.853	-3.478	 H	1	UNK0	0.000	
30	   H	3.054	1.669	-2.513	 H	1	UNK0	0.000	
31	   H	3.970	3.124	1.341	 H	1	UNK0	0.000	
32	   H	4.694	5.314	0.340	 H	1	UNK0	0.000	
33	   H	4.014	-2.231	0.641	 H	1	UNK0	0.000	
34	   H	0.941	-0.811	-0.658	 H	1	UNK0	0.000	
35	   H	-0.172	-1.737	2.738	 H	1	UNK0	0.000	
36	   H	-2.486	-0.579	3.295	 H	1	UNK0	0.000	
37	   H	-1.756	1.354	2.209	 H	1	UNK0	0.000	
38	   H	-1.442	0.701	-0.481	 H	1	UNK0	0.000	
39	   H	-1.658	-3.177	1.452	 H	1	UNK0	0.000	
40	   H	-3.097	-4.702	0.128	 H	1	UNK0	0.000	
41	   H	-6.065	-1.695	-0.069	 H	1	UNK0	0.000	
42	   H	-4.584	-0.159	1.277	 H	1	UNK0	0.000	
43	   H	-5.376	-4.111	-1.823	 H	1	UNK0	0.000	
@<TRIPOS>BOND
1 1 2 1
2 2 3 2
3 2 7 1
4 3 4 1
5 4 5 2
6 5 6 1
7 5 8 1
8 6 7 2
9 8 9 1
10 8 15 1
11 9 10 2
12 9 11 1
13 11 12 1
14 12 13 2
15 12 14 1
16 14 15 1
17 14 17 1
18 15 16 2
19 17 18 2
20 17 21 1
21 18 19 1
22 19 20 1
23 19 22 1
24 20 21 1
25 22 23 2
26 22 27 1
27 23 24 1
28 24 25 2
29 25 26 1
30 25 28 1
31 26 27 2
32 3 29 1
33 4 30 1
34 6 31 1
35 7 32 1
36 11 33 1
37 14 34 1
38 18 35 1
39 19 36 1
40 20 37 1
41 21 38 1
42 23 39 1
43 24 40 1
44 26 41 1
45 27 42 1
46 28 43 1
@<TRIPOS>SUBSTRUCTURE
1	UNK0	1	GROUP	1 ****	UNK
