# created with PyMOL 2.3.2
@<TRIPOS>MOLECULE
2362
52 55 1                 
SMALL
USER_CHARGES
@<TRIPOS>ATOM
1	  Cl	1.553	7.852	-0.907	Cl	1	UNK0	0.000	
2	   C	1.629	6.086	-0.894	C.2	1	UNK0	0.000	
3	   C	0.497	5.292	-0.744	C.2	1	UNK0	0.000	
4	   C	0.572	3.921	-0.718	C.2	1	UNK0	0.000	
5	   C	1.798	3.259	-0.837	C.2	1	UNK0	0.000	
6	   C	2.914	4.030	-0.981	C.2	1	UNK0	0.000	
7	   C	2.830	5.437	-1.012	C.2	1	UNK0	0.000	
8	   N	1.869	1.838	-0.811	N.pl3	1	UNK0	0.000	
9	   C	1.640	1.025	-1.841	C.2	1	UNK0	0.000	
10	   O	1.329	1.538	-2.980	O.2	1	UNK0	0.000	
11	   N	1.715	-0.309	-1.760	N.pl3	1	UNK0	0.000	
12	   C	2.035	-0.929	-0.622	C.2	1	UNK0	0.000	
13	   C	2.289	-0.108	0.483	C.2	1	UNK0	0.000	
14	   N	2.608	-0.923	1.492	N.pl3	1	UNK0	0.000	
15	   C	2.570	-2.215	1.093	C.2	1	UNK0	0.000	
16	   C	2.201	-2.225	-0.261	C.2	1	UNK0	0.000	
17	   C	1.919	-3.480	-1.038	C.2	1	UNK0	0.000	
18	   O	2.951	-4.051	-1.452	O.2	1	UNK0	0.000	
19	   N	0.587	-3.806	-1.162	N.pl3	1	UNK0	0.000	
20	   C	-0.738	-4.137	-1.290	C.3	1	UNK0	0.000	
21	   C	-1.541	-2.926	-0.816	C.3	1	UNK0	0.000	
22	   N	-2.926	-3.018	-0.806	N.3	1	UNK0	0.000	
23	   C	-3.598	-3.839	0.135	C.3	1	UNK0	0.000	
24	   C	-3.260	-3.375	1.553	C.3	1	UNK0	0.000	
25	   O	-3.570	-2.048	1.656	O.3	1	UNK0	0.000	
26	   C	-4.154	-1.432	0.604	C.3	1	UNK0	0.000	
27	   C	-3.487	-1.679	-0.732	C.3	1	UNK0	0.000	
28	   C	2.944	-0.497	2.842	C.3	1	UNK0	0.000	
29	   C	2.201	1.262	0.377	C.2	1	UNK0	0.000	
30	   O	2.423	2.029	1.348	O.2	1	UNK0	0.000	
31	   H	-0.451	5.786	-0.643	 H	1	UNK0	0.000	
32	   H	-0.309	3.273	-0.617	 H	1	UNK0	0.000	
33	   H	3.884	3.581	-1.092	 H	1	UNK0	0.000	
34	   H	3.730	6.009	-1.127	 H	1	UNK0	0.000	
35	   H	1.504	-0.924	-2.590	 H	1	UNK0	0.000	
36	   H	2.798	-3.091	1.691	 H	1	UNK0	0.000	
37	   H	0.987	-5.041	-1.628	 H	1	UNK0	0.000	
38	   H	-1.009	-4.402	-2.342	 H	1	UNK0	0.000	
39	   H	-1.018	-4.985	-0.592	 H	1	UNK0	0.000	
40	   H	-1.108	-2.597	0.132	 H	1	UNK0	0.000	
41	   H	-1.272	-2.135	-1.602	 H	1	UNK0	0.000	
42	   H	-3.572	-4.912	0.019	 H	1	UNK0	0.000	
43	   H	-4.706	-3.576	0.035	 H	1	UNK0	0.000	
44	   H	-2.189	-3.532	1.742	 H	1	UNK0	0.000	
45	   H	-3.920	-3.945	2.275	 H	1	UNK0	0.000	
46	   H	-5.259	-1.566	0.503	 H	1	UNK0	0.000	
47	   H	-4.067	-0.302	0.762	 H	1	UNK0	0.000	
48	   H	-2.766	-0.882	-0.942	 H	1	UNK0	0.000	
49	   H	-4.280	-1.624	-1.486	 H	1	UNK0	0.000	
50	   H	1.975	-0.393	3.396	 H	1	UNK0	0.000	
51	   H	3.574	-1.235	3.339	 H	1	UNK0	0.000	
52	   H	3.458	0.476	2.773	 H	1	UNK0	0.000	
@<TRIPOS>BOND
1 1 2 1
2 2 3 2
3 2 7 1
4 3 4 1
5 4 5 2
6 5 6 1
7 5 8 1
8 6 7 2
9 8 9 1
10 8 29 1
11 9 10 2
12 9 11 1
13 11 12 1
14 12 13 2
15 12 16 1
16 13 14 1
17 13 29 1
18 14 15 1
19 14 28 1
20 15 16 2
21 16 17 1
22 17 18 2
23 17 19 1
24 19 20 1
25 20 21 1
26 21 22 1
27 22 23 1
28 22 27 1
29 23 24 1
30 24 25 1
31 25 26 1
32 26 27 1
33 29 30 2
34 3 31 1
35 4 32 1
36 6 33 1
37 7 34 1
38 11 35 1
39 15 36 1
40 19 37 1
41 20 38 1
42 20 39 1
43 21 40 1
44 21 41 1
45 23 42 1
46 23 43 1
47 24 44 1
48 24 45 1
49 26 46 1
50 26 47 1
51 27 48 1
52 27 49 1
53 28 50 1
54 28 51 1
55 28 52 1
@<TRIPOS>SUBSTRUCTURE
1	UNK0	1	GROUP	1 ****	UNK
