# created with PyMOL 2.3.2
@<TRIPOS>MOLECULE
2371
49 52 1                 
SMALL
USER_CHARGES
@<TRIPOS>ATOM
1	  Cl	3.965	-5.174	-2.120	Cl	1	UNK0	0.000	
2	   C	3.310	-3.893	-1.129	C.2	1	UNK0	0.000	
3	   C	1.994	-3.451	-1.330	C.2	1	UNK0	0.000	
4	   C	1.423	-2.452	-0.589	C.2	1	UNK0	0.000	
5	   C	2.213	-1.873	0.401	C.2	1	UNK0	0.000	
6	   C	3.507	-2.276	0.632	C.2	1	UNK0	0.000	
7	   C	4.043	-3.286	-0.139	C.2	1	UNK0	0.000	
8	   C	0.051	-2.239	-1.050	C.3	1	UNK0	0.000	
9	   N	-0.936	-2.495	-0.015	N.3	1	UNK0	0.000	
10	   C	-1.315	-1.230	0.538	C.3	1	UNK0	0.000	
11	   C	-1.200	-0.287	-0.604	C.3	1	UNK0	0.000	
12	   C	-0.171	-0.814	-1.515	C.3	1	UNK0	0.000	
13	   C	1.016	0.028	-1.348	C.2	1	UNK0	0.000	
14	   O	2.154	-0.287	-1.842	O.2	1	UNK0	0.000	
15	   N	0.672	1.164	-0.592	N.pl3	1	UNK0	0.000	
16	   C	-0.649	1.000	-0.105	C.2	1	UNK0	0.000	
17	   O	-1.327	1.766	0.635	O.2	1	UNK0	0.000	
18	   C	1.513	2.296	-0.356	C.3	1	UNK0	0.000	
19	   C	0.830	3.351	0.503	C.3	1	UNK0	0.000	
20	   C	1.806	2.955	-1.710	C.3	1	UNK0	0.000	
21	   C	2.830	1.976	0.268	C.3	1	UNK0	0.000	
22	   C	-2.664	-1.250	1.194	C.3	1	UNK0	0.000	
23	   O	-2.965	0.009	1.707	O.3	1	UNK0	0.000	
24	   C	-3.771	-1.710	0.293	C.3	1	UNK0	0.000	
25	   C	-0.148	-3.203	-2.141	C.2	1	UNK0	0.000	
26	   O	-1.203	-3.376	-2.845	O.2	1	UNK0	0.000	
27	   N	1.047	-3.932	-2.297	N.pl3	1	UNK0	0.000	
28	   H	1.770	-1.080	0.993	 H	1	UNK0	0.000	
29	   H	4.138	-1.846	1.388	 H	1	UNK0	0.000	
30	   H	5.063	-3.645	-0.000	 H	1	UNK0	0.000	
31	   H	-1.775	-3.011	-0.416	 H	1	UNK0	0.000	
32	   H	-0.589	-0.935	1.329	 H	1	UNK0	0.000	
33	   H	-2.171	-0.047	-1.087	 H	1	UNK0	0.000	
34	   H	-0.499	-0.889	-2.579	 H	1	UNK0	0.000	
35	   H	-0.130	3.667	0.000	 H	1	UNK0	0.000	
36	   H	1.434	4.281	0.547	 H	1	UNK0	0.000	
37	   H	0.654	3.021	1.530	 H	1	UNK0	0.000	
38	   H	2.634	3.647	-1.551	 H	1	UNK0	0.000	
39	   H	1.980	2.178	-2.473	 H	1	UNK0	0.000	
40	   H	0.874	3.520	-1.985	 H	1	UNK0	0.000	
41	   H	2.720	1.866	1.369	 H	1	UNK0	0.000	
42	   H	3.485	2.887	0.136	 H	1	UNK0	0.000	
43	   H	3.375	1.152	-0.203	 H	1	UNK0	0.000	
44	   H	-2.611	-1.948	2.056	 H	1	UNK0	0.000	
45	   H	-3.664	0.407	1.151	 H	1	UNK0	0.000	
46	   H	-3.642	-1.426	-0.764	 H	1	UNK0	0.000	
47	   H	-3.961	-2.814	0.381	 H	1	UNK0	0.000	
48	   H	-4.708	-1.220	0.638	 H	1	UNK0	0.000	
49	   H	1.191	-4.698	-3.011	 H	1	UNK0	0.000	
@<TRIPOS>BOND
1 1 2 1
2 2 3 2
3 2 7 1
4 3 4 1
5 3 27 1
6 4 5 2
7 4 8 1
8 5 6 1
9 6 7 2
10 8 9 1
11 8 12 1
12 8 25 1
13 9 10 1
14 10 11 1
15 10 22 1
16 11 12 1
17 11 16 1
18 12 13 1
19 13 14 2
20 13 15 1
21 15 16 1
22 15 18 1
23 16 17 2
24 18 19 1
25 18 20 1
26 18 21 1
27 22 23 1
28 22 24 1
29 25 26 2
30 25 27 1
31 5 28 1
32 6 29 1
33 7 30 1
34 9 31 1
35 10 32 1
36 11 33 1
37 12 34 1
38 19 35 1
39 19 36 1
40 19 37 1
41 20 38 1
42 20 39 1
43 20 40 1
44 21 41 1
45 21 42 1
46 21 43 1
47 22 44 1
48 23 45 1
49 24 46 1
50 24 47 1
51 24 48 1
52 27 49 1
@<TRIPOS>SUBSTRUCTURE
1	UNK0	1	GROUP	1 ****	UNK
