# created with PyMOL 2.3.2
@<TRIPOS>MOLECULE
2372
42 45 1                 
SMALL
USER_CHARGES
@<TRIPOS>ATOM
1	   S	1.779	-2.269	0.669	S.O2	1	UNK0	0.000	
2	   O	3.075	-1.722	0.067	O.2	1	UNK0	0.000	
3	   O	2.046	-3.782	0.723	O.2	1	UNK0	0.000	
4	   N	1.534	-1.763	2.252	N.3	1	UNK0	0.000	
5	   C	2.428	-0.650	2.622	C.3	1	UNK0	0.000	
6	   C	2.041	0.512	1.781	C.3	1	UNK0	0.000	
7	   C	0.617	0.945	1.985	C.3	1	UNK0	0.000	
8	   O	0.573	1.773	3.085	O.3	1	UNK0	0.000	
9	   C	-0.072	2.935	2.729	C.3	1	UNK0	0.000	
10	   C	-0.634	2.668	1.334	C.3	1	UNK0	0.000	
11	   O	0.270	1.716	0.871	O.3	1	UNK0	0.000	
12	   C	-0.353	-0.192	2.097	C.3	1	UNK0	0.000	
13	   C	0.233	-1.434	2.690	C.3	1	UNK0	0.000	
14	   C	0.479	-2.067	-0.449	C.2	1	UNK0	0.000	
15	   C	0.533	-1.021	-1.380	C.2	1	UNK0	0.000	
16	   C	-0.541	-0.854	-2.217	C.2	1	UNK0	0.000	
17	   C	-1.664	-1.645	-2.200	C.2	1	UNK0	0.000	
18	   C	-1.716	-2.665	-1.293	C.2	1	UNK0	0.000	
19	   C	-0.640	-2.865	-0.426	C.2	1	UNK0	0.000	
20	  Cl	-0.781	-4.264	0.649	Cl	1	UNK0	0.000	
21	   N	-2.725	-1.393	-3.102	N.pl3	1	UNK0	0.000	
22	   C	-2.617	-0.319	-4.023	C.2	1	UNK0	0.000	
23	   O	-3.244	-0.306	-5.123	O.2	1	UNK0	0.000	
24	   C	-1.712	0.808	-3.617	C.3	1	UNK0	0.000	
25	   O	-0.512	0.190	-3.162	O.3	1	UNK0	0.000	
26	   H	3.479	-0.909	2.523	 H	1	UNK0	0.000	
27	   H	2.155	-0.410	3.682	 H	1	UNK0	0.000	
28	   H	2.214	0.309	0.725	 H	1	UNK0	0.000	
29	   H	2.676	1.425	2.001	 H	1	UNK0	0.000	
30	   H	-0.857	3.240	3.435	 H	1	UNK0	0.000	
31	   H	0.621	3.796	2.616	 H	1	UNK0	0.000	
32	   H	-1.657	2.270	1.413	 H	1	UNK0	0.000	
33	   H	-0.593	3.559	0.691	 H	1	UNK0	0.000	
34	   H	-1.186	0.137	2.754	 H	1	UNK0	0.000	
35	   H	-0.810	-0.427	1.116	 H	1	UNK0	0.000	
36	   H	-0.444	-2.280	2.631	 H	1	UNK0	0.000	
37	   H	0.335	-1.260	3.820	 H	1	UNK0	0.000	
38	   H	1.410	-0.369	-1.427	 H	1	UNK0	0.000	
39	   H	-2.586	-3.290	-1.267	 H	1	UNK0	0.000	
40	   H	-3.607	-1.984	-3.116	 H	1	UNK0	0.000	
41	   H	-2.178	1.310	-2.747	 H	1	UNK0	0.000	
42	   H	-1.480	1.470	-4.450	 H	1	UNK0	0.000	
@<TRIPOS>BOND
1 1 2 2
2 1 3 2
3 1 4 1
4 1 14 1
5 4 5 1
6 4 13 1
7 5 6 1
8 6 7 1
9 7 8 1
10 7 11 1
11 7 12 1
12 8 9 1
13 9 10 1
14 10 11 1
15 12 13 1
16 14 15 2
17 14 19 1
18 15 16 1
19 16 17 2
20 16 25 1
21 17 18 1
22 17 21 1
23 18 19 2
24 19 20 1
25 21 22 1
26 22 23 2
27 22 24 1
28 24 25 1
29 5 26 1
30 5 27 1
31 6 28 1
32 6 29 1
33 9 30 1
34 9 31 1
35 10 32 1
36 10 33 1
37 12 34 1
38 12 35 1
39 13 36 1
40 13 37 1
41 15 38 1
42 18 39 1
43 21 40 1
44 24 41 1
45 24 42 1
@<TRIPOS>SUBSTRUCTURE
1	UNK0	1	GROUP	1 ****	UNK
