# created with PyMOL 2.3.2
@<TRIPOS>MOLECULE
2374
48 51 1                 
SMALL
USER_CHARGES
@<TRIPOS>ATOM
1	  Cl	-1.420	2.209	7.188	Cl	1	UNK0	0.000	
2	   C	-0.946	2.053	5.508	C.2	1	UNK0	0.000	
3	   C	-1.895	2.306	4.558	C.2	1	UNK0	0.000	
4	   C	-1.584	2.201	3.236	C.2	1	UNK0	0.000	
5	   C	-0.331	1.843	2.794	C.2	1	UNK0	0.000	
6	   C	0.620	1.590	3.789	C.2	1	UNK0	0.000	
7	   C	0.317	1.693	5.117	C.2	1	UNK0	0.000	
8	   N	0.043	1.710	1.421	N.pl3	1	UNK0	0.000	
9	   C	-0.421	2.547	0.317	C.2	1	UNK0	0.000	
10	   O	-0.726	3.752	0.394	O.2	1	UNK0	0.000	
11	   C	-0.419	1.641	-0.786	C.3	1	UNK0	0.000	
12	   C	-0.219	2.032	-2.180	C.3	1	UNK0	0.000	
13	   N	0.474	0.872	-2.751	N.3	1	UNK0	0.000	
14	   C	0.821	-0.033	-1.601	C.3	1	UNK0	0.000	
15	   C	0.882	0.897	-0.545	C.3	1	UNK0	0.000	
16	   C	0.944	0.760	0.854	C.2	1	UNK0	0.000	
17	   O	1.629	-0.013	1.550	O.2	1	UNK0	0.000	
18	   C	0.040	-1.228	-1.778	C.3	1	UNK0	0.000	
19	   C	0.100	-2.384	-0.841	C.3	1	UNK0	0.000	
20	   C	-0.822	-3.522	-1.422	C.3	1	UNK0	0.000	
21	   C	-0.597	-2.057	0.466	C.3	1	UNK0	0.000	
22	   C	0.605	3.199	-2.465	C.2	1	UNK0	0.000	
23	   O	1.839	3.252	-2.261	O.2	1	UNK0	0.000	
24	   N	0.041	4.394	-3.014	N.pl3	1	UNK0	0.000	
25	   C	-1.300	4.455	-3.460	C.2	1	UNK0	0.000	
26	   O	-1.774	5.542	-3.949	O.2	1	UNK0	0.000	
27	   N	-2.108	3.299	-3.358	N.pl3	1	UNK0	0.000	
28	   C	-1.561	2.119	-2.816	C.2	1	UNK0	0.000	
29	   O	-2.269	1.091	-2.886	O.2	1	UNK0	0.000	
30	   H	-2.904	2.597	4.820	 H	1	UNK0	0.000	
31	   H	-2.312	2.396	2.447	 H	1	UNK0	0.000	
32	   H	1.608	1.308	3.476	 H	1	UNK0	0.000	
33	   H	1.046	1.501	5.900	 H	1	UNK0	0.000	
34	   H	-1.283	0.959	-0.704	 H	1	UNK0	0.000	
35	   H	-0.073	0.377	-3.457	 H	1	UNK0	0.000	
36	   H	1.907	-0.313	-1.904	 H	1	UNK0	0.000	
37	   H	1.744	1.631	-0.801	 H	1	UNK0	0.000	
38	   H	0.372	-1.679	-2.789	 H	1	UNK0	0.000	
39	   H	-1.057	-1.057	-2.005	 H	1	UNK0	0.000	
40	   H	1.072	-2.875	-0.727	 H	1	UNK0	0.000	
41	   H	-0.216	-4.058	-2.185	 H	1	UNK0	0.000	
42	   H	-0.990	-4.212	-0.583	 H	1	UNK0	0.000	
43	   H	-1.750	-3.085	-1.811	 H	1	UNK0	0.000	
44	   H	0.037	-2.101	1.347	 H	1	UNK0	0.000	
45	   H	-1.127	-1.092	0.434	 H	1	UNK0	0.000	
46	   H	-1.445	-2.796	0.680	 H	1	UNK0	0.000	
47	   H	0.605	5.283	-3.112	 H	1	UNK0	0.000	
48	   H	-3.114	3.350	-3.696	 H	1	UNK0	0.000	
@<TRIPOS>BOND
1 1 2 1
2 2 3 2
3 2 7 1
4 3 4 1
5 4 5 2
6 5 6 1
7 5 8 1
8 6 7 2
9 8 9 1
10 8 16 1
11 9 10 2
12 9 11 1
13 11 12 1
14 11 15 1
15 12 13 1
16 12 22 1
17 12 28 1
18 13 14 1
19 14 15 1
20 14 18 1
21 15 16 1
22 16 17 2
23 18 19 1
24 19 20 1
25 19 21 1
26 22 23 2
27 22 24 1
28 24 25 1
29 25 26 2
30 25 27 1
31 27 28 1
32 28 29 2
33 3 30 1
34 4 31 1
35 6 32 1
36 7 33 1
37 11 34 1
38 13 35 1
39 14 36 1
40 15 37 1
41 18 38 1
42 18 39 1
43 19 40 1
44 20 41 1
45 20 42 1
46 20 43 1
47 21 44 1
48 21 45 1
49 21 46 1
50 24 47 1
51 27 48 1
@<TRIPOS>SUBSTRUCTURE
1	UNK0	1	GROUP	1 ****	UNK
