# created with PyMOL 2.3.2
@<TRIPOS>MOLECULE
2376
55 58 1                 
SMALL
USER_CHARGES
@<TRIPOS>ATOM
1	  Cl	2.427	-3.228	1.044	Cl	1	UNK0	0.000	
2	   C	0.891	-3.404	0.229	C.2	1	UNK0	0.000	
3	   C	-0.025	-2.375	0.291	C.2	1	UNK0	0.000	
4	   C	-1.221	-2.608	-0.374	C.2	1	UNK0	0.000	
5	   N	-1.461	-3.771	-1.036	N.2	1	UNK0	0.000	
6	   N	-0.591	-4.763	-1.103	N.pl3	1	UNK0	0.000	
7	   C	0.576	-4.569	-0.470	C.2	1	UNK0	0.000	
8	   O	1.433	-5.492	-0.510	O.2	1	UNK0	0.000	
9	   C	-0.880	-5.972	-1.808	C.2	1	UNK0	0.000	
10	   C	-1.306	-7.062	-1.082	C.2	1	UNK0	0.000	
11	   C	-1.609	-8.281	-1.693	C.2	1	UNK0	0.000	
12	   C	-1.475	-8.389	-3.059	C.2	1	UNK0	0.000	
13	   C	-1.050	-7.318	-3.820	C.2	1	UNK0	0.000	
14	   C	-0.760	-6.123	-3.169	C.2	1	UNK0	0.000	
15	   N	0.225	-1.135	0.960	N.pl3	1	UNK0	0.000	
16	   C	-0.918	-0.314	1.304	C.3	1	UNK0	0.000	
17	   C	-0.868	0.998	0.525	C.3	1	UNK0	0.000	
18	   N	0.525	1.459	0.514	N.pl3	1	UNK0	0.000	
19	   C	1.482	0.881	1.410	C.3	1	UNK0	0.000	
20	   C	1.535	-0.633	1.286	C.3	1	UNK0	0.000	
21	   C	0.896	2.468	-0.400	C.2	1	UNK0	0.000	
22	   O	-0.029	2.903	-1.185	O.2	1	UNK0	0.000	
23	   C	2.235	3.042	-0.516	C.3	1	UNK0	0.000	
24	   C	2.350	4.344	-1.209	C.3	1	UNK0	0.000	
25	   C	1.735	5.533	-0.598	C.3	1	UNK0	0.000	
26	   N	0.344	5.576	-0.343	N.pl3	1	UNK0	0.000	
27	   C	-0.690	6.017	-1.248	C.2	1	UNK0	0.000	
28	   O	-0.520	6.403	-2.434	O.2	1	UNK0	0.000	
29	   N	-1.955	5.961	-0.620	N.pl3	1	UNK0	0.000	
30	   C	-1.741	5.738	0.797	C.3	1	UNK0	0.000	
31	   C	-0.329	5.246	0.865	C.2	1	UNK0	0.000	
32	   O	0.124	4.645	1.863	O.2	1	UNK0	0.000	
33	   H	-1.966	-1.822	-0.360	 H	1	UNK0	0.000	
34	   H	-1.418	-6.996	-0.007	 H	1	UNK0	0.000	
35	   H	-1.942	-9.119	-1.086	 H	1	UNK0	0.000	
36	   H	-1.696	-9.309	-3.580	 H	1	UNK0	0.000	
37	   H	-0.947	-7.414	-4.899	 H	1	UNK0	0.000	
38	   H	-0.426	-5.272	-3.744	 H	1	UNK0	0.000	
39	   H	-0.743	-0.002	2.385	 H	1	UNK0	0.000	
40	   H	-1.885	-0.786	1.272	 H	1	UNK0	0.000	
41	   H	-1.287	0.887	-0.482	 H	1	UNK0	0.000	
42	   H	-1.449	1.760	1.065	 H	1	UNK0	0.000	
43	   H	1.193	1.115	2.470	 H	1	UNK0	0.000	
44	   H	2.500	1.268	1.283	 H	1	UNK0	0.000	
45	   H	1.908	-1.072	2.234	 H	1	UNK0	0.000	
46	   H	2.272	-0.818	0.470	 H	1	UNK0	0.000	
47	   H	2.706	3.055	0.498	 H	1	UNK0	0.000	
48	   H	2.857	2.299	-1.087	 H	1	UNK0	0.000	
49	   H	3.465	4.551	-1.309	 H	1	UNK0	0.000	
50	   H	1.995	4.169	-2.274	 H	1	UNK0	0.000	
51	   H	1.966	6.426	-1.278	 H	1	UNK0	0.000	
52	   H	2.325	5.802	0.333	 H	1	UNK0	0.000	
53	   H	-2.916	6.053	-1.030	 H	1	UNK0	0.000	
54	   H	-2.437	5.015	1.241	 H	1	UNK0	0.000	
55	   H	-1.799	6.695	1.381	 H	1	UNK0	0.000	
@<TRIPOS>BOND
1 1 2 1
2 2 3 2
3 2 7 1
4 3 4 1
5 3 15 1
6 4 5 2
7 5 6 1
8 6 7 1
9 6 9 1
10 7 8 2
11 9 10 2
12 9 14 1
13 10 11 1
14 11 12 2
15 12 13 1
16 13 14 2
17 15 16 1
18 15 20 1
19 16 17 1
20 17 18 1
21 18 19 1
22 18 21 1
23 19 20 1
24 21 22 2
25 21 23 1
26 23 24 1
27 24 25 1
28 25 26 1
29 26 27 1
30 26 31 1
31 27 28 2
32 27 29 1
33 29 30 1
34 30 31 1
35 31 32 2
36 4 33 1
37 10 34 1
38 11 35 1
39 12 36 1
40 13 37 1
41 14 38 1
42 16 39 1
43 16 40 1
44 17 41 1
45 17 42 1
46 19 43 1
47 19 44 1
48 20 45 1
49 20 46 1
50 23 47 1
51 23 48 1
52 24 49 1
53 24 50 1
54 25 51 1
55 25 52 1
56 29 53 1
57 30 54 1
58 30 55 1
@<TRIPOS>SUBSTRUCTURE
1	UNK0	1	GROUP	1 ****	UNK
