# created with PyMOL 2.3.2
@<TRIPOS>MOLECULE
2377
58 61 1                 
SMALL
USER_CHARGES
@<TRIPOS>ATOM
1	  Cl	-3.546	-1.116	3.347	Cl	1	UNK0	0.000	
2	   C	-1.929	-1.466	2.790	C.2	1	UNK0	0.000	
3	   C	-1.099	-0.404	2.502	C.2	1	UNK0	0.000	
4	   C	0.185	-0.776	2.079	C.2	1	UNK0	0.000	
5	   N	0.544	-2.069	1.974	N.2	1	UNK0	0.000	
6	   N	-0.243	-3.088	2.247	N.pl3	1	UNK0	0.000	
7	   C	-1.481	-2.783	2.655	C.2	1	UNK0	0.000	
8	   O	-2.295	-3.698	2.936	O.2	1	UNK0	0.000	
9	   C	0.220	-4.428	2.108	C.2	1	UNK0	0.000	
10	   C	0.680	-4.927	0.899	C.2	1	UNK0	0.000	
11	   C	1.132	-6.222	0.747	C.2	1	UNK0	0.000	
12	   C	1.122	-7.049	1.851	C.2	1	UNK0	0.000	
13	   C	0.669	-6.584	3.072	C.2	1	UNK0	0.000	
14	   C	0.217	-5.265	3.194	C.2	1	UNK0	0.000	
15	   N	-1.496	0.944	2.583	N.pl3	1	UNK0	0.000	
16	   C	-0.496	1.993	2.756	C.3	1	UNK0	0.000	
17	   C	-0.546	3.014	1.642	C.3	1	UNK0	0.000	
18	   N	-1.824	2.890	0.984	N.pl3	1	UNK0	0.000	
19	   C	-2.974	2.750	1.859	C.3	1	UNK0	0.000	
20	   C	-2.904	1.346	2.458	C.3	1	UNK0	0.000	
21	   C	-2.000	2.899	-0.415	C.2	1	UNK0	0.000	
22	   O	-3.154	2.785	-0.883	O.2	1	UNK0	0.000	
23	   C	-0.880	3.038	-1.377	C.3	1	UNK0	0.000	
24	   C	-1.388	3.011	-2.800	C.3	1	UNK0	0.000	
25	   C	-0.285	3.155	-3.806	C.3	1	UNK0	0.000	
26	   N	0.718	2.116	-3.730	N.pl3	1	UNK0	0.000	
27	   C	1.900	2.151	-2.951	C.2	1	UNK0	0.000	
28	   O	2.279	3.103	-2.189	O.2	1	UNK0	0.000	
29	   N	2.654	0.969	-3.108	N.pl3	1	UNK0	0.000	
30	   C	1.959	0.109	-4.040	C.3	1	UNK0	0.000	
31	   C	0.734	0.854	-4.406	C.2	1	UNK0	0.000	
32	   O	-0.157	0.454	-5.185	O.2	1	UNK0	0.000	
33	   C	3.909	0.655	-2.456	C.3	1	UNK0	0.000	
34	   H	0.853	0.029	1.836	 H	1	UNK0	0.000	
35	   H	0.681	-4.265	0.043	 H	1	UNK0	0.000	
36	   H	1.493	-6.598	-0.221	 H	1	UNK0	0.000	
37	   H	1.478	-8.062	1.724	 H	1	UNK0	0.000	
38	   H	0.678	-7.260	3.910	 H	1	UNK0	0.000	
39	   H	-0.139	-4.888	4.143	 H	1	UNK0	0.000	
40	   H	-0.804	2.496	3.732	 H	1	UNK0	0.000	
41	   H	0.538	1.644	2.814	 H	1	UNK0	0.000	
42	   H	0.277	2.866	0.915	 H	1	UNK0	0.000	
43	   H	-0.420	4.036	2.101	 H	1	UNK0	0.000	
44	   H	-2.874	3.480	2.687	 H	1	UNK0	0.000	
45	   H	-3.934	2.930	1.341	 H	1	UNK0	0.000	
46	   H	-3.349	0.709	1.682	 H	1	UNK0	0.000	
47	   H	-3.342	1.362	3.438	 H	1	UNK0	0.000	
48	   H	-0.328	3.987	-1.220	 H	1	UNK0	0.000	
49	   H	-0.125	2.227	-1.230	 H	1	UNK0	0.000	
50	   H	-2.102	3.837	-2.971	 H	1	UNK0	0.000	
51	   H	-1.946	2.062	-2.993	 H	1	UNK0	0.000	
52	   H	0.232	4.143	-3.681	 H	1	UNK0	0.000	
53	   H	-0.656	3.152	-4.851	 H	1	UNK0	0.000	
54	   H	1.693	-0.874	-3.567	 H	1	UNK0	0.000	
55	   H	2.567	-0.142	-4.930	 H	1	UNK0	0.000	
56	   H	3.684	0.306	-1.421	 H	1	UNK0	0.000	
57	   H	4.486	1.613	-2.313	 H	1	UNK0	0.000	
58	   H	4.476	-0.089	-3.032	 H	1	UNK0	0.000	
@<TRIPOS>BOND
1 1 2 1
2 2 3 2
3 2 7 1
4 3 4 1
5 3 15 1
6 4 5 2
7 5 6 1
8 6 7 1
9 6 9 1
10 7 8 2
11 9 10 2
12 9 14 1
13 10 11 1
14 11 12 2
15 12 13 1
16 13 14 2
17 15 16 1
18 15 20 1
19 16 17 1
20 17 18 1
21 18 19 1
22 18 21 1
23 19 20 1
24 21 22 2
25 21 23 1
26 23 24 1
27 24 25 1
28 25 26 1
29 26 27 1
30 26 31 1
31 27 28 2
32 27 29 1
33 29 30 1
34 29 33 1
35 30 31 1
36 31 32 2
37 4 34 1
38 10 35 1
39 11 36 1
40 12 37 1
41 13 38 1
42 14 39 1
43 16 40 1
44 16 41 1
45 17 42 1
46 17 43 1
47 19 44 1
48 19 45 1
49 20 46 1
50 20 47 1
51 23 48 1
52 23 49 1
53 24 50 1
54 24 51 1
55 25 52 1
56 25 53 1
57 30 54 1
58 30 55 1
59 33 56 1
60 33 57 1
61 33 58 1
@<TRIPOS>SUBSTRUCTURE
1	UNK0	1	GROUP	1 ****	UNK
