# created with PyMOL 2.3.2
@<TRIPOS>MOLECULE
2378
40 43 1                 
SMALL
USER_CHARGES
@<TRIPOS>ATOM
1	  Cl	1.960	1.667	-0.852	Cl	1	UNK0	0.000	
2	   C	2.732	0.670	0.374	C.2	1	UNK0	0.000	
3	   C	2.227	-0.575	0.739	C.2	1	UNK0	0.000	
4	   C	2.851	-1.341	1.704	C.2	1	UNK0	0.000	
5	   N	2.133	-2.452	1.817	N.pl3	1	UNK0	0.000	
6	   C	1.067	-2.436	0.960	C.2	1	UNK0	0.000	
7	   C	1.100	-1.264	0.270	C.2	1	UNK0	0.000	
8	   C	0.256	-0.708	-0.776	C.2	1	UNK0	0.000	
9	   C	-0.987	-0.294	-0.607	C.2	1	UNK0	0.000	
10	   C	-1.765	-0.297	0.624	C.3	1	UNK0	0.000	
11	   C	-3.014	0.487	0.321	C.3	1	UNK0	0.000	
12	   N	-2.842	1.096	-0.967	N.pl3	1	UNK0	0.000	
13	   C	-1.882	0.282	-1.636	C.2	1	UNK0	0.000	
14	   O	-1.816	0.094	-2.879	O.2	1	UNK0	0.000	
15	   C	-3.489	2.266	-1.481	C.2	1	UNK0	0.000	
16	   C	-3.131	2.822	-2.684	C.2	1	UNK0	0.000	
17	   C	-3.739	3.952	-3.205	C.2	1	UNK0	0.000	
18	   C	-4.760	4.571	-2.501	C.2	1	UNK0	0.000	
19	   C	-5.122	4.017	-1.293	C.2	1	UNK0	0.000	
20	   C	-4.503	2.879	-0.778	C.2	1	UNK0	0.000	
21	   C	0.088	-3.479	0.775	C.2	1	UNK0	0.000	
22	   O	0.207	-4.535	1.486	O.co2	1	UNK0	0.000	
23	   O	-0.966	-3.445	-0.103	O.co2	1	UNK0	0.000	
24	   C	4.004	-0.855	2.321	C.2	1	UNK0	0.000	
25	   C	4.493	0.375	1.953	C.2	1	UNK0	0.000	
26	   C	3.885	1.147	0.995	C.2	1	UNK0	0.000	
27	  Cl	5.960	0.949	2.760	Cl	1	UNK0	0.000	
28	   H	2.349	-3.241	2.468	 H	1	UNK0	0.000	
29	   H	0.643	-0.608	-1.806	 H	1	UNK0	0.000	
30	   H	-1.198	0.173	1.479	 H	1	UNK0	0.000	
31	   H	-2.101	-1.312	0.897	 H	1	UNK0	0.000	
32	   H	-3.870	-0.240	0.200	 H	1	UNK0	0.000	
33	   H	-3.249	1.226	1.119	 H	1	UNK0	0.000	
34	   H	-2.338	2.343	-3.237	 H	1	UNK0	0.000	
35	   H	-3.455	4.386	-4.153	 H	1	UNK0	0.000	
36	   H	-5.244	5.454	-2.897	 H	1	UNK0	0.000	
37	   H	-5.920	4.506	-0.753	 H	1	UNK0	0.000	
38	   H	-4.820	2.490	0.164	 H	1	UNK0	0.000	
39	   H	4.483	-1.442	3.064	 H	1	UNK0	0.000	
40	   H	4.284	2.112	0.717	 H	1	UNK0	0.000	
@<TRIPOS>BOND
1 1 2 1
2 2 3 2
3 2 26 1
4 3 4 1
5 3 7 1
6 4 5 1
7 4 24 2
8 5 6 1
9 6 7 2
10 6 21 1
11 7 8 1
12 8 9 2
13 9 10 1
14 9 13 1
15 10 11 1
16 11 12 1
17 12 13 1
18 12 15 1
19 13 14 2
20 15 16 2
21 15 20 1
22 16 17 1
23 17 18 2
24 18 19 1
25 19 20 2
26 21 22 2
27 21 23 1
28 24 25 1
29 25 26 2
30 25 27 1
31 5 28 1
32 8 29 1
33 10 30 1
34 10 31 1
35 11 32 1
36 11 33 1
37 16 34 1
38 17 35 1
39 18 36 1
40 19 37 1
41 20 38 1
42 24 39 1
43 26 40 1
@<TRIPOS>SUBSTRUCTURE
1	UNK0	1	GROUP	1 ****	UNK
