# created with PyMOL 2.3.2
@<TRIPOS>MOLECULE
2379
52 56 1                 
SMALL
USER_CHARGES
@<TRIPOS>ATOM
1	  Cl	-2.769	1.529	-1.095	Cl	1	UNK0	0.000	
2	   C	-2.574	-0.144	-0.672	C.2	1	UNK0	0.000	
3	   C	-1.406	-0.792	-1.087	C.2	1	UNK0	0.000	
4	   C	-1.345	-2.127	-0.721	C.2	1	UNK0	0.000	
5	   N	-2.337	-2.725	-0.026	N.2	1	UNK0	0.000	
6	   N	-3.437	-2.112	0.364	N.pl3	1	UNK0	0.000	
7	   C	-3.550	-0.816	0.037	C.2	1	UNK0	0.000	
8	   O	-4.584	-0.200	0.393	O.2	1	UNK0	0.000	
9	   C	-4.470	-2.777	1.100	C.2	1	UNK0	0.000	
10	   C	-5.591	-3.246	0.450	C.2	1	UNK0	0.000	
11	   C	-6.600	-3.892	1.145	C.2	1	UNK0	0.000	
12	   C	-6.515	-4.086	2.507	C.2	1	UNK0	0.000	
13	   C	-5.399	-3.622	3.168	C.2	1	UNK0	0.000	
14	   C	-4.401	-2.980	2.463	C.2	1	UNK0	0.000	
15	   N	-0.380	-0.157	-1.776	N.pl3	1	UNK0	0.000	
16	   C	0.607	-0.911	-2.514	C.3	1	UNK0	0.000	
17	   C	1.952	-0.729	-1.795	C.3	1	UNK0	0.000	
18	   N	1.974	0.649	-1.214	N.pl3	1	UNK0	0.000	
19	   C	1.304	1.592	-2.050	C.3	1	UNK0	0.000	
20	   C	-0.200	1.301	-1.792	C.3	1	UNK0	0.000	
21	   C	2.639	0.816	-0.026	C.2	1	UNK0	0.000	
22	   O	3.236	-0.295	0.393	O.2	1	UNK0	0.000	
23	   C	2.822	1.942	0.854	C.2	1	UNK0	0.000	
24	   C	3.754	1.885	1.907	C.2	1	UNK0	0.000	
25	   C	3.921	2.917	2.799	C.2	1	UNK0	0.000	
26	   C	3.181	4.058	2.703	C.2	1	UNK0	0.000	
27	   C	2.263	4.144	1.687	C.2	1	UNK0	0.000	
28	   C	2.099	3.089	0.783	C.2	1	UNK0	0.000	
29	   N	3.347	5.141	3.628	N.pl3	1	UNK0	0.000	
30	   N	4.272	6.057	3.585	N.2	1	UNK0	0.000	
31	   N	4.135	6.914	4.598	N.2	1	UNK0	0.000	
32	   N	3.083	6.519	5.301	N.2	1	UNK0	0.000	
33	   C	2.585	5.405	4.694	C.2	1	UNK0	0.000	
34	   H	-0.451	-2.688	-1.011	 H	1	UNK0	0.000	
35	   H	-5.647	-3.089	-0.610	 H	1	UNK0	0.000	
36	   H	-7.486	-4.265	0.650	 H	1	UNK0	0.000	
37	   H	-7.312	-4.593	3.040	 H	1	UNK0	0.000	
38	   H	-5.350	-3.785	4.245	 H	1	UNK0	0.000	
39	   H	-3.527	-2.619	2.992	 H	1	UNK0	0.000	
40	   H	0.719	-0.520	-3.560	 H	1	UNK0	0.000	
41	   H	0.439	-1.977	-2.597	 H	1	UNK0	0.000	
42	   H	2.804	-0.883	-2.474	 H	1	UNK0	0.000	
43	   H	2.002	-1.450	-0.963	 H	1	UNK0	0.000	
44	   H	1.453	1.319	-3.157	 H	1	UNK0	0.000	
45	   H	1.470	2.635	-1.933	 H	1	UNK0	0.000	
46	   H	-0.725	1.809	-2.584	 H	1	UNK0	0.000	
47	   H	-0.323	1.661	-0.765	 H	1	UNK0	0.000	
48	   H	4.345	0.992	1.993	 H	1	UNK0	0.000	
49	   H	4.654	2.844	3.608	 H	1	UNK0	0.000	
50	   H	1.658	5.049	1.589	 H	1	UNK0	0.000	
51	   H	1.332	3.266	0.061	 H	1	UNK0	0.000	
52	   H	1.731	4.860	5.038	 H	1	UNK0	0.000	
@<TRIPOS>BOND
1 1 2 1
2 2 3 2
3 2 7 1
4 3 4 1
5 3 15 1
6 4 5 2
7 5 6 1
8 6 7 1
9 6 9 1
10 7 8 2
11 9 10 2
12 9 14 1
13 10 11 1
14 11 12 2
15 12 13 1
16 13 14 2
17 15 16 1
18 15 20 1
19 16 17 1
20 17 18 1
21 18 19 1
22 18 21 1
23 19 20 1
24 21 22 2
25 21 23 1
26 23 24 2
27 23 28 1
28 24 25 1
29 25 26 2
30 26 27 1
31 26 29 1
32 27 28 2
33 29 30 1
34 29 33 1
35 30 31 2
36 31 32 1
37 32 33 2
38 4 34 1
39 10 35 1
40 11 36 1
41 12 37 1
42 13 38 1
43 14 39 1
44 16 40 1
45 16 41 1
46 17 42 1
47 17 43 1
48 19 44 1
49 19 45 1
50 20 46 1
51 20 47 1
52 24 48 1
53 25 49 1
54 27 50 1
55 28 51 1
56 33 52 1
@<TRIPOS>SUBSTRUCTURE
1	UNK0	1	GROUP	1 ****	UNK
