# created with PyMOL 2.3.2
@<TRIPOS>MOLECULE
2389
38 41 1                 
SMALL
USER_CHARGES
@<TRIPOS>ATOM
1	  Cl	-2.667	-1.365	-4.658	Cl	1	UNK0	0.000	
2	   C	-2.661	-1.498	-2.907	C.2	1	UNK0	0.000	
3	   C	-3.658	-2.221	-2.315	C.2	1	UNK0	0.000	
4	   C	-3.653	-2.324	-0.950	C.2	1	UNK0	0.000	
5	   C	-2.670	-1.714	-0.210	C.2	1	UNK0	0.000	
6	   C	-1.632	-0.965	-0.781	C.2	1	UNK0	0.000	
7	   C	-1.657	-0.876	-2.139	C.2	1	UNK0	0.000	
8	   C	-0.639	-0.366	0.070	C.2	1	UNK0	0.000	
9	   O	-0.773	-0.606	1.368	O.2	1	UNK0	0.000	
10	   N	0.462	0.435	-0.204	N.pl3	1	UNK0	0.000	
11	   C	1.315	0.889	0.946	C.3	1	UNK0	0.000	
12	   C	2.375	-0.171	1.124	C.2	1	UNK0	0.000	
13	   N	3.639	-0.141	0.646	N.pl3	1	UNK0	0.000	
14	   C	4.277	-1.258	1.007	C.2	1	UNK0	0.000	
15	   N	3.373	-1.982	1.720	N.2	1	UNK0	0.000	
16	   N	2.236	-1.328	1.788	N.2	1	UNK0	0.000	
17	   C	5.682	-1.293	0.513	C.3	1	UNK0	0.000	
18	   C	5.751	-0.085	-0.369	C.3	1	UNK0	0.000	
19	   C	4.516	0.721	-0.128	C.3	1	UNK0	0.000	
20	   C	0.836	0.871	-1.525	C.3	1	UNK0	0.000	
21	   O	-4.767	-3.107	-0.613	O.3	1	UNK0	0.000	
22	   C	-5.123	-3.827	-1.778	C.3	1	UNK0	0.000	
23	   O	-4.761	-2.932	-2.801	O.3	1	UNK0	0.000	
24	   H	-2.674	-1.801	0.872	 H	1	UNK0	0.000	
25	   H	-0.944	-0.351	-2.719	 H	1	UNK0	0.000	
26	   H	0.702	1.019	1.837	 H	1	UNK0	0.000	
27	   H	1.831	1.791	0.607	 H	1	UNK0	0.000	
28	   H	5.878	-2.189	-0.112	 H	1	UNK0	0.000	
29	   H	6.351	-1.233	1.393	 H	1	UNK0	0.000	
30	   H	5.772	-0.345	-1.455	 H	1	UNK0	0.000	
31	   H	6.681	0.467	-0.117	 H	1	UNK0	0.000	
32	   H	4.803	1.635	0.429	 H	1	UNK0	0.000	
33	   H	4.010	1.045	-1.047	 H	1	UNK0	0.000	
34	   H	1.185	0.077	-2.187	 H	1	UNK0	0.000	
35	   H	0.067	1.489	-1.989	 H	1	UNK0	0.000	
36	   H	1.722	1.591	-1.439	 H	1	UNK0	0.000	
37	   H	-4.657	-4.812	-1.849	 H	1	UNK0	0.000	
38	   H	-6.237	-3.960	-1.744	 H	1	UNK0	0.000	
@<TRIPOS>BOND
1 1 2 1
2 2 3 2
3 2 7 1
4 3 4 1
5 3 23 1
6 4 5 2
7 4 21 1
8 5 6 1
9 6 7 2
10 6 8 1
11 8 9 2
12 8 10 1
13 10 11 1
14 10 20 1
15 11 12 1
16 12 13 1
17 12 16 2
18 13 14 1
19 13 19 1
20 14 15 2
21 14 17 1
22 15 16 1
23 17 18 1
24 18 19 1
25 21 22 1
26 22 23 1
27 5 24 1
28 7 25 1
29 11 26 1
30 11 27 1
31 17 28 1
32 17 29 1
33 18 30 1
34 18 31 1
35 19 32 1
36 19 33 1
37 20 34 1
38 20 35 1
39 20 36 1
40 22 37 1
41 22 38 1
@<TRIPOS>SUBSTRUCTURE
1	UNK0	1	GROUP	1 ****	UNK
