# created with PyMOL 2.3.2
@<TRIPOS>MOLECULE
2390
41 44 1                 
SMALL
USER_CHARGES
@<TRIPOS>ATOM
1	  Cl	0.508	-2.342	-0.078	Cl	1	UNK0	0.000	
2	   C	1.229	-0.743	0.042	C.2	1	UNK0	0.000	
3	   C	2.582	-0.646	-0.141	C.2	1	UNK0	0.000	
4	   C	3.121	0.613	-0.043	C.2	1	UNK0	0.000	
5	   C	2.340	1.710	0.226	C.2	1	UNK0	0.000	
6	   C	0.950	1.633	0.418	C.2	1	UNK0	0.000	
7	   C	0.424	0.370	0.316	C.2	1	UNK0	0.000	
8	   C	0.202	2.847	0.670	C.2	1	UNK0	0.000	
9	   O	0.923	3.934	0.573	O.2	1	UNK0	0.000	
10	   N	-1.114	3.074	0.992	N.pl3	1	UNK0	0.000	
11	   C	-2.149	2.135	1.206	C.3	1	UNK0	0.000	
12	   C	-2.901	1.767	-0.039	C.2	1	UNK0	0.000	
13	   N	-3.928	0.910	-0.156	N.pl3	1	UNK0	0.000	
14	   C	-4.326	0.855	-1.436	C.2	1	UNK0	0.000	
15	   N	-3.512	1.706	-2.112	N.2	1	UNK0	0.000	
16	   N	-2.666	2.246	-1.274	N.2	1	UNK0	0.000	
17	   C	-5.463	-0.080	-1.626	C.3	1	UNK0	0.000	
18	   C	-5.888	-0.375	-0.209	C.3	1	UNK0	0.000	
19	   C	-4.736	0.031	0.670	C.3	1	UNK0	0.000	
20	   C	-1.516	4.504	1.125	C.3	1	UNK0	0.000	
21	   O	4.499	0.738	-0.226	O.3	1	UNK0	0.000	
22	   C	5.370	-0.365	-0.254	C.3	1	UNK0	0.000	
23	   C	4.704	-1.572	-0.928	C.3	1	UNK0	0.000	
24	   O	3.397	-1.731	-0.412	O.3	1	UNK0	0.000	
25	   H	2.803	2.687	0.297	 H	1	UNK0	0.000	
26	   H	-0.616	0.212	0.429	 H	1	UNK0	0.000	
27	   H	-1.888	1.268	1.837	 H	1	UNK0	0.000	
28	   H	-2.947	2.665	1.838	 H	1	UNK0	0.000	
29	   H	-5.095	-0.995	-2.158	 H	1	UNK0	0.000	
30	   H	-6.308	0.394	-2.177	 H	1	UNK0	0.000	
31	   H	-6.768	0.250	0.098	 H	1	UNK0	0.000	
32	   H	-6.184	-1.423	-0.104	 H	1	UNK0	0.000	
33	   H	-5.046	0.506	1.616	 H	1	UNK0	0.000	
34	   H	-4.187	-0.907	0.930	 H	1	UNK0	0.000	
35	   H	-1.998	4.859	0.210	 H	1	UNK0	0.000	
36	   H	-0.650	5.132	1.365	 H	1	UNK0	0.000	
37	   H	-2.209	4.559	2.005	 H	1	UNK0	0.000	
38	   H	5.689	-0.669	0.769	 H	1	UNK0	0.000	
39	   H	6.244	-0.088	-0.878	 H	1	UNK0	0.000	
40	   H	4.612	-1.298	-2.008	 H	1	UNK0	0.000	
41	   H	5.328	-2.448	-0.760	 H	1	UNK0	0.000	
@<TRIPOS>BOND
1 1 2 1
2 2 3 2
3 2 7 1
4 3 4 1
5 3 24 1
6 4 5 2
7 4 21 1
8 5 6 1
9 6 7 2
10 6 8 1
11 8 9 2
12 8 10 1
13 10 11 1
14 10 20 1
15 11 12 1
16 12 13 1
17 12 16 2
18 13 14 1
19 13 19 1
20 14 15 2
21 14 17 1
22 15 16 1
23 17 18 1
24 18 19 1
25 21 22 1
26 22 23 1
27 23 24 1
28 5 25 1
29 7 26 1
30 11 27 1
31 11 28 1
32 17 29 1
33 17 30 1
34 18 31 1
35 18 32 1
36 19 33 1
37 19 34 1
38 20 35 1
39 20 36 1
40 20 37 1
41 22 38 1
42 22 39 1
43 23 40 1
44 23 41 1
@<TRIPOS>SUBSTRUCTURE
1	UNK0	1	GROUP	1 ****	UNK
