# created with PyMOL 2.3.2
@<TRIPOS>MOLECULE
2391
51 54 1                 
SMALL
USER_CHARGES
@<TRIPOS>ATOM
1	   S	-3.473	-1.478	1.079	S.O2	1	UNK0	0.000	
2	   O	-4.638	-1.184	0.145	O.2	1	UNK0	0.000	
3	   O	-3.992	-2.507	2.060	O.2	1	UNK0	0.000	
4	   N	-2.129	-2.016	0.196	N.3	1	UNK0	0.000	
5	   C	-0.953	-2.302	0.938	C.3	1	UNK0	0.000	
6	   C	-0.979	-3.831	1.011	C.3	1	UNK0	0.000	
7	   C	-1.703	-4.255	-0.232	C.3	1	UNK0	0.000	
8	   C	-2.368	-3.028	-0.769	C.3	1	UNK0	0.000	
9	   C	-3.100	0.032	1.884	C.2	1	UNK0	0.000	
10	   C	-4.061	0.617	2.721	C.2	1	UNK0	0.000	
11	   C	-3.838	1.803	3.382	C.2	1	UNK0	0.000	
12	   C	-2.609	2.438	3.210	C.2	1	UNK0	0.000	
13	   C	-1.643	1.912	2.409	C.2	1	UNK0	0.000	
14	   C	-1.911	0.704	1.754	C.2	1	UNK0	0.000	
15	   C	-0.332	2.562	2.224	C.2	1	UNK0	0.000	
16	   O	0.040	3.311	3.160	O.2	1	UNK0	0.000	
17	   N	0.418	2.329	1.059	N.pl3	1	UNK0	0.000	
18	   N	1.657	2.915	0.840	N.pl3	1	UNK0	0.000	
19	   C	1.964	4.268	1.081	C.2	1	UNK0	0.000	
20	   O	1.082	5.047	1.521	O.2	1	UNK0	0.000	
21	   C	3.312	4.847	0.839	C.3	1	UNK0	0.000	
22	   O	4.221	3.881	0.363	O.3	1	UNK0	0.000	
23	   C	4.339	3.553	-0.983	C.2	1	UNK0	0.000	
24	   C	3.907	4.479	-1.903	C.2	1	UNK0	0.000	
25	   C	4.005	4.196	-3.243	C.2	1	UNK0	0.000	
26	   C	4.531	2.998	-3.686	C.2	1	UNK0	0.000	
27	   C	4.969	2.056	-2.762	C.2	1	UNK0	0.000	
28	   C	4.856	2.372	-1.417	C.2	1	UNK0	0.000	
29	   O	3.385	5.671	-1.445	O.3	1	UNK0	0.000	
30	   C	3.174	6.014	-0.114	C.3	1	UNK0	0.000	
31	  Cl	-5.618	-0.198	2.931	Cl	1	UNK0	0.000	
32	   H	-0.071	-1.970	0.366	 H	1	UNK0	0.000	
33	   H	-0.955	-1.906	1.974	 H	1	UNK0	0.000	
34	   H	0.067	-4.155	1.033	 H	1	UNK0	0.000	
35	   H	-1.545	-4.090	1.933	 H	1	UNK0	0.000	
36	   H	-0.988	-4.636	-1.013	 H	1	UNK0	0.000	
37	   H	-2.518	-4.987	-0.015	 H	1	UNK0	0.000	
38	   H	-3.456	-3.167	-0.949	 H	1	UNK0	0.000	
39	   H	-1.893	-2.690	-1.736	 H	1	UNK0	0.000	
40	   H	-4.613	2.240	4.035	 H	1	UNK0	0.000	
41	   H	-2.415	3.373	3.722	 H	1	UNK0	0.000	
42	   H	-1.161	0.270	1.108	 H	1	UNK0	0.000	
43	   H	0.038	1.698	0.327	 H	1	UNK0	0.000	
44	   H	2.452	2.313	0.460	 H	1	UNK0	0.000	
45	   H	3.741	5.239	1.788	 H	1	UNK0	0.000	
46	   H	3.673	4.909	-3.970	 H	1	UNK0	0.000	
47	   H	4.607	2.782	-4.742	 H	1	UNK0	0.000	
48	   H	5.370	1.139	-3.132	 H	1	UNK0	0.000	
49	   H	5.192	1.649	-0.700	 H	1	UNK0	0.000	
50	   H	2.190	6.513	-0.005	 H	1	UNK0	0.000	
51	   H	3.939	6.807	0.136	 H	1	UNK0	0.000	
@<TRIPOS>BOND
1 1 2 2
2 1 3 2
3 1 4 1
4 1 9 1
5 4 5 1
6 4 8 1
7 5 6 1
8 6 7 1
9 7 8 1
10 9 10 2
11 9 14 1
12 10 11 1
13 10 31 1
14 11 12 2
15 12 13 1
16 13 14 2
17 13 15 1
18 15 16 2
19 15 17 1
20 17 18 1
21 18 19 1
22 19 20 2
23 19 21 1
24 21 22 1
25 21 30 1
26 22 23 1
27 23 24 2
28 23 28 1
29 24 25 1
30 24 29 1
31 25 26 2
32 26 27 1
33 27 28 2
34 29 30 1
35 5 32 1
36 5 33 1
37 6 34 1
38 6 35 1
39 7 36 1
40 7 37 1
41 8 38 1
42 8 39 1
43 11 40 1
44 12 41 1
45 14 42 1
46 17 43 1
47 18 44 1
48 21 45 1
49 25 46 1
50 26 47 1
51 27 48 1
52 28 49 1
53 30 50 1
54 30 51 1
@<TRIPOS>SUBSTRUCTURE
1	UNK0	1	GROUP	1 ****	UNK
