# created with PyMOL 2.3.2
@<TRIPOS>MOLECULE
2392
51 54 1                 
SMALL
USER_CHARGES
@<TRIPOS>ATOM
1	   S	-1.791	2.746	0.900	S.O2	1	UNK0	0.000	
2	   O	-1.214	2.605	-0.509	O.2	1	UNK0	0.000	
3	   O	-1.633	4.257	1.172	O.2	1	UNK0	0.000	
4	   N	-3.424	2.416	0.961	N.3	1	UNK0	0.000	
5	   C	-4.108	2.733	2.139	C.3	1	UNK0	0.000	
6	   C	-4.141	1.486	3.001	C.3	1	UNK0	0.000	
7	   C	-3.872	0.369	2.046	C.3	1	UNK0	0.000	
8	   C	-3.744	1.007	0.694	C.3	1	UNK0	0.000	
9	   C	-0.737	1.946	2.006	C.2	1	UNK0	0.000	
10	   C	-0.597	2.297	3.307	C.2	1	UNK0	0.000	
11	   C	0.232	1.497	4.089	C.2	1	UNK0	0.000	
12	   C	0.886	0.405	3.591	C.2	1	UNK0	0.000	
13	   C	0.744	0.040	2.238	C.2	1	UNK0	0.000	
14	   C	-0.061	0.820	1.488	C.2	1	UNK0	0.000	
15	   C	1.436	-1.113	1.718	C.2	1	UNK0	0.000	
16	   O	2.155	-1.740	2.618	O.2	1	UNK0	0.000	
17	   N	1.465	-1.663	0.437	N.pl3	1	UNK0	0.000	
18	   C	2.312	-2.884	0.300	C.3	1	UNK0	0.000	
19	   C	3.395	-2.528	-0.731	C.3	1	UNK0	0.000	
20	   N	2.698	-2.111	-1.919	N.pl3	1	UNK0	0.000	
21	   C	1.263	-2.140	-1.933	C.3	1	UNK0	0.000	
22	   C	0.811	-1.234	-0.755	C.3	1	UNK0	0.000	
23	   C	3.409	-1.681	-3.053	C.2	1	UNK0	0.000	
24	   N	2.779	-1.281	-4.187	N.2	1	UNK0	0.000	
25	   C	3.444	-0.868	-5.279	C.2	1	UNK0	0.000	
26	   C	4.820	-0.836	-5.281	C.2	1	UNK0	0.000	
27	   C	5.475	-1.238	-4.138	C.2	1	UNK0	0.000	
28	   N	4.771	-1.642	-3.076	N.2	1	UNK0	0.000	
29	  Cl	-1.342	3.726	3.957	Cl	1	UNK0	0.000	
30	   H	-3.813	3.583	2.736	 H	1	UNK0	0.000	
31	   H	-5.188	2.967	1.814	 H	1	UNK0	0.000	
32	   H	-5.149	1.385	3.480	 H	1	UNK0	0.000	
33	   H	-3.337	1.532	3.751	 H	1	UNK0	0.000	
34	   H	-2.950	-0.220	2.313	 H	1	UNK0	0.000	
35	   H	-4.726	-0.345	2.043	 H	1	UNK0	0.000	
36	   H	-4.695	0.946	0.138	 H	1	UNK0	0.000	
37	   H	-2.972	0.498	0.124	 H	1	UNK0	0.000	
38	   H	0.343	1.775	5.130	 H	1	UNK0	0.000	
39	   H	1.513	-0.188	4.213	 H	1	UNK0	0.000	
40	   H	-0.233	0.627	0.461	 H	1	UNK0	0.000	
41	   H	2.751	-3.190	1.245	 H	1	UNK0	0.000	
42	   H	1.695	-3.710	-0.102	 H	1	UNK0	0.000	
43	   H	3.996	-3.425	-0.955	 H	1	UNK0	0.000	
44	   H	4.029	-1.742	-0.299	 H	1	UNK0	0.000	
45	   H	0.837	-3.138	-1.856	 H	1	UNK0	0.000	
46	   H	0.879	-1.681	-2.891	 H	1	UNK0	0.000	
47	   H	1.133	-0.224	-1.127	 H	1	UNK0	0.000	
48	   H	-0.303	-1.306	-0.725	 H	1	UNK0	0.000	
49	   H	2.902	-0.553	-6.174	 H	1	UNK0	0.000	
50	   H	5.370	-0.505	-6.153	 H	1	UNK0	0.000	
51	   H	6.562	-1.213	-4.141	 H	1	UNK0	0.000	
@<TRIPOS>BOND
1 1 2 2
2 1 3 2
3 1 4 1
4 1 9 1
5 4 5 1
6 4 8 1
7 5 6 1
8 6 7 1
9 7 8 1
10 9 10 2
11 9 14 1
12 10 11 1
13 10 29 1
14 11 12 2
15 12 13 1
16 13 14 2
17 13 15 1
18 15 16 2
19 15 17 1
20 17 18 1
21 17 22 1
22 18 19 1
23 19 20 1
24 20 21 1
25 20 23 1
26 21 22 1
27 23 24 2
28 23 28 1
29 24 25 1
30 25 26 2
31 26 27 1
32 27 28 2
33 5 30 1
34 5 31 1
35 6 32 1
36 6 33 1
37 7 34 1
38 7 35 1
39 8 36 1
40 8 37 1
41 11 38 1
42 12 39 1
43 14 40 1
44 18 41 1
45 18 42 1
46 19 43 1
47 19 44 1
48 21 45 1
49 21 46 1
50 22 47 1
51 22 48 1
52 25 49 1
53 26 50 1
54 27 51 1
@<TRIPOS>SUBSTRUCTURE
1	UNK0	1	GROUP	1 ****	UNK
