# created with PyMOL 2.3.2
@<TRIPOS>MOLECULE
2393
47 50 1                 
SMALL
USER_CHARGES
@<TRIPOS>ATOM
1	   S	0.714	-2.746	1.588	S.O2	1	UNK0	0.000	
2	   O	0.901	-4.237	1.612	O.2	1	UNK0	0.000	
3	   O	2.038	-2.170	2.076	O.2	1	UNK0	0.000	
4	   N	0.412	-2.118	0.062	N.3	1	UNK0	0.000	
5	   C	1.357	-1.209	-0.491	C.3	1	UNK0	0.000	
6	   C	0.576	-0.243	-1.357	C.3	1	UNK0	0.000	
7	   N	-0.517	-0.831	-2.026	N.3	1	UNK0	0.000	
8	   C	-0.657	-2.215	-2.062	C.3	1	UNK0	0.000	
9	   C	-0.028	-3.013	-0.952	C.3	1	UNK0	0.000	
10	   C	-1.536	-0.001	-2.528	C.3	1	UNK0	0.000	
11	   C	-2.252	0.832	-1.559	C.2	1	UNK0	0.000	
12	   N	-2.029	2.103	-1.217	N.pl3	1	UNK0	0.000	
13	   N	-2.936	2.439	-0.291	N.2	1	UNK0	0.000	
14	   N	-3.720	1.416	-0.043	N.2	1	UNK0	0.000	
15	   N	-3.315	0.422	-0.812	N.2	1	UNK0	0.000	
16	   C	-1.020	2.950	-1.737	C.2	1	UNK0	0.000	
17	   C	-0.946	3.286	-3.072	C.2	1	UNK0	0.000	
18	   C	0.049	4.114	-3.551	C.2	1	UNK0	0.000	
19	   C	0.997	4.628	-2.704	C.2	1	UNK0	0.000	
20	   C	0.946	4.308	-1.369	C.2	1	UNK0	0.000	
21	   C	-0.054	3.482	-0.915	C.2	1	UNK0	0.000	
22	   C	-0.500	-2.238	2.731	C.2	1	UNK0	0.000	
23	   C	-0.743	-0.928	3.052	C.2	1	UNK0	0.000	
24	   C	-1.739	-0.643	3.975	C.2	1	UNK0	0.000	
25	   C	-2.509	-1.587	4.601	C.2	1	UNK0	0.000	
26	   C	-2.260	-2.907	4.274	C.2	1	UNK0	0.000	
27	   C	-1.277	-3.221	3.360	C.2	1	UNK0	0.000	
28	  Cl	0.194	0.353	2.307	Cl	1	UNK0	0.000	
29	   H	1.992	-0.749	0.259	 H	1	UNK0	0.000	
30	   H	2.025	-1.754	-1.233	 H	1	UNK0	0.000	
31	   H	0.228	0.565	-0.680	 H	1	UNK0	0.000	
32	   H	1.251	0.235	-2.097	 H	1	UNK0	0.000	
33	   H	-1.756	-2.477	-2.047	 H	1	UNK0	0.000	
34	   H	-0.314	-2.596	-3.069	 H	1	UNK0	0.000	
35	   H	-0.671	-3.831	-0.608	 H	1	UNK0	0.000	
36	   H	0.884	-3.512	-1.393	 H	1	UNK0	0.000	
37	   H	-2.269	-0.667	-3.073	 H	1	UNK0	0.000	
38	   H	-1.093	0.621	-3.362	 H	1	UNK0	0.000	
39	   H	-1.670	2.910	-3.794	 H	1	UNK0	0.000	
40	   H	0.099	4.377	-4.622	 H	1	UNK0	0.000	
41	   H	1.781	5.286	-3.109	 H	1	UNK0	0.000	
42	   H	1.696	4.716	-0.706	 H	1	UNK0	0.000	
43	   H	-0.094	3.228	0.153	 H	1	UNK0	0.000	
44	   H	-1.908	0.396	4.208	 H	1	UNK0	0.000	
45	   H	-3.283	-1.349	5.319	 H	1	UNK0	0.000	
46	   H	-2.847	-3.681	4.746	 H	1	UNK0	0.000	
47	   H	-1.085	-4.250	3.107	 H	1	UNK0	0.000	
@<TRIPOS>BOND
1 1 2 2
2 1 3 2
3 1 4 1
4 1 22 1
5 4 5 1
6 4 9 1
7 5 6 1
8 6 7 1
9 7 8 1
10 7 10 1
11 8 9 1
12 10 11 1
13 11 12 1
14 11 15 2
15 12 13 1
16 12 16 1
17 13 14 2
18 14 15 1
19 16 17 2
20 16 21 1
21 17 18 1
22 18 19 2
23 19 20 1
24 20 21 2
25 22 23 2
26 22 27 1
27 23 24 1
28 23 28 1
29 24 25 2
30 25 26 1
31 26 27 2
32 5 29 1
33 5 30 1
34 6 31 1
35 6 32 1
36 8 33 1
37 8 34 1
38 9 35 1
39 9 36 1
40 10 37 1
41 10 38 1
42 17 39 1
43 18 40 1
44 19 41 1
45 20 42 1
46 21 43 1
47 24 44 1
48 25 45 1
49 26 46 1
50 27 47 1
@<TRIPOS>SUBSTRUCTURE
1	UNK0	1	GROUP	1 ****	UNK
