# created with PyMOL 2.3.2
@<TRIPOS>MOLECULE
2394
61 65 1                 
SMALL
USER_CHARGES
@<TRIPOS>ATOM
1	  Cl	-4.572	2.178	2.442	Cl	1	UNK0	0.000	
2	   C	-3.989	1.710	0.859	C.2	1	UNK0	0.000	
3	   C	-2.755	2.145	0.440	C.2	1	UNK0	0.000	
4	   C	-2.392	1.738	-0.839	C.2	1	UNK0	0.000	
5	   N	-3.195	0.975	-1.598	N.2	1	UNK0	0.000	
6	   N	-4.385	0.547	-1.211	N.pl3	1	UNK0	0.000	
7	   C	-4.780	0.915	0.018	C.2	1	UNK0	0.000	
8	   O	-5.888	0.536	0.423	O.2	1	UNK0	0.000	
9	   C	-5.192	-0.262	-2.063	C.2	1	UNK0	0.000	
10	   C	-5.392	0.152	-3.363	C.2	1	UNK0	0.000	
11	   C	-6.174	-0.601	-4.246	C.2	1	UNK0	0.000	
12	   C	-6.750	-1.764	-3.822	C.2	1	UNK0	0.000	
13	   C	-6.564	-2.197	-2.530	C.2	1	UNK0	0.000	
14	   C	-5.791	-1.440	-1.678	C.2	1	UNK0	0.000	
15	   N	-1.879	2.925	1.241	N.pl3	1	UNK0	0.000	
16	   C	-0.787	3.647	0.618	C.3	1	UNK0	0.000	
17	   C	0.516	2.953	1.046	C.3	1	UNK0	0.000	
18	   N	0.395	2.577	2.438	N.pl3	1	UNK0	0.000	
19	   C	-0.566	3.361	3.192	C.3	1	UNK0	0.000	
20	   C	-1.981	3.038	2.682	C.3	1	UNK0	0.000	
21	   C	1.107	1.539	3.071	C.2	1	UNK0	0.000	
22	   O	0.920	1.300	4.312	O.2	1	UNK0	0.000	
23	   C	2.086	0.670	2.401	C.3	1	UNK0	0.000	
24	   C	2.614	-0.419	3.285	C.3	1	UNK0	0.000	
25	   N	3.568	-1.240	2.549	N.pl3	1	UNK0	0.000	
26	   C	4.981	-1.087	2.418	C.2	1	UNK0	0.000	
27	   O	5.665	-0.339	3.144	O.2	1	UNK0	0.000	
28	   C	5.356	-1.981	1.290	C.3	1	UNK0	0.000	
29	   C	4.384	-3.137	1.512	C.3	1	UNK0	0.000	
30	   C	4.236	-3.998	0.282	C.3	1	UNK0	0.000	
31	   C	3.649	-3.132	-0.785	C.2	1	UNK0	0.000	
32	   C	4.070	-1.896	-0.853	C.2	1	UNK0	0.000	
33	   C	5.071	-1.255	0.017	C.3	1	UNK0	0.000	
34	   C	3.141	-2.385	1.816	C.2	1	UNK0	0.000	
35	   O	1.975	-2.711	1.485	O.2	1	UNK0	0.000	
36	   H	-1.421	2.063	-1.191	 H	1	UNK0	0.000	
37	   H	-4.951	1.059	-3.720	 H	1	UNK0	0.000	
38	   H	-6.331	-0.279	-5.262	 H	1	UNK0	0.000	
39	   H	-7.365	-2.375	-4.487	 H	1	UNK0	0.000	
40	   H	-7.016	-3.114	-2.187	 H	1	UNK0	0.000	
41	   H	-5.655	-1.792	-0.670	 H	1	UNK0	0.000	
42	   H	-0.692	4.675	1.087	 H	1	UNK0	0.000	
43	   H	-0.869	3.809	-0.446	 H	1	UNK0	0.000	
44	   H	0.785	2.140	0.378	 H	1	UNK0	0.000	
45	   H	1.359	3.704	0.993	 H	1	UNK0	0.000	
46	   H	-0.482	3.093	4.277	 H	1	UNK0	0.000	
47	   H	-0.421	4.433	3.073	 H	1	UNK0	0.000	
48	   H	-2.689	3.816	2.967	 H	1	UNK0	0.000	
49	   H	-2.214	2.050	3.150	 H	1	UNK0	0.000	
50	   H	1.765	0.250	1.453	 H	1	UNK0	0.000	
51	   H	2.973	1.338	2.178	 H	1	UNK0	0.000	
52	   H	1.819	-1.026	3.762	 H	1	UNK0	0.000	
53	   H	3.209	0.018	4.135	 H	1	UNK0	0.000	
54	   H	6.407	-2.326	1.373	 H	1	UNK0	0.000	
55	   H	4.757	-3.677	2.396	 H	1	UNK0	0.000	
56	   H	3.588	-4.842	0.549	 H	1	UNK0	0.000	
57	   H	5.247	-4.326	-0.015	 H	1	UNK0	0.000	
58	   H	2.905	-3.557	-1.455	 H	1	UNK0	0.000	
59	   H	3.634	-1.260	-1.642	 H	1	UNK0	0.000	
60	   H	6.005	-1.151	-0.605	 H	1	UNK0	0.000	
61	   H	4.734	-0.193	0.204	 H	1	UNK0	0.000	
@<TRIPOS>BOND
1 1 2 1
2 2 3 2
3 2 7 1
4 3 4 1
5 3 15 1
6 4 5 2
7 5 6 1
8 6 7 1
9 6 9 1
10 7 8 2
11 9 10 2
12 9 14 1
13 10 11 1
14 11 12 2
15 12 13 1
16 13 14 2
17 15 16 1
18 15 20 1
19 16 17 1
20 17 18 1
21 18 19 1
22 18 21 1
23 19 20 1
24 21 22 2
25 21 23 1
26 23 24 1
27 24 25 1
28 25 26 1
29 25 34 1
30 26 27 2
31 26 28 1
32 28 29 1
33 28 33 1
34 29 30 1
35 29 34 1
36 30 31 1
37 31 32 2
38 32 33 1
39 34 35 2
40 4 36 1
41 10 37 1
42 11 38 1
43 12 39 1
44 13 40 1
45 14 41 1
46 16 42 1
47 16 43 1
48 17 44 1
49 17 45 1
50 19 46 1
51 19 47 1
52 20 48 1
53 20 49 1
54 23 50 1
55 23 51 1
56 24 52 1
57 24 53 1
58 28 54 1
59 29 55 1
60 30 56 1
61 30 57 1
62 31 58 1
63 32 59 1
64 33 60 1
65 33 61 1
@<TRIPOS>SUBSTRUCTURE
1	UNK0	1	GROUP	1 ****	UNK
