# created with PyMOL 2.3.2
@<TRIPOS>MOLECULE
2395
61 64 1                 
SMALL
USER_CHARGES
@<TRIPOS>ATOM
1	   S	1.561	1.365	-3.773	S.O2	1	UNK0	0.000	
2	   O	2.675	1.941	-4.591	O.2	1	UNK0	0.000	
3	   O	1.069	0.141	-4.468	O.2	1	UNK0	0.000	
4	   N	0.242	2.479	-3.622	N.3	1	UNK0	0.000	
5	   C	-0.871	1.940	-2.953	C.3	1	UNK0	0.000	
6	   C	-1.039	2.438	-1.589	C.2	1	UNK0	0.000	
7	   O	-0.282	3.313	-1.114	O.2	1	UNK0	0.000	
8	   N	-2.067	1.977	-0.704	N.pl3	1	UNK0	0.000	
9	   C	-2.280	2.551	0.616	C.3	1	UNK0	0.000	
10	   C	-2.088	1.482	1.673	C.3	1	UNK0	0.000	
11	   N	-2.812	0.262	1.260	N.pl3	1	UNK0	0.000	
12	   C	-3.661	0.330	0.099	C.3	1	UNK0	0.000	
13	   C	-2.898	0.879	-1.101	C.3	1	UNK0	0.000	
14	   C	-2.608	-0.894	2.063	C.2	1	UNK0	0.000	
15	   C	-3.057	-2.137	1.711	C.2	1	UNK0	0.000	
16	   C	-2.812	-3.214	2.557	C.2	1	UNK0	0.000	
17	   C	-2.135	-3.086	3.740	C.2	1	UNK0	0.000	
18	   C	-1.686	-1.810	4.084	C.2	1	UNK0	0.000	
19	   C	-1.921	-0.758	3.264	C.2	1	UNK0	0.000	
20	  Cl	-1.834	-4.446	4.777	Cl	1	UNK0	0.000	
21	   C	0.717	3.772	-3.230	C.3	1	UNK0	0.000	
22	   C	2.121	0.901	-2.179	C.2	1	UNK0	0.000	
23	   C	1.601	-0.195	-1.518	C.2	1	UNK0	0.000	
24	   C	2.066	-0.568	-0.270	C.2	1	UNK0	0.000	
25	   C	3.069	0.138	0.382	C.2	1	UNK0	0.000	
26	   C	3.591	1.231	-0.269	C.2	1	UNK0	0.000	
27	   C	3.116	1.592	-1.521	C.2	1	UNK0	0.000	
28	   N	3.521	-0.234	1.592	N.pl3	1	UNK0	0.000	
29	   C	3.004	-1.306	2.201	C.2	1	UNK0	0.000	
30	   O	3.398	-1.691	3.334	O.2	1	UNK0	0.000	
31	   N	2.012	-2.046	1.610	N.pl3	1	UNK0	0.000	
32	   C	1.561	-1.666	0.396	C.2	1	UNK0	0.000	
33	   O	0.646	-2.306	-0.190	O.2	1	UNK0	0.000	
34	   C	1.468	-3.208	2.273	C.3	1	UNK0	0.000	
35	   C	4.588	0.524	2.258	C.3	1	UNK0	0.000	
36	   H	-0.811	0.811	-2.863	 H	1	UNK0	0.000	
37	   H	-1.772	2.184	-3.592	 H	1	UNK0	0.000	
38	   H	-3.339	2.904	0.733	 H	1	UNK0	0.000	
39	   H	-1.619	3.410	0.823	 H	1	UNK0	0.000	
40	   H	-0.992	1.252	1.746	 H	1	UNK0	0.000	
41	   H	-2.457	1.787	2.661	 H	1	UNK0	0.000	
42	   H	-4.482	1.081	0.316	 H	1	UNK0	0.000	
43	   H	-4.140	-0.615	-0.135	 H	1	UNK0	0.000	
44	   H	-2.200	0.045	-1.390	 H	1	UNK0	0.000	
45	   H	-3.571	1.127	-1.931	 H	1	UNK0	0.000	
46	   H	-3.597	-2.289	0.787	 H	1	UNK0	0.000	
47	   H	-3.189	-4.177	2.232	 H	1	UNK0	0.000	
48	   H	-1.155	-1.729	5.011	 H	1	UNK0	0.000	
49	   H	-1.555	0.209	3.582	 H	1	UNK0	0.000	
50	   H	-0.049	4.519	-3.060	 H	1	UNK0	0.000	
51	   H	1.413	3.668	-2.375	 H	1	UNK0	0.000	
52	   H	1.385	4.213	-4.049	 H	1	UNK0	0.000	
53	   H	0.823	-0.752	-2.011	 H	1	UNK0	0.000	
54	   H	4.381	1.784	0.241	 H	1	UNK0	0.000	
55	   H	3.539	2.458	-2.026	 H	1	UNK0	0.000	
56	   H	0.713	-2.935	3.025	 H	1	UNK0	0.000	
57	   H	2.257	-3.886	2.676	 H	1	UNK0	0.000	
58	   H	0.914	-3.819	1.494	 H	1	UNK0	0.000	
59	   H	4.320	1.591	2.347	 H	1	UNK0	0.000	
60	   H	5.550	0.394	1.716	 H	1	UNK0	0.000	
61	   H	4.741	0.157	3.291	 H	1	UNK0	0.000	
@<TRIPOS>BOND
1 1 2 2
2 1 3 2
3 1 4 1
4 1 22 1
5 4 5 1
6 4 21 1
7 5 6 1
8 6 7 2
9 6 8 1
10 8 9 1
11 8 13 1
12 9 10 1
13 10 11 1
14 11 12 1
15 11 14 1
16 12 13 1
17 14 15 2
18 14 19 1
19 15 16 1
20 16 17 2
21 17 18 1
22 17 20 1
23 18 19 2
24 22 23 2
25 22 27 1
26 23 24 1
27 24 25 2
28 24 32 1
29 25 26 1
30 25 28 1
31 26 27 2
32 28 29 1
33 28 35 1
34 29 30 2
35 29 31 1
36 31 32 1
37 31 34 1
38 32 33 2
39 5 36 1
40 5 37 1
41 9 38 1
42 9 39 1
43 10 40 1
44 10 41 1
45 12 42 1
46 12 43 1
47 13 44 1
48 13 45 1
49 15 46 1
50 16 47 1
51 18 48 1
52 19 49 1
53 21 50 1
54 21 51 1
55 21 52 1
56 23 53 1
57 26 54 1
58 27 55 1
59 34 56 1
60 34 57 1
61 34 58 1
62 35 59 1
63 35 60 1
64 35 61 1
@<TRIPOS>SUBSTRUCTURE
1	UNK0	1	GROUP	1 ****	UNK
