# created with PyMOL 2.3.2
@<TRIPOS>MOLECULE
2396
43 46 1                 
SMALL
USER_CHARGES
@<TRIPOS>ATOM
1	   S	1.175	-4.112	-1.515	S.O2	1	UNK0	0.000	
2	   O	-0.235	-4.309	-0.927	O.2	1	UNK0	0.000	
3	   O	1.280	-4.985	-2.673	O.2	1	UNK0	0.000	
4	   C	2.302	-4.484	-0.158	C.3	1	UNK0	0.000	
5	   C	1.390	-2.379	-1.887	C.2	1	UNK0	0.000	
6	   N	0.376	-1.547	-1.739	N.2	1	UNK0	0.000	
7	   C	0.614	-0.185	-1.694	C.2	1	UNK0	0.000	
8	   C	1.921	0.284	-1.790	C.2	1	UNK0	0.000	
9	   C	2.957	-0.582	-1.955	C.2	1	UNK0	0.000	
10	   N	2.644	-1.924	-2.006	N.2	1	UNK0	0.000	
11	   C	2.123	1.736	-1.278	C.3	1	UNK0	0.000	
12	   N	1.286	1.800	-0.191	N.3	1	UNK0	0.000	
13	   C	-0.080	2.020	-0.853	C.3	1	UNK0	0.000	
14	   C	-0.496	0.762	-1.518	C.3	1	UNK0	0.000	
15	   C	1.188	2.227	1.115	C.3	1	UNK0	0.000	
16	   C	-0.097	1.514	1.636	C.2	1	UNK0	0.000	
17	   C	-1.136	2.267	2.002	C.2	1	UNK0	0.000	
18	   C	-2.377	1.644	2.212	C.2	1	UNK0	0.000	
19	   C	-2.416	0.282	2.032	C.2	1	UNK0	0.000	
20	   C	-3.657	-0.318	2.224	C.2	1	UNK0	0.000	
21	   C	-4.792	0.404	2.549	C.2	1	UNK0	0.000	
22	   C	-4.717	1.747	2.706	C.2	1	UNK0	0.000	
23	   C	-3.503	2.390	2.543	C.2	1	UNK0	0.000	
24	   O	-1.358	-0.404	1.692	O.3	1	UNK0	0.000	
25	   C	-0.182	0.156	1.485	C.2	1	UNK0	0.000	
26	   O	0.814	-0.530	1.200	O.co2	1	UNK0	0.000	
27	  Cl	-1.079	4.000	2.289	Cl	1	UNK0	0.000	
28	   H	2.184	-5.502	0.161	 H	1	UNK0	0.000	
29	   H	3.342	-4.250	-0.565	 H	1	UNK0	0.000	
30	   H	2.091	-3.812	0.692	 H	1	UNK0	0.000	
31	   H	3.954	-0.197	-2.038	 H	1	UNK0	0.000	
32	   H	1.777	2.414	-2.135	 H	1	UNK0	0.000	
33	   H	3.170	1.951	-1.142	 H	1	UNK0	0.000	
34	   H	-0.775	2.421	-0.179	 H	1	UNK0	0.000	
35	   H	0.128	2.773	-1.626	 H	1	UNK0	0.000	
36	   H	-1.387	0.347	-1.012	 H	1	UNK0	0.000	
37	   H	-0.895	1.017	-2.546	 H	1	UNK0	0.000	
38	   H	1.987	1.787	1.799	 H	1	UNK0	0.000	
39	   H	1.097	3.257	1.380	 H	1	UNK0	0.000	
40	   H	-3.728	-1.422	2.080	 H	1	UNK0	0.000	
41	   H	-5.742	-0.120	2.677	 H	1	UNK0	0.000	
42	   H	-5.636	2.302	2.957	 H	1	UNK0	0.000	
43	   H	-3.409	3.446	2.681	 H	1	UNK0	0.000	
@<TRIPOS>BOND
1 1 2 2
2 1 3 2
3 1 4 1
4 1 5 1
5 5 6 2
6 5 10 1
7 6 7 1
8 7 8 2
9 7 14 1
10 8 9 1
11 8 11 1
12 9 10 2
13 11 12 1
14 12 13 1
15 12 15 1
16 13 14 1
17 15 16 1
18 16 17 2
19 16 25 1
20 17 18 1
21 17 27 1
22 18 19 2
23 18 23 1
24 19 20 1
25 19 24 1
26 20 21 2
27 21 22 1
28 22 23 2
29 24 25 1
30 25 26 2
31 4 28 1
32 4 29 1
33 4 30 1
34 9 31 1
35 11 32 1
36 11 33 1
37 13 34 1
38 13 35 1
39 14 36 1
40 14 37 1
41 15 38 1
42 15 39 1
43 20 40 1
44 21 41 1
45 22 42 1
46 23 43 1
@<TRIPOS>SUBSTRUCTURE
1	UNK0	1	GROUP	1 ****	UNK
