# created with PyMOL 2.3.2
@<TRIPOS>MOLECULE
2401
52 56 1                 
SMALL
USER_CHARGES
@<TRIPOS>ATOM
1	  Br	-5.023	-4.128	-1.383	Br	1	UNK0	0.000	
2	   C	-3.332	-3.214	-1.339	C.2	1	UNK0	0.000	
3	   C	-2.367	-3.452	-2.284	C.2	1	UNK0	0.000	
4	   C	-1.155	-2.802	-2.258	C.2	1	UNK0	0.000	
5	   C	-0.844	-1.862	-1.262	C.2	1	UNK0	0.000	
6	   C	-1.810	-1.644	-0.343	C.2	1	UNK0	0.000	
7	   C	-3.047	-2.305	-0.366	C.2	1	UNK0	0.000	
8	   C	0.426	-1.168	-1.273	C.2	1	UNK0	0.000	
9	   C	1.306	-1.298	-2.360	C.2	1	UNK0	0.000	
10	   N	2.391	-0.576	-2.084	N.pl3	1	UNK0	0.000	
11	   C	3.609	-0.221	-2.609	C.2	1	UNK0	0.000	
12	   C	4.229	0.603	-1.698	C.2	1	UNK0	0.000	
13	   N	3.372	0.712	-0.669	N.pl3	1	UNK0	0.000	
14	   C	2.241	-0.014	-0.906	C.cat	1	UNK0	0.000	
15	   N	1.039	-0.374	-0.407	N.pl3	1	UNK0	0.000	
16	   C	0.592	0.061	0.891	C.3	1	UNK0	0.000	
17	   C	-0.193	1.321	0.862	C.3	1	UNK0	0.000	
18	   C	-0.613	1.783	2.188	C.3	1	UNK0	0.000	
19	   N	-1.446	1.087	3.035	N.4	1	UNK0	0.000	
20	   C	-2.865	1.024	2.729	C.3	1	UNK0	0.000	
21	   C	-3.398	0.567	4.088	C.3	1	UNK0	0.000	
22	   C	-2.269	-0.295	4.612	C.3	1	UNK0	0.000	
23	   C	-1.207	-0.241	3.463	C.3	1	UNK0	0.000	
24	   C	5.492	1.139	-1.934	C.2	1	UNK0	0.000	
25	   C	6.160	0.850	-3.110	C.2	1	UNK0	0.000	
26	   C	5.525	0.020	-4.020	C.2	1	UNK0	0.000	
27	   C	4.274	-0.507	-3.777	C.2	1	UNK0	0.000	
28	   H	-2.603	-4.184	-3.061	 H	1	UNK0	0.000	
29	   H	-0.439	-3.020	-3.009	 H	1	UNK0	0.000	
30	   H	-1.704	-0.946	0.447	 H	1	UNK0	0.000	
31	   H	-3.800	-2.110	0.384	 H	1	UNK0	0.000	
32	   H	1.148	-1.871	-3.263	 H	1	UNK0	0.000	
33	   H	3.544	1.273	0.194	 H	1	UNK0	0.000	
34	   H	1.546	0.359	1.489	 H	1	UNK0	0.000	
35	   H	0.236	-0.777	1.471	 H	1	UNK0	0.000	
36	   H	0.520	2.106	0.445	 H	1	UNK0	0.000	
37	   H	-1.004	1.316	0.094	 H	1	UNK0	0.000	
38	   H	-1.063	2.842	2.088	 H	1	UNK0	0.000	
39	   H	0.327	2.051	2.801	 H	1	UNK0	0.000	
40	   H	-1.456	1.659	3.974	 H	1	UNK0	0.000	
41	   H	-3.106	0.204	2.023	 H	1	UNK0	0.000	
42	   H	-3.280	1.998	2.431	 H	1	UNK0	0.000	
43	   H	-4.347	0.010	3.975	 H	1	UNK0	0.000	
44	   H	-3.502	1.473	4.715	 H	1	UNK0	0.000	
45	   H	-1.836	0.081	5.541	 H	1	UNK0	0.000	
46	   H	-2.639	-1.321	4.749	 H	1	UNK0	0.000	
47	   H	-1.577	-1.049	2.796	 H	1	UNK0	0.000	
48	   H	-0.249	-0.447	3.957	 H	1	UNK0	0.000	
49	   H	5.910	1.777	-1.169	 H	1	UNK0	0.000	
50	   H	7.140	1.272	-3.284	 H	1	UNK0	0.000	
51	   H	6.055	-0.209	-4.951	 H	1	UNK0	0.000	
52	   H	3.832	-1.143	-4.516	 H	1	UNK0	0.000	
@<TRIPOS>BOND
1 1 2 1
2 2 3 2
3 2 7 1
4 3 4 1
5 4 5 2
6 5 6 1
7 5 8 1
8 6 7 2
9 8 9 2
10 8 15 1
11 9 10 1
12 10 11 1
13 10 14 1
14 11 12 2
15 11 27 1
16 12 13 1
17 12 24 1
18 13 14 2
19 14 15 1
20 15 16 1
21 16 17 1
22 17 18 1
23 18 19 1
24 19 20 1
25 19 23 1
26 20 21 1
27 21 22 1
28 22 23 1
29 24 25 2
30 25 26 1
31 26 27 2
32 3 28 1
33 4 29 1
34 6 30 1
35 7 31 1
36 9 32 1
37 13 33 1
38 16 34 1
39 16 35 1
40 17 36 1
41 17 37 1
42 18 38 1
43 18 39 1
44 19 40 1
45 20 41 1
46 20 42 1
47 21 43 1
48 21 44 1
49 22 45 1
50 22 46 1
51 23 47 1
52 23 48 1
53 24 49 1
54 25 50 1
55 26 51 1
56 27 52 1
@<TRIPOS>SUBSTRUCTURE
1	UNK0	1	GROUP	1 ****	UNK
