# created with PyMOL 2.3.2
@<TRIPOS>MOLECULE
2402
55 58 1                 
SMALL
USER_CHARGES
@<TRIPOS>ATOM
1	  Br	1.918	4.745	-5.668	Br	1	UNK0	0.000	
2	   C	1.611	3.494	-4.255	C.2	1	UNK0	0.000	
3	   C	1.910	3.882	-2.981	C.2	1	UNK0	0.000	
4	   C	1.705	3.016	-1.948	C.2	1	UNK0	0.000	
5	   C	1.202	1.738	-2.101	C.2	1	UNK0	0.000	
6	   C	0.908	1.372	-3.397	C.2	1	UNK0	0.000	
7	   C	1.107	2.234	-4.474	C.2	1	UNK0	0.000	
8	   C	1.027	0.894	-0.931	C.3	1	UNK0	0.000	
9	   N	1.512	-0.447	-1.067	N.pl3	1	UNK0	0.000	
10	   C	0.433	-1.368	-1.107	C.2	1	UNK0	0.000	
11	   O	0.413	-2.590	-1.391	O.2	1	UNK0	0.000	
12	   C	-0.805	-0.645	-0.734	C.2	1	UNK0	0.000	
13	   O	-1.964	-1.124	-0.657	O.2	1	UNK0	0.000	
14	   C	-0.382	0.720	-0.483	C.2	1	UNK0	0.000	
15	   C	-1.190	1.644	0.052	C.2	1	UNK0	0.000	
16	   O	-0.608	2.911	0.186	O.2	1	UNK0	0.000	
17	   C	-2.560	1.370	0.470	C.2	1	UNK0	0.000	
18	   O	-3.058	0.388	1.139	O.3	1	UNK0	0.000	
19	   C	-4.341	0.459	1.334	C.2	1	UNK0	0.000	
20	   C	-4.793	1.624	0.733	C.2	1	UNK0	0.000	
21	   C	-3.637	2.187	0.189	C.2	1	UNK0	0.000	
22	   C	-6.128	1.947	0.789	C.2	1	UNK0	0.000	
23	   C	-7.025	1.128	1.435	C.2	1	UNK0	0.000	
24	   C	-6.581	-0.041	2.040	C.2	1	UNK0	0.000	
25	   C	-5.259	-0.350	1.980	C.2	1	UNK0	0.000	
26	   O	-4.786	-1.503	2.571	O.3	1	UNK0	0.000	
27	   C	-5.593	-2.441	3.270	C.3	1	UNK0	0.000	
28	   C	2.891	-0.843	-1.155	C.3	1	UNK0	0.000	
29	   C	3.476	-1.134	0.215	C.3	1	UNK0	0.000	
30	   N	4.840	-1.536	0.179	N.4	1	UNK0	0.000	
31	   C	5.512	-1.359	-1.072	C.3	1	UNK0	0.000	
32	   C	5.595	-0.915	1.259	C.3	1	UNK0	0.000	
33	   H	2.314	4.880	-2.772	 H	1	UNK0	0.000	
34	   H	1.963	3.373	-0.941	 H	1	UNK0	0.000	
35	   H	0.520	0.399	-3.573	 H	1	UNK0	0.000	
36	   H	0.869	1.923	-5.467	 H	1	UNK0	0.000	
37	   H	1.650	1.334	-0.092	 H	1	UNK0	0.000	
38	   H	-3.640	3.119	-0.358	 H	1	UNK0	0.000	
39	   H	-6.486	2.849	0.323	 H	1	UNK0	0.000	
40	   H	-8.077	1.342	1.500	 H	1	UNK0	0.000	
41	   H	-7.322	-0.674	2.550	 H	1	UNK0	0.000	
42	   H	-5.094	-3.444	3.182	 H	1	UNK0	0.000	
43	   H	-5.633	-2.110	4.316	 H	1	UNK0	0.000	
44	   H	-6.599	-2.551	2.860	 H	1	UNK0	0.000	
45	   H	3.509	-0.098	-1.694	 H	1	UNK0	0.000	
46	   H	2.973	-1.784	-1.741	 H	1	UNK0	0.000	
47	   H	2.837	-1.908	0.716	 H	1	UNK0	0.000	
48	   H	3.395	-0.242	0.887	 H	1	UNK0	0.000	
49	   H	4.865	-2.580	0.381	 H	1	UNK0	0.000	
50	   H	5.099	-2.074	-1.816	 H	1	UNK0	0.000	
51	   H	5.541	-0.324	-1.435	 H	1	UNK0	0.000	
52	   H	6.577	-1.666	-0.906	 H	1	UNK0	0.000	
53	   H	5.906	0.094	0.958	 H	1	UNK0	0.000	
54	   H	4.955	-0.797	2.155	 H	1	UNK0	0.000	
55	   H	6.466	-1.559	1.482	 H	1	UNK0	0.000	
@<TRIPOS>BOND
1 1 2 1
2 2 3 2
3 2 7 1
4 3 4 1
5 4 5 2
6 5 6 1
7 5 8 1
8 6 7 2
9 8 9 1
10 8 14 1
11 9 10 1
12 9 28 1
13 10 11 2
14 10 12 1
15 12 13 2
16 12 14 1
17 14 15 2
18 15 16 1
19 15 17 1
20 17 18 1
21 17 21 2
22 18 19 1
23 19 20 2
24 19 25 1
25 20 21 1
26 20 22 1
27 22 23 2
28 23 24 1
29 24 25 2
30 25 26 1
31 26 27 1
32 28 29 1
33 29 30 1
34 30 31 1
35 30 32 1
36 3 33 1
37 4 34 1
38 6 35 1
39 7 36 1
40 8 37 1
41 21 38 1
42 22 39 1
43 23 40 1
44 24 41 1
45 27 42 1
46 27 43 1
47 27 44 1
48 28 45 1
49 28 46 1
50 29 47 1
51 29 48 1
52 30 49 1
53 31 50 1
54 31 51 1
55 31 52 1
56 32 53 1
57 32 54 1
58 32 55 1
@<TRIPOS>SUBSTRUCTURE
1	UNK0	1	GROUP	1 ****	UNK
