# created with PyMOL 2.3.2
@<TRIPOS>MOLECULE
2404
41 44 1                 
SMALL
USER_CHARGES
@<TRIPOS>ATOM
1	  Br	0.706	-8.851	-0.560	Br	1	UNK0	0.000	
2	   C	-0.154	-7.171	-0.324	C.2	1	UNK0	0.000	
3	   C	0.428	-6.000	-0.762	C.2	1	UNK0	0.000	
4	   N	-0.174	-4.788	-0.602	N.pl3	1	UNK0	0.000	
5	   C	-1.373	-4.768	0.008	C.2	1	UNK0	0.000	
6	   N	-1.960	-3.548	0.160	N.2	1	UNK0	0.000	
7	   C	-1.375	-2.423	-0.274	C.2	1	UNK0	0.000	
8	   C	-0.157	-2.465	-0.891	C.2	1	UNK0	0.000	
9	   C	0.449	-3.681	-1.053	C.2	1	UNK0	0.000	
10	   O	1.587	-3.775	-1.623	O.2	1	UNK0	0.000	
11	   C	-2.072	-1.119	-0.076	C.3	1	UNK0	0.000	
12	   N	-1.269	-0.027	-0.619	N.pl3	1	UNK0	0.000	
13	   C	-0.297	0.720	0.071	C.2	1	UNK0	0.000	
14	   O	0.049	0.580	1.272	O.2	1	UNK0	0.000	
15	   N	0.297	1.720	-0.777	N.pl3	1	UNK0	0.000	
16	   C	-0.334	1.581	-2.038	C.2	1	UNK0	0.000	
17	   O	-0.101	2.276	-3.082	O.2	1	UNK0	0.000	
18	   C	-1.308	0.499	-1.949	C.2	1	UNK0	0.000	
19	   O	-2.072	0.074	-2.876	O.2	1	UNK0	0.000	
20	   C	1.318	2.673	-0.444	C.3	1	UNK0	0.000	
21	   C	2.615	2.005	-0.042	C.3	1	UNK0	0.000	
22	   C	2.747	2.131	1.441	C.3	1	UNK0	0.000	
23	   C	1.732	3.123	1.910	C.3	1	UNK0	0.000	
24	   C	0.936	3.551	0.719	C.3	1	UNK0	0.000	
25	   C	-1.998	-5.914	0.465	C.2	1	UNK0	0.000	
26	   C	-1.382	-7.131	0.298	C.2	1	UNK0	0.000	
27	   H	1.397	-5.993	-1.258	 H	1	UNK0	0.000	
28	   H	0.332	-1.556	-1.250	 H	1	UNK0	0.000	
29	   H	-3.030	-1.143	-0.646	 H	1	UNK0	0.000	
30	   H	-2.335	-0.954	0.980	 H	1	UNK0	0.000	
31	   H	1.537	3.288	-1.338	 H	1	UNK0	0.000	
32	   H	3.479	2.490	-0.519	 H	1	UNK0	0.000	
33	   H	2.607	0.936	-0.347	 H	1	UNK0	0.000	
34	   H	2.659	1.133	1.936	 H	1	UNK0	0.000	
35	   H	3.770	2.500	1.743	 H	1	UNK0	0.000	
36	   H	1.127	2.657	2.715	 H	1	UNK0	0.000	
37	   H	2.231	4.006	2.406	 H	1	UNK0	0.000	
38	   H	1.236	4.590	0.470	 H	1	UNK0	0.000	
39	   H	-0.157	3.571	0.899	 H	1	UNK0	0.000	
40	   H	-2.962	-5.851	0.950	 H	1	UNK0	0.000	
41	   H	-1.833	-8.070	0.642	 H	1	UNK0	0.000	
@<TRIPOS>BOND
1 1 2 1
2 2 3 2
3 2 26 1
4 3 4 1
5 4 5 1
6 4 9 1
7 5 6 2
8 5 25 1
9 6 7 1
10 7 8 2
11 7 11 1
12 8 9 1
13 9 10 2
14 11 12 1
15 12 13 1
16 12 18 1
17 13 14 2
18 13 15 1
19 15 16 1
20 15 20 1
21 16 17 2
22 16 18 1
23 18 19 2
24 20 21 1
25 20 24 1
26 21 22 1
27 22 23 1
28 23 24 1
29 25 26 2
30 3 27 1
31 8 28 1
32 11 29 1
33 11 30 1
34 20 31 1
35 21 32 1
36 21 33 1
37 22 34 1
38 22 35 1
39 23 36 1
40 23 37 1
41 24 38 1
42 24 39 1
43 25 40 1
44 26 41 1
@<TRIPOS>SUBSTRUCTURE
1	UNK0	1	GROUP	1 ****	UNK
