# created with PyMOL 2.3.2
@<TRIPOS>MOLECULE
2405
48 51 1                 
SMALL
USER_CHARGES
@<TRIPOS>ATOM
1	  Br	6.375	-1.878	4.164	Br	1	UNK0	0.000	
2	   C	4.610	-1.305	3.760	C.2	1	UNK0	0.000	
3	   C	3.841	-2.002	2.868	C.2	1	UNK0	0.000	
4	   N	2.601	-1.616	2.571	N.pl3	1	UNK0	0.000	
5	   C	2.043	-0.527	3.130	C.2	1	UNK0	0.000	
6	   N	0.804	-0.137	2.837	N.2	1	UNK0	0.000	
7	   C	0.038	-0.813	1.962	C.2	1	UNK0	0.000	
8	   C	0.571	-1.937	1.365	C.2	1	UNK0	0.000	
9	   C	1.870	-2.320	1.692	C.2	1	UNK0	0.000	
10	   O	2.315	-3.354	1.121	O.2	1	UNK0	0.000	
11	   C	-1.324	-0.324	1.684	C.3	1	UNK0	0.000	
12	   N	-1.427	0.583	0.619	N.3	1	UNK0	0.000	
13	   C	-2.692	1.101	0.300	C.3	1	UNK0	0.000	
14	   C	-2.849	1.143	-1.203	C.3	1	UNK0	0.000	
15	   N	-1.536	1.321	-1.844	N.3	1	UNK0	0.000	
16	   C	-0.724	2.157	-0.987	C.3	1	UNK0	0.000	
17	   C	-0.304	1.339	0.245	C.3	1	UNK0	0.000	
18	   C	-0.956	0.061	-2.183	C.3	1	UNK0	0.000	
19	   C	0.343	0.135	-2.868	C.2	1	UNK0	0.000	
20	   O	0.853	1.246	-3.113	O.2	1	UNK0	0.000	
21	   N	1.031	-1.036	-3.258	N.pl3	1	UNK0	0.000	
22	   C	2.313	-0.940	-3.934	C.3	1	UNK0	0.000	
23	   C	2.633	-1.875	-5.043	C.3	1	UNK0	0.000	
24	   C	3.368	-1.954	-3.692	C.3	1	UNK0	0.000	
25	   C	2.800	0.198	4.037	C.2	1	UNK0	0.000	
26	   C	4.080	-0.186	4.354	C.2	1	UNK0	0.000	
27	   H	4.265	-2.885	2.401	 H	1	UNK0	0.000	
28	   H	-0.040	-2.487	0.659	 H	1	UNK0	0.000	
29	   H	-1.933	-1.241	1.424	 H	1	UNK0	0.000	
30	   H	-1.827	0.091	2.583	 H	1	UNK0	0.000	
31	   H	-2.806	2.168	0.654	 H	1	UNK0	0.000	
32	   H	-3.510	0.515	0.763	 H	1	UNK0	0.000	
33	   H	-3.565	1.901	-1.528	 H	1	UNK0	0.000	
34	   H	-3.209	0.119	-1.519	 H	1	UNK0	0.000	
35	   H	0.099	2.669	-1.469	 H	1	UNK0	0.000	
36	   H	-1.428	2.961	-0.614	 H	1	UNK0	0.000	
37	   H	0.604	0.747	0.049	 H	1	UNK0	0.000	
38	   H	-0.034	2.101	1.020	 H	1	UNK0	0.000	
39	   H	-1.669	-0.414	-2.924	 H	1	UNK0	0.000	
40	   H	-0.951	-0.669	-1.337	 H	1	UNK0	0.000	
41	   H	0.596	-1.972	-3.048	 H	1	UNK0	0.000	
42	   H	2.675	0.095	-4.095	 H	1	UNK0	0.000	
43	   H	1.962	-2.703	-5.317	 H	1	UNK0	0.000	
44	   H	3.259	-1.521	-5.889	 H	1	UNK0	0.000	
45	   H	3.189	-2.868	-3.085	 H	1	UNK0	0.000	
46	   H	4.437	-1.638	-3.690	 H	1	UNK0	0.000	
47	   H	2.341	1.065	4.475	 H	1	UNK0	0.000	
48	   H	4.652	0.385	5.058	 H	1	UNK0	0.000	
@<TRIPOS>BOND
1 1 2 1
2 2 3 2
3 2 26 1
4 3 4 1
5 4 5 1
6 4 9 1
7 5 6 2
8 5 25 1
9 6 7 1
10 7 8 2
11 7 11 1
12 8 9 1
13 9 10 2
14 11 12 1
15 12 13 1
16 12 17 1
17 13 14 1
18 14 15 1
19 15 16 1
20 15 18 1
21 16 17 1
22 18 19 1
23 19 20 2
24 19 21 1
25 21 22 1
26 22 23 1
27 22 24 1
28 23 24 1
29 25 26 2
30 3 27 1
31 8 28 1
32 11 29 1
33 11 30 1
34 13 31 1
35 13 32 1
36 14 33 1
37 14 34 1
38 16 35 1
39 16 36 1
40 17 37 1
41 17 38 1
42 18 39 1
43 18 40 1
44 21 41 1
45 22 42 1
46 23 43 1
47 23 44 1
48 24 45 1
49 24 46 1
50 25 47 1
51 26 48 1
@<TRIPOS>SUBSTRUCTURE
1	UNK0	1	GROUP	1 ****	UNK
