# created with PyMOL 2.3.2
@<TRIPOS>MOLECULE
2406
58 59 1                 
SMALL
USER_CHARGES
@<TRIPOS>ATOM
1	  Cl	2.885	-3.174	-3.856	Cl	1	UNK0	0.000	
2	   C	3.488	-2.852	-2.244	C.2	1	UNK0	0.000	
3	   C	2.618	-2.610	-1.214	C.2	1	UNK0	0.000	
4	   C	3.148	-2.362	0.044	C.2	1	UNK0	0.000	
5	   C	4.516	-2.365	0.227	C.2	1	UNK0	0.000	
6	   C	5.383	-2.609	-0.813	C.2	1	UNK0	0.000	
7	   C	4.867	-2.859	-2.078	C.2	1	UNK0	0.000	
8	   O	5.042	-2.117	1.479	O.3	1	UNK0	0.000	
9	   C	2.223	-2.100	1.162	C.2	1	UNK0	0.000	
10	   O	2.695	-1.990	2.340	O.2	1	UNK0	0.000	
11	   C	0.780	-1.974	0.875	C.3	1	UNK0	0.000	
12	   C	0.621	-1.533	-0.542	C.3	1	UNK0	0.000	
13	   C	1.150	-2.611	-1.444	C.3	1	UNK0	0.000	
14	   O	0.645	-3.843	-1.027	O.3	1	UNK0	0.000	
15	   C	-0.785	-1.125	-0.752	C.3	1	UNK0	0.000	
16	   C	-0.875	0.291	-0.184	C.3	1	UNK0	0.000	
17	   C	-0.648	0.202	1.290	C.3	1	UNK0	0.000	
18	   C	0.087	-1.006	1.733	C.2	1	UNK0	0.000	
19	   O	0.117	-1.215	2.936	O.2	1	UNK0	0.000	
20	   C	-1.943	0.245	2.024	C.2	1	UNK0	0.000	
21	   O	-2.290	-0.631	2.799	O.2	1	UNK0	0.000	
22	   C	-2.840	1.413	1.792	C.3	1	UNK0	0.000	
23	   C	-2.501	1.951	0.458	C.2	1	UNK0	0.000	
24	   O	-2.569	3.140	0.262	O.2	1	UNK0	0.000	
25	   C	-2.086	1.021	-0.612	C.3	1	UNK0	0.000	
26	   N	-1.999	1.735	-1.832	N.3	1	UNK0	0.000	
27	   C	-1.036	2.800	-1.853	C.3	1	UNK0	0.000	
28	   C	-2.076	0.982	-3.032	C.3	1	UNK0	0.000	
29	   C	-2.601	2.382	2.880	C.2	1	UNK0	0.000	
30	   O	-3.560	2.700	3.621	O.2	1	UNK0	0.000	
31	   N	-1.336	2.969	3.128	N.pl3	1	UNK0	0.000	
32	   O	0.166	1.298	1.663	O.3	1	UNK0	0.000	
33	  Cl	0.403	-1.221	-2.349	Cl	1	UNK0	0.000	
34	   O	-3.706	-1.699	-0.867	O.3	1	UNK0	0.000	
35	   H	6.461	-2.618	-0.705	 H	1	UNK0	0.000	
36	   H	5.561	-3.050	-2.887	 H	1	UNK0	0.000	
37	   H	6.005	-2.098	1.709	 H	1	UNK0	0.000	
38	   H	0.327	-3.005	0.967	 H	1	UNK0	0.000	
39	   H	1.306	-0.644	-0.680	 H	1	UNK0	0.000	
40	   H	0.895	-2.450	-2.503	 H	1	UNK0	0.000	
41	   H	1.282	-4.360	-0.481	 H	1	UNK0	0.000	
42	   H	-1.167	-1.209	-1.761	 H	1	UNK0	0.000	
43	   H	-1.454	-1.744	-0.098	 H	1	UNK0	0.000	
44	   H	0.010	0.823	-0.645	 H	1	UNK0	0.000	
45	   H	-3.909	1.089	1.762	 H	1	UNK0	0.000	
46	   H	-2.934	0.286	-0.724	 H	1	UNK0	0.000	
47	   H	-0.395	2.667	-2.749	 H	1	UNK0	0.000	
48	   H	-1.572	3.759	-1.984	 H	1	UNK0	0.000	
49	   H	-0.356	2.805	-0.982	 H	1	UNK0	0.000	
50	   H	-2.899	0.246	-2.935	 H	1	UNK0	0.000	
51	   H	-2.410	1.681	-3.850	 H	1	UNK0	0.000	
52	   H	-1.126	0.554	-3.388	 H	1	UNK0	0.000	
53	   H	-0.706	2.683	3.904	 H	1	UNK0	0.000	
54	   H	-0.998	3.739	2.506	 H	1	UNK0	0.000	
55	   H	0.983	1.201	1.088	 H	1	UNK0	0.000	
56	   H	0.581	0.132	-2.411	 H	1	UNK0	0.000	
57	   H	-2.874	-1.892	-1.387	 H	1	UNK0	0.000	
58	   H	-4.272	-1.007	-1.309	 H	1	UNK0	0.000	
@<TRIPOS>BOND
1 1 2 1
2 2 3 2
3 2 7 1
4 3 4 1
5 3 13 1
6 4 5 2
7 4 9 1
8 5 6 1
9 5 8 1
10 6 7 2
11 9 10 2
12 9 11 1
13 11 12 1
14 11 18 1
15 12 13 1
16 12 15 1
17 13 14 1
18 15 16 1
19 16 17 1
20 16 25 1
21 17 18 1
22 17 20 1
23 17 32 1
24 18 19 2
25 20 21 2
26 20 22 1
27 22 23 1
28 22 29 1
29 23 24 2
30 23 25 1
31 25 26 1
32 26 27 1
33 26 28 1
34 29 30 2
35 29 31 1
36 6 35 1
37 7 36 1
38 8 37 1
39 11 38 1
40 12 39 1
41 13 40 1
42 14 41 1
43 15 42 1
44 15 43 1
45 16 44 1
46 22 45 1
47 25 46 1
48 27 47 1
49 27 48 1
50 27 49 1
51 28 50 1
52 28 51 1
53 28 52 1
54 31 53 1
55 31 54 1
56 32 55 1
57 33 56 1
58 34 57 1
59 34 58 1
@<TRIPOS>SUBSTRUCTURE
1	UNK0	1	GROUP	1 ****	UNK
