# created with PyMOL 2.3.2
@<TRIPOS>MOLECULE
2407
35 38 1                 
SMALL
USER_CHARGES
@<TRIPOS>ATOM
1	  Cl	-1.647	2.382	4.566	Cl	1	UNK0	0.000	
2	   C	-1.622	2.083	2.852	C.2	1	UNK0	0.000	
3	   C	-2.823	1.948	2.188	C.2	1	UNK0	0.000	
4	   C	-2.842	1.711	0.835	C.2	1	UNK0	0.000	
5	   C	-1.634	1.612	0.159	C.2	1	UNK0	0.000	
6	   C	-0.420	1.740	0.783	C.2	1	UNK0	0.000	
7	   C	-0.427	1.980	2.152	C.2	1	UNK0	0.000	
8	   C	0.848	1.637	0.076	C.2	1	UNK0	0.000	
9	   O	1.938	1.765	0.700	O.2	1	UNK0	0.000	
10	   N	0.897	1.391	-1.322	N.pl3	1	UNK0	0.000	
11	   C	2.193	1.295	-1.991	C.3	1	UNK0	0.000	
12	   C	3.014	0.195	-1.433	C.2	1	UNK0	0.000	
13	   N	3.001	-1.084	-1.890	N.pl3	1	UNK0	0.000	
14	   C	3.866	-1.763	-1.136	C.2	1	UNK0	0.000	
15	   N	4.410	-0.933	-0.226	N.2	1	UNK0	0.000	
16	   N	3.884	0.261	-0.416	N.2	1	UNK0	0.000	
17	   C	3.914	-3.212	-1.577	C.3	1	UNK0	0.000	
18	   C	2.604	-3.338	-2.330	C.3	1	UNK0	0.000	
19	   C	2.402	-1.969	-2.885	C.3	1	UNK0	0.000	
20	   O	-4.183	1.623	0.449	O.3	1	UNK0	0.000	
21	   C	-4.953	2.294	1.454	C.3	1	UNK0	0.000	
22	   O	-4.150	2.000	2.607	O.3	1	UNK0	0.000	
23	   H	-1.681	1.428	-0.891	 H	1	UNK0	0.000	
24	   H	0.510	2.083	2.662	 H	1	UNK0	0.000	
25	   H	0.047	1.273	-1.914	 H	1	UNK0	0.000	
26	   H	2.719	2.280	-1.861	 H	1	UNK0	0.000	
27	   H	2.070	1.156	-3.075	 H	1	UNK0	0.000	
28	   H	4.742	-3.391	-2.273	 H	1	UNK0	0.000	
29	   H	3.918	-3.895	-0.728	 H	1	UNK0	0.000	
30	   H	1.798	-3.665	-1.641	 H	1	UNK0	0.000	
31	   H	2.659	-4.064	-3.164	 H	1	UNK0	0.000	
32	   H	1.331	-1.786	-2.998	 H	1	UNK0	0.000	
33	   H	2.871	-1.858	-3.880	 H	1	UNK0	0.000	
34	   H	-5.966	1.912	1.538	 H	1	UNK0	0.000	
35	   H	-4.884	3.378	1.216	 H	1	UNK0	0.000	
@<TRIPOS>BOND
1 1 2 1
2 2 3 2
3 2 7 1
4 3 4 1
5 3 22 1
6 4 5 2
7 4 20 1
8 5 6 1
9 6 7 2
10 6 8 1
11 8 9 2
12 8 10 1
13 10 11 1
14 11 12 1
15 12 13 1
16 12 16 2
17 13 14 1
18 13 19 1
19 14 15 2
20 14 17 1
21 15 16 1
22 17 18 1
23 18 19 1
24 20 21 1
25 21 22 1
26 5 23 1
27 7 24 1
28 10 25 1
29 11 26 1
30 11 27 1
31 17 28 1
32 17 29 1
33 18 30 1
34 18 31 1
35 19 32 1
36 19 33 1
37 21 34 1
38 21 35 1
@<TRIPOS>SUBSTRUCTURE
1	UNK0	1	GROUP	1 ****	UNK
