# created with PyMOL 2.3.2
@<TRIPOS>MOLECULE
2408
40 43 1                 
SMALL
USER_CHARGES
@<TRIPOS>ATOM
1	  Cl	1.566	0.929	-3.955	Cl	1	UNK0	0.000	
2	   C	1.431	1.606	-2.361	C.2	1	UNK0	0.000	
3	   C	0.548	0.973	-1.459	C.2	1	UNK0	0.000	
4	   C	0.500	1.562	-0.230	C.2	1	UNK0	0.000	
5	   O	-0.246	1.086	0.665	O.co2	1	UNK0	0.000	
6	   O	1.225	2.644	0.088	O.3	1	UNK0	0.000	
7	   C	2.034	3.208	-0.769	C.2	1	UNK0	0.000	
8	   C	2.173	2.705	-2.046	C.2	1	UNK0	0.000	
9	   C	3.036	3.327	-2.921	C.2	1	UNK0	0.000	
10	   C	3.775	4.438	-2.582	C.2	1	UNK0	0.000	
11	   C	3.636	4.947	-1.294	C.2	1	UNK0	0.000	
12	   C	2.779	4.338	-0.407	C.2	1	UNK0	0.000	
13	   C	-0.153	-0.232	-1.890	C.3	1	UNK0	0.000	
14	   N	-1.088	-0.725	-0.972	N.3	1	UNK0	0.000	
15	   C	-2.341	-0.055	-0.890	C.3	1	UNK0	0.000	
16	   C	-3.005	-0.370	0.422	C.3	1	UNK0	0.000	
17	   C	-2.495	-1.602	1.071	C.2	1	UNK0	0.000	
18	   N	-2.918	-1.852	2.343	N.2	1	UNK0	0.000	
19	   C	-2.528	-2.935	3.034	C.2	1	UNK0	0.000	
20	   N	-1.687	-3.792	2.429	N.2	1	UNK0	0.000	
21	   C	-1.232	-3.595	1.165	C.2	1	UNK0	0.000	
22	   C	-1.629	-2.492	0.461	C.2	1	UNK0	0.000	
23	   C	-1.199	-2.166	-0.923	C.3	1	UNK0	0.000	
24	   O	-0.363	-4.490	0.554	O.3	1	UNK0	0.000	
25	   N	-2.996	-3.165	4.373	N.pl3	1	UNK0	0.000	
26	   H	3.142	2.932	-3.915	 H	1	UNK0	0.000	
27	   H	4.462	4.955	-3.235	 H	1	UNK0	0.000	
28	   H	4.222	5.833	-1.013	 H	1	UNK0	0.000	
29	   H	2.701	4.761	0.575	 H	1	UNK0	0.000	
30	   H	-0.734	0.016	-2.843	 H	1	UNK0	0.000	
31	   H	0.622	-0.997	-2.196	 H	1	UNK0	0.000	
32	   H	-3.036	-0.384	-1.731	 H	1	UNK0	0.000	
33	   H	-2.206	1.028	-1.039	 H	1	UNK0	0.000	
34	   H	-2.868	0.452	1.171	 H	1	UNK0	0.000	
35	   H	-4.100	-0.488	0.262	 H	1	UNK0	0.000	
36	   H	-1.883	-2.578	-1.681	 H	1	UNK0	0.000	
37	   H	-0.193	-2.584	-1.099	 H	1	UNK0	0.000	
38	   H	0.470	-4.170	0.081	 H	1	UNK0	0.000	
39	   H	-3.776	-3.809	4.586	 H	1	UNK0	0.000	
40	   H	-2.535	-2.666	5.162	 H	1	UNK0	0.000	
@<TRIPOS>BOND
1 1 2 1
2 2 3 2
3 2 8 1
4 3 4 1
5 3 13 1
6 4 5 2
7 4 6 1
8 6 7 1
9 7 8 2
10 7 12 1
11 8 9 1
12 9 10 2
13 10 11 1
14 11 12 2
15 13 14 1
16 14 15 1
17 14 23 1
18 15 16 1
19 16 17 1
20 17 18 2
21 17 22 1
22 18 19 1
23 19 20 2
24 19 25 1
25 20 21 1
26 21 22 2
27 21 24 1
28 22 23 1
29 9 26 1
30 10 27 1
31 11 28 1
32 12 29 1
33 13 30 1
34 13 31 1
35 15 32 1
36 15 33 1
37 16 34 1
38 16 35 1
39 23 36 1
40 23 37 1
41 24 38 1
42 25 39 1
43 25 40 1
@<TRIPOS>SUBSTRUCTURE
1	UNK0	1	GROUP	1 ****	UNK
