# created with PyMOL 2.3.2
@<TRIPOS>MOLECULE
2409
44 48 1                 
SMALL
USER_CHARGES
@<TRIPOS>ATOM
1	  Cl	2.339	3.510	-2.214	Cl	1	UNK0	0.000	
2	   C	2.205	1.772	-2.176	C.2	1	UNK0	0.000	
3	   C	2.105	0.996	-1.035	C.2	1	UNK0	0.000	
4	   N	2.016	-0.292	-1.367	N.pl3	1	UNK0	0.000	
5	   N	2.058	-0.336	-2.707	N.2	1	UNK0	0.000	
6	   C	2.171	0.881	-3.214	C.2	1	UNK0	0.000	
7	   C	1.880	-1.483	-0.538	C.3	1	UNK0	0.000	
8	   C	2.433	-1.203	0.810	C.3	1	UNK0	0.000	
9	   O	1.511	-0.895	1.798	O.3	1	UNK0	0.000	
10	   C	0.780	-2.102	1.872	C.3	1	UNK0	0.000	
11	   C	-0.245	-1.952	0.731	C.3	1	UNK0	0.000	
12	   C	0.460	-2.000	-0.561	C.3	1	UNK0	0.000	
13	   O	0.506	-3.313	-1.026	O.3	1	UNK0	0.000	
14	   N	-0.942	-0.749	1.042	N.3	1	UNK0	0.000	
15	   C	-1.378	0.088	0.017	C.3	1	UNK0	0.000	
16	   C	-2.003	1.311	0.589	C.2	1	UNK0	0.000	
17	   C	-1.959	1.598	1.934	C.2	1	UNK0	0.000	
18	   C	-2.563	2.778	2.356	C.2	1	UNK0	0.000	
19	   C	-3.192	3.655	1.495	C.2	1	UNK0	0.000	
20	   C	-3.214	3.333	0.163	C.2	1	UNK0	0.000	
21	   C	-2.632	2.184	-0.286	C.2	1	UNK0	0.000	
22	   O	-3.690	4.733	2.206	O.3	1	UNK0	0.000	
23	   C	-3.529	4.485	3.588	C.3	1	UNK0	0.000	
24	   O	-2.697	3.352	3.608	O.3	1	UNK0	0.000	
25	   C	1.809	-3.137	1.627	C.3	1	UNK0	0.000	
26	   O	2.965	-2.425	1.296	O.3	1	UNK0	0.000	
27	   H	2.102	1.376	-0.022	 H	1	UNK0	0.000	
28	   H	2.227	1.150	-4.273	 H	1	UNK0	0.000	
29	   H	2.589	-2.223	-1.021	 H	1	UNK0	0.000	
30	   H	3.201	-0.424	0.791	 H	1	UNK0	0.000	
31	   H	0.222	-2.181	2.805	 H	1	UNK0	0.000	
32	   H	-0.952	-2.786	0.873	 H	1	UNK0	0.000	
33	   H	-0.058	-1.434	-1.386	 H	1	UNK0	0.000	
34	   H	-0.262	-3.858	-0.777	 H	1	UNK0	0.000	
35	   H	-1.713	-0.877	1.736	 H	1	UNK0	0.000	
36	   H	-2.231	-0.433	-0.516	 H	1	UNK0	0.000	
37	   H	-0.700	0.406	-0.760	 H	1	UNK0	0.000	
38	   H	-1.474	0.932	2.624	 H	1	UNK0	0.000	
39	   H	-3.710	4.029	-0.501	 H	1	UNK0	0.000	
40	   H	-2.678	1.975	-1.347	 H	1	UNK0	0.000	
41	   H	-3.121	5.349	4.154	 H	1	UNK0	0.000	
42	   H	-4.522	4.169	4.010	 H	1	UNK0	0.000	
43	   H	1.562	-3.945	0.936	 H	1	UNK0	0.000	
44	   H	2.046	-3.642	2.611	 H	1	UNK0	0.000	
@<TRIPOS>BOND
1 1 2 1
2 2 3 2
3 2 6 1
4 3 4 1
5 4 5 1
6 4 7 1
7 5 6 2
8 7 8 1
9 7 12 1
10 8 9 1
11 8 26 1
12 9 10 1
13 10 11 1
14 10 25 1
15 11 12 1
16 11 14 1
17 12 13 1
18 14 15 1
19 15 16 1
20 16 17 2
21 16 21 1
22 17 18 1
23 18 19 2
24 18 24 1
25 19 20 1
26 19 22 1
27 20 21 2
28 22 23 1
29 23 24 1
30 25 26 1
31 3 27 1
32 6 28 1
33 7 29 1
34 8 30 1
35 10 31 1
36 11 32 1
37 12 33 1
38 13 34 1
39 14 35 1
40 15 36 1
41 15 37 1
42 17 38 1
43 20 39 1
44 21 40 1
45 23 41 1
46 23 42 1
47 25 43 1
48 25 44 1
@<TRIPOS>SUBSTRUCTURE
1	UNK0	1	GROUP	1 ****	UNK
