# created with PyMOL 2.3.2
@<TRIPOS>MOLECULE
2410
42 45 1                 
SMALL
USER_CHARGES
@<TRIPOS>ATOM
1	  Cl	-3.797	5.214	0.008	Cl	1	UNK0	0.000	
2	   C	-2.116	4.883	-0.443	C.2	1	UNK0	0.000	
3	   C	-1.839	3.644	-0.979	C.2	1	UNK0	0.000	
4	   C	-0.540	3.357	-1.339	C.2	1	UNK0	0.000	
5	   C	0.433	4.317	-1.151	C.2	1	UNK0	0.000	
6	   C	0.167	5.560	-0.615	C.2	1	UNK0	0.000	
7	   C	-1.142	5.852	-0.251	C.2	1	UNK0	0.000	
8	   C	-0.209	2.050	-1.911	C.3	1	UNK0	0.000	
9	   N	0.183	1.048	-1.026	N.3	1	UNK0	0.000	
10	   C	-0.714	0.640	-0.008	C.3	1	UNK0	0.000	
11	   C	0.065	0.274	1.226	C.3	1	UNK0	0.000	
12	   N	0.972	-0.858	0.830	N.pl3	1	UNK0	0.000	
13	   C	1.856	-0.503	-0.255	C.3	1	UNK0	0.000	
14	   C	1.527	0.952	-0.639	C.3	1	UNK0	0.000	
15	   C	0.851	-2.051	1.527	C.2	1	UNK0	0.000	
16	   O	-0.052	-2.049	2.458	O.2	1	UNK0	0.000	
17	   C	1.577	-3.270	1.362	C.2	1	UNK0	0.000	
18	   C	2.565	-3.467	0.440	C.2	1	UNK0	0.000	
19	   N	3.239	-4.638	0.305	N.pl3	1	UNK0	0.000	
20	   N	4.204	-5.035	-0.498	N.2	1	UNK0	0.000	
21	   N	4.538	-6.288	-0.245	N.2	1	UNK0	0.000	
22	   N	3.759	-6.694	0.748	N.2	1	UNK0	0.000	
23	   C	2.941	-5.669	1.102	C.2	1	UNK0	0.000	
24	   C	1.958	-5.529	2.045	C.2	1	UNK0	0.000	
25	   C	1.278	-4.359	2.186	C.2	1	UNK0	0.000	
26	   H	-2.654	2.925	-1.103	 H	1	UNK0	0.000	
27	   H	1.487	4.144	-1.420	 H	1	UNK0	0.000	
28	   H	0.924	6.319	-0.464	 H	1	UNK0	0.000	
29	   H	-1.418	6.821	0.180	 H	1	UNK0	0.000	
30	   H	-1.128	1.703	-2.471	 H	1	UNK0	0.000	
31	   H	0.566	2.161	-2.704	 H	1	UNK0	0.000	
32	   H	-1.490	1.346	0.277	 H	1	UNK0	0.000	
33	   H	-1.228	-0.291	-0.347	 H	1	UNK0	0.000	
34	   H	0.665	1.088	1.651	 H	1	UNK0	0.000	
35	   H	-0.590	-0.085	2.041	 H	1	UNK0	0.000	
36	   H	1.631	-1.079	-1.194	 H	1	UNK0	0.000	
37	   H	2.917	-0.465	0.021	 H	1	UNK0	0.000	
38	   H	2.160	1.140	-1.560	 H	1	UNK0	0.000	
39	   H	1.816	1.674	0.113	 H	1	UNK0	0.000	
40	   H	2.885	-2.698	-0.254	 H	1	UNK0	0.000	
41	   H	1.744	-6.390	2.674	 H	1	UNK0	0.000	
42	   H	0.493	-4.272	2.952	 H	1	UNK0	0.000	
@<TRIPOS>BOND
1 1 2 1
2 2 3 2
3 2 7 1
4 3 4 1
5 4 5 2
6 4 8 1
7 5 6 1
8 6 7 2
9 8 9 1
10 9 10 1
11 9 14 1
12 10 11 1
13 11 12 1
14 12 13 1
15 12 15 1
16 13 14 1
17 15 16 2
18 15 17 1
19 17 18 2
20 17 25 1
21 18 19 1
22 19 20 1
23 19 23 1
24 20 21 2
25 21 22 1
26 22 23 2
27 23 24 1
28 24 25 2
29 3 26 1
30 5 27 1
31 6 28 1
32 7 29 1
33 8 30 1
34 8 31 1
35 10 32 1
36 10 33 1
37 11 34 1
38 11 35 1
39 13 36 1
40 13 37 1
41 14 38 1
42 14 39 1
43 18 40 1
44 24 41 1
45 25 42 1
@<TRIPOS>SUBSTRUCTURE
1	UNK0	1	GROUP	1 ****	UNK
