# created with PyMOL 2.3.2
@<TRIPOS>MOLECULE
2411
56 59 1                 
SMALL
USER_CHARGES
@<TRIPOS>ATOM
1	  Cl	1.248	-4.378	-3.271	Cl	1	UNK0	0.000	
2	   C	-0.172	-3.352	-3.529	C.2	1	UNK0	0.000	
3	   C	-0.873	-2.841	-2.433	C.2	1	UNK0	0.000	
4	   C	-1.961	-2.057	-2.681	C.2	1	UNK0	0.000	
5	   C	-2.369	-1.766	-3.958	C.2	1	UNK0	0.000	
6	   C	-1.695	-2.257	-5.052	C.2	1	UNK0	0.000	
7	   C	-0.601	-3.047	-4.793	C.2	1	UNK0	0.000	
8	   O	-0.400	-3.182	-1.209	O.3	1	UNK0	0.000	
9	   C	-0.831	-2.841	0.064	C.3	1	UNK0	0.000	
10	   C	-0.693	-1.372	0.362	C.3	1	UNK0	0.000	
11	   O	-1.216	-1.196	1.663	O.3	1	UNK0	0.000	
12	   C	0.794	-0.989	0.439	C.3	1	UNK0	0.000	
13	   N	0.968	0.411	0.739	N.pl3	1	UNK0	0.000	
14	   C	1.131	0.947	1.992	C.2	1	UNK0	0.000	
15	   C	1.227	2.315	1.867	C.2	1	UNK0	0.000	
16	   N	1.123	2.583	0.554	N.2	1	UNK0	0.000	
17	   C	0.967	1.428	-0.139	C.2	1	UNK0	0.000	
18	   N	0.845	1.287	-1.549	N.pl3	1	UNK0	0.000	
19	   C	-0.362	1.525	-2.253	C.3	1	UNK0	0.000	
20	   C	-0.167	1.837	-3.714	C.3	1	UNK0	0.000	
21	   N	0.834	1.071	-4.359	N.3	1	UNK0	0.000	
22	   C	1.500	0.115	-3.505	C.3	1	UNK0	0.000	
23	   C	2.041	0.881	-2.316	C.3	1	UNK0	0.000	
24	   N	1.406	3.106	2.938	N.pl3	1	UNK0	0.000	
25	   C	1.493	2.519	4.156	C.2	1	UNK0	0.000	
26	   O	1.660	3.206	5.201	O.2	1	UNK0	0.000	
27	   N	1.405	1.189	4.299	N.pl3	1	UNK0	0.000	
28	   C	1.225	0.375	3.237	C.2	1	UNK0	0.000	
29	   O	1.148	-0.870	3.371	O.2	1	UNK0	0.000	
30	   C	1.500	0.526	5.597	C.3	1	UNK0	0.000	
31	   C	1.502	4.559	2.844	C.3	1	UNK0	0.000	
32	   H	-2.549	-1.652	-1.877	 H	1	UNK0	0.000	
33	   H	-3.242	-1.135	-4.171	 H	1	UNK0	0.000	
34	   H	-2.005	-2.036	-6.072	 H	1	UNK0	0.000	
35	   H	-0.030	-3.464	-5.633	 H	1	UNK0	0.000	
36	   H	-1.918	-3.157	0.116	 H	1	UNK0	0.000	
37	   H	-0.344	-3.457	0.862	 H	1	UNK0	0.000	
38	   H	-1.245	-0.698	-0.274	 H	1	UNK0	0.000	
39	   H	-1.752	-0.390	1.742	 H	1	UNK0	0.000	
40	   H	1.256	-1.642	1.188	 H	1	UNK0	0.000	
41	   H	1.177	-1.207	-0.590	 H	1	UNK0	0.000	
42	   H	-1.017	0.637	-2.208	 H	1	UNK0	0.000	
43	   H	-0.904	2.354	-1.738	 H	1	UNK0	0.000	
44	   H	-1.111	1.797	-4.288	 H	1	UNK0	0.000	
45	   H	0.159	2.919	-3.753	 H	1	UNK0	0.000	
46	   H	1.513	1.570	-4.943	 H	1	UNK0	0.000	
47	   H	0.788	-0.615	-3.102	 H	1	UNK0	0.000	
48	   H	2.303	-0.363	-4.114	 H	1	UNK0	0.000	
49	   H	2.713	0.262	-1.689	 H	1	UNK0	0.000	
50	   H	2.508	1.795	-2.686	 H	1	UNK0	0.000	
51	   H	0.867	-0.405	5.578	 H	1	UNK0	0.000	
52	   H	1.107	1.156	6.406	 H	1	UNK0	0.000	
53	   H	2.537	0.160	5.794	 H	1	UNK0	0.000	
54	   H	0.974	4.990	3.731	 H	1	UNK0	0.000	
55	   H	0.957	4.964	1.964	 H	1	UNK0	0.000	
56	   H	2.535	4.898	2.795	 H	1	UNK0	0.000	
@<TRIPOS>BOND
1 1 2 1
2 2 3 2
3 2 7 1
4 3 4 1
5 3 8 1
6 4 5 2
7 5 6 1
8 6 7 2
9 8 9 1
10 9 10 1
11 10 11 1
12 10 12 1
13 12 13 1
14 13 14 1
15 13 17 1
16 14 15 2
17 14 28 1
18 15 16 1
19 15 24 1
20 16 17 2
21 17 18 1
22 18 19 1
23 18 23 1
24 19 20 1
25 20 21 1
26 21 22 1
27 22 23 1
28 24 25 1
29 24 31 1
30 25 26 2
31 25 27 1
32 27 28 1
33 27 30 1
34 28 29 2
35 4 32 1
36 5 33 1
37 6 34 1
38 7 35 1
39 9 36 1
40 9 37 1
41 10 38 1
42 11 39 1
43 12 40 1
44 12 41 1
45 19 42 1
46 19 43 1
47 20 44 1
48 20 45 1
49 21 46 1
50 22 47 1
51 22 48 1
52 23 49 1
53 23 50 1
54 30 51 1
55 30 52 1
56 30 53 1
57 31 54 1
58 31 55 1
59 31 56 1
@<TRIPOS>SUBSTRUCTURE
1	UNK0	1	GROUP	1 ****	UNK
