# created with PyMOL 2.3.2
@<TRIPOS>MOLECULE
2417
53 56 1                 
SMALL
USER_CHARGES
@<TRIPOS>ATOM
1	  Cl	2.113	-2.464	-1.367	Cl	1	UNK0	0.000	
2	   C	2.468	-0.986	-0.479	C.2	1	UNK0	0.000	
3	   C	1.891	-0.833	0.759	C.2	1	UNK0	0.000	
4	   C	2.248	0.275	1.492	C.2	1	UNK0	0.000	
5	   N	1.489	0.213	2.608	N.pl3	1	UNK0	0.000	
6	   N	0.715	-0.838	2.555	N.2	1	UNK0	0.000	
7	   C	0.914	-1.565	1.396	C.2	1	UNK0	0.000	
8	   C	0.333	-2.845	1.078	C.3	1	UNK0	0.000	
9	   N	-1.102	-2.865	0.756	N.3	1	UNK0	0.000	
10	   C	-1.201	-2.541	-0.686	C.3	1	UNK0	0.000	
11	   C	-1.415	-1.097	-0.676	C.3	1	UNK0	0.000	
12	   C	-2.575	-0.990	0.301	C.3	1	UNK0	0.000	
13	   C	-1.949	-1.953	1.397	C.3	1	UNK0	0.000	
14	   C	-3.777	-1.746	-0.187	C.3	1	UNK0	0.000	
15	   O	-4.865	-1.510	0.694	O.3	1	UNK0	0.000	
16	   C	-1.787	-0.477	-2.000	C.3	1	UNK0	0.000	
17	   N	-2.016	0.919	-1.797	N.3	1	UNK0	0.000	
18	   C	-0.810	1.648	-1.465	C.3	1	UNK0	0.000	
19	   C	-0.493	2.766	-2.431	C.3	1	UNK0	0.000	
20	   O	-1.529	3.651	-2.623	O.3	1	UNK0	0.000	
21	   C	-2.777	3.035	-2.601	C.3	1	UNK0	0.000	
22	   C	-2.619	1.582	-2.930	C.3	1	UNK0	0.000	
23	   C	1.624	1.134	3.750	C.3	1	UNK0	0.000	
24	   C	3.126	1.210	1.035	C.2	1	UNK0	0.000	
25	   C	3.699	1.041	-0.229	C.2	1	UNK0	0.000	
26	   C	3.354	-0.074	-0.986	C.2	1	UNK0	0.000	
27	   H	0.828	-3.576	0.492	 H	1	UNK0	0.000	
28	   H	0.272	-3.384	2.126	 H	1	UNK0	0.000	
29	   H	-0.407	-2.966	-1.293	 H	1	UNK0	0.000	
30	   H	-2.126	-3.079	-1.045	 H	1	UNK0	0.000	
31	   H	-0.623	-0.495	-0.255	 H	1	UNK0	0.000	
32	   H	-2.710	-0.008	0.701	 H	1	UNK0	0.000	
33	   H	-1.589	-1.283	2.136	 H	1	UNK0	0.000	
34	   H	-2.868	-2.477	1.835	 H	1	UNK0	0.000	
35	   H	-3.587	-2.876	-0.007	 H	1	UNK0	0.000	
36	   H	-4.084	-1.672	-1.196	 H	1	UNK0	0.000	
37	   H	-5.048	-0.495	0.631	 H	1	UNK0	0.000	
38	   H	-0.908	-0.592	-2.648	 H	1	UNK0	0.000	
39	   H	-2.640	-0.984	-2.469	 H	1	UNK0	0.000	
40	   H	-0.910	2.037	-0.444	 H	1	UNK0	0.000	
41	   H	0.089	0.966	-1.480	 H	1	UNK0	0.000	
42	   H	-0.094	2.325	-3.347	 H	1	UNK0	0.000	
43	   H	0.334	3.345	-1.943	 H	1	UNK0	0.000	
44	   H	-3.187	3.170	-1.587	 H	1	UNK0	0.000	
45	   H	-3.426	3.545	-3.361	 H	1	UNK0	0.000	
46	   H	-3.596	1.118	-3.181	 H	1	UNK0	0.000	
47	   H	-1.900	1.485	-3.766	 H	1	UNK0	0.000	
48	   H	2.740	1.181	4.013	 H	1	UNK0	0.000	
49	   H	1.188	0.697	4.663	 H	1	UNK0	0.000	
50	   H	1.353	2.120	3.455	 H	1	UNK0	0.000	
51	   H	3.338	2.167	1.564	 H	1	UNK0	0.000	
52	   H	4.348	1.758	-0.652	 H	1	UNK0	0.000	
53	   H	3.762	-0.266	-1.950	 H	1	UNK0	0.000	
@<TRIPOS>BOND
1 1 2 1
2 2 3 2
3 2 26 1
4 3 4 1
5 3 7 1
6 4 5 1
7 4 24 2
8 5 6 1
9 5 23 1
10 6 7 2
11 7 8 1
12 8 9 1
13 9 10 1
14 9 13 1
15 10 11 1
16 11 12 1
17 11 16 1
18 12 13 1
19 12 14 1
20 14 15 1
21 16 17 1
22 17 18 1
23 17 22 1
24 18 19 1
25 19 20 1
26 20 21 1
27 21 22 1
28 24 25 1
29 25 26 2
30 8 27 1
31 8 28 1
32 10 29 1
33 10 30 1
34 11 31 1
35 12 32 1
36 13 33 1
37 13 34 1
38 14 35 1
39 14 36 1
40 15 37 1
41 16 38 1
42 16 39 1
43 18 40 1
44 18 41 1
45 19 42 1
46 19 43 1
47 21 44 1
48 21 45 1
49 22 46 1
50 22 47 1
51 23 48 1
52 23 49 1
53 23 50 1
54 24 51 1
55 25 52 1
56 26 53 1
@<TRIPOS>SUBSTRUCTURE
1	UNK0	1	GROUP	1 ****	UNK
