# created with PyMOL 2.3.2
@<TRIPOS>MOLECULE
2418
53 56 1                 
SMALL
USER_CHARGES
@<TRIPOS>ATOM
1	  Cl	4.914	0.745	0.339	Cl	1	UNK0	0.000	
2	   C	3.589	0.436	1.434	C.2	1	UNK0	0.000	
3	   C	3.922	-0.055	2.695	C.2	1	UNK0	0.000	
4	   C	2.899	-0.310	3.583	C.2	1	UNK0	0.000	
5	   C	1.564	-0.088	3.246	C.2	1	UNK0	0.000	
6	   C	1.248	0.399	1.995	C.2	1	UNK0	0.000	
7	   C	2.269	0.655	1.105	C.2	1	UNK0	0.000	
8	   C	-0.182	0.634	1.641	C.3	1	UNK0	0.000	
9	   N	-0.862	-0.562	1.268	N.3	1	UNK0	0.000	
10	   C	-0.350	-1.261	0.169	C.3	1	UNK0	0.000	
11	   C	-1.349	-1.734	-0.856	C.3	1	UNK0	0.000	
12	   N	-2.676	-1.233	-0.585	N.pl3	1	UNK0	0.000	
13	   C	-3.071	-1.560	0.820	C.3	1	UNK0	0.000	
14	   C	-2.194	-0.707	1.671	C.3	1	UNK0	0.000	
15	   C	-3.543	-0.535	-1.411	C.2	1	UNK0	0.000	
16	   O	-4.723	-0.316	-0.868	O.2	1	UNK0	0.000	
17	   C	-3.436	0.004	-2.748	C.3	1	UNK0	0.000	
18	   N	-2.182	-0.036	-3.397	N.3	1	UNK0	0.000	
19	   C	-1.207	0.919	-2.966	C.3	1	UNK0	0.000	
20	   C	-0.164	1.014	-4.094	C.3	1	UNK0	0.000	
21	   O	-0.703	1.583	-5.232	O.3	1	UNK0	0.000	
22	   C	-2.076	1.319	-5.358	C.3	1	UNK0	0.000	
23	   C	-2.300	-0.095	-4.839	C.3	1	UNK0	0.000	
24	   O	3.254	-0.799	4.831	O.3	1	UNK0	0.000	
25	   C	4.532	-0.732	5.391	C.3	1	UNK0	0.000	
26	   C	5.638	-0.492	4.417	C.3	1	UNK0	0.000	
27	   O	5.212	-0.297	3.092	O.3	1	UNK0	0.000	
28	   H	0.830	-0.313	4.001	 H	1	UNK0	0.000	
29	   H	2.049	1.038	0.123	 H	1	UNK0	0.000	
30	   H	-0.715	1.224	2.412	 H	1	UNK0	0.000	
31	   H	-0.166	1.295	0.726	 H	1	UNK0	0.000	
32	   H	0.384	-0.622	-0.371	 H	1	UNK0	0.000	
33	   H	0.292	-2.118	0.546	 H	1	UNK0	0.000	
34	   H	-1.022	-1.696	-1.888	 H	1	UNK0	0.000	
35	   H	-1.447	-2.858	-0.646	 H	1	UNK0	0.000	
36	   H	-4.141	-1.337	0.969	 H	1	UNK0	0.000	
37	   H	-2.851	-2.629	0.976	 H	1	UNK0	0.000	
38	   H	-2.670	0.320	1.667	 H	1	UNK0	0.000	
39	   H	-2.247	-1.118	2.718	 H	1	UNK0	0.000	
40	   H	-3.854	1.072	-2.753	 H	1	UNK0	0.000	
41	   H	-4.165	-0.518	-3.468	 H	1	UNK0	0.000	
42	   H	-1.639	1.948	-2.866	 H	1	UNK0	0.000	
43	   H	-0.661	0.640	-2.078	 H	1	UNK0	0.000	
44	   H	0.220	-0.012	-4.247	 H	1	UNK0	0.000	
45	   H	0.697	1.642	-3.757	 H	1	UNK0	0.000	
46	   H	-2.366	1.339	-6.416	 H	1	UNK0	0.000	
47	   H	-2.687	1.992	-4.743	 H	1	UNK0	0.000	
48	   H	-3.349	-0.389	-5.089	 H	1	UNK0	0.000	
49	   H	-1.621	-0.818	-5.294	 H	1	UNK0	0.000	
50	   H	4.694	-1.702	5.939	 H	1	UNK0	0.000	
51	   H	4.511	0.058	6.194	 H	1	UNK0	0.000	
52	   H	6.328	-1.384	4.406	 H	1	UNK0	0.000	
53	   H	6.268	0.385	4.733	 H	1	UNK0	0.000	
@<TRIPOS>BOND
1 1 2 1
2 2 3 2
3 2 7 1
4 3 4 1
5 3 27 1
6 4 5 2
7 4 24 1
8 5 6 1
9 6 7 2
10 6 8 1
11 8 9 1
12 9 10 1
13 9 14 1
14 10 11 1
15 11 12 1
16 12 13 1
17 12 15 1
18 13 14 1
19 15 16 2
20 15 17 1
21 17 18 1
22 18 19 1
23 18 23 1
24 19 20 1
25 20 21 1
26 21 22 1
27 22 23 1
28 24 25 1
29 25 26 1
30 26 27 1
31 5 28 1
32 7 29 1
33 8 30 1
34 8 31 1
35 10 32 1
36 10 33 1
37 11 34 1
38 11 35 1
39 13 36 1
40 13 37 1
41 14 38 1
42 14 39 1
43 17 40 1
44 17 41 1
45 19 42 1
46 19 43 1
47 20 44 1
48 20 45 1
49 22 46 1
50 22 47 1
51 23 48 1
52 23 49 1
53 25 50 1
54 25 51 1
55 26 52 1
56 26 53 1
@<TRIPOS>SUBSTRUCTURE
1	UNK0	1	GROUP	1 ****	UNK
