# created with PyMOL 2.3.2
@<TRIPOS>MOLECULE
2421
43 46 1                 
SMALL
USER_CHARGES
@<TRIPOS>ATOM
1	  Cl	1.437	-3.526	3.669	Cl	1	UNK0	0.000	
2	   C	0.347	-2.126	3.655	C.2	1	UNK0	0.000	
3	   C	-0.312	-1.791	2.477	C.2	1	UNK0	0.000	
4	   C	-1.155	-0.703	2.479	C.2	1	UNK0	0.000	
5	   C	-1.329	0.021	3.627	C.2	1	UNK0	0.000	
6	   C	-0.689	-0.280	4.830	C.2	1	UNK0	0.000	
7	   C	0.146	-1.376	4.785	C.2	1	UNK0	0.000	
8	   C	-0.078	-2.634	1.302	C.3	1	UNK0	0.000	
9	   C	1.206	-2.487	0.591	C.3	1	UNK0	0.000	
10	   N	1.568	-1.271	0.021	N.3	1	UNK0	0.000	
11	   C	1.896	-0.154	0.782	C.3	1	UNK0	0.000	
12	   C	1.467	1.161	0.226	C.3	1	UNK0	0.000	
13	   N	0.651	0.976	-0.919	N.pl3	1	UNK0	0.000	
14	   C	1.226	0.121	-1.969	C.3	1	UNK0	0.000	
15	   C	1.684	-1.190	-1.390	C.3	1	UNK0	0.000	
16	   C	-0.628	1.509	-1.181	C.2	1	UNK0	0.000	
17	   N	-1.315	1.189	-2.305	N.2	1	UNK0	0.000	
18	   N	-2.524	1.692	-2.562	N.pl3	1	UNK0	0.000	
19	   C	-3.099	2.540	-1.697	C.2	1	UNK0	0.000	
20	   N	-4.300	2.870	-2.227	N.2	1	UNK0	0.000	
21	   N	-4.436	2.234	-3.377	N.2	1	UNK0	0.000	
22	   C	-3.346	1.486	-3.623	C.2	1	UNK0	0.000	
23	   C	-2.478	2.928	-0.521	C.2	1	UNK0	0.000	
24	   C	-1.210	2.374	-0.295	C.2	1	UNK0	0.000	
25	   H	-1.677	-0.428	1.571	 H	1	UNK0	0.000	
26	   H	-1.995	0.897	3.671	 H	1	UNK0	0.000	
27	   H	-0.853	0.317	5.718	 H	1	UNK0	0.000	
28	   H	0.678	-1.663	5.700	 H	1	UNK0	0.000	
29	   H	-0.164	-3.711	1.633	 H	1	UNK0	0.000	
30	   H	-0.970	-2.481	0.625	 H	1	UNK0	0.000	
31	   H	2.044	-2.783	1.306	 H	1	UNK0	0.000	
32	   H	1.290	-3.290	-0.200	 H	1	UNK0	0.000	
33	   H	3.033	-0.128	0.861	 H	1	UNK0	0.000	
34	   H	1.585	-0.280	1.840	 H	1	UNK0	0.000	
35	   H	2.399	1.714	-0.108	 H	1	UNK0	0.000	
36	   H	1.054	1.814	1.020	 H	1	UNK0	0.000	
37	   H	2.103	0.679	-2.356	 H	1	UNK0	0.000	
38	   H	0.533	-0.028	-2.815	 H	1	UNK0	0.000	
39	   H	2.734	-1.377	-1.689	 H	1	UNK0	0.000	
40	   H	1.065	-1.990	-1.842	 H	1	UNK0	0.000	
41	   H	-3.154	0.843	-4.497	 H	1	UNK0	0.000	
42	   H	-2.912	3.599	0.180	 H	1	UNK0	0.000	
43	   H	-0.686	2.644	0.602	 H	1	UNK0	0.000	
@<TRIPOS>BOND
1 1 2 1
2 2 3 2
3 2 7 1
4 3 4 1
5 3 8 1
6 4 5 2
7 5 6 1
8 6 7 2
9 8 9 1
10 9 10 1
11 10 11 1
12 10 15 1
13 11 12 1
14 12 13 1
15 13 14 1
16 13 16 1
17 14 15 1
18 16 17 2
19 16 24 1
20 17 18 1
21 18 19 1
22 18 22 1
23 19 20 2
24 19 23 1
25 20 21 1
26 21 22 2
27 23 24 2
28 4 25 1
29 5 26 1
30 6 27 1
31 7 28 1
32 8 29 1
33 8 30 1
34 9 31 1
35 9 32 1
36 11 33 1
37 11 34 1
38 12 35 1
39 12 36 1
40 14 37 1
41 14 38 1
42 15 39 1
43 15 40 1
44 22 41 1
45 23 42 1
46 24 43 1
@<TRIPOS>SUBSTRUCTURE
1	UNK0	1	GROUP	1 ****	UNK
