# created with PyMOL 2.3.2
@<TRIPOS>MOLECULE
2422
58 61 1                 
SMALL
USER_CHARGES
@<TRIPOS>ATOM
1	   S	-1.554	-3.986	-1.384	S.O2	1	UNK0	0.000	
2	   O	-2.876	-4.658	-0.988	O.2	1	UNK0	0.000	
3	   O	-0.707	-5.073	-2.028	O.2	1	UNK0	0.000	
4	   N	-1.867	-2.813	-2.527	N.3	1	UNK0	0.000	
5	   C	-2.685	-1.704	-2.277	C.3	1	UNK0	0.000	
6	   C	-1.826	-0.542	-1.819	C.3	1	UNK0	0.000	
7	   N	-1.143	-0.035	-2.959	N.3	1	UNK0	0.000	
8	   C	-0.774	-1.075	-3.845	C.3	1	UNK0	0.000	
9	   C	-0.664	-2.449	-3.285	C.3	1	UNK0	0.000	
10	   C	-0.191	0.993	-2.732	C.3	1	UNK0	0.000	
11	   C	-0.791	2.310	-2.305	C.3	1	UNK0	0.000	
12	   C	-1.734	2.875	-3.323	C.3	1	UNK0	0.000	
13	   C	-0.728	-3.507	0.064	C.2	1	UNK0	0.000	
14	   C	0.639	-3.808	0.214	C.2	1	UNK0	0.000	
15	   C	1.318	-3.386	1.321	C.2	1	UNK0	0.000	
16	   C	0.668	-2.655	2.314	C.2	1	UNK0	0.000	
17	   C	-0.655	-2.364	2.171	C.2	1	UNK0	0.000	
18	   C	-1.348	-2.793	1.046	C.2	1	UNK0	0.000	
19	  Cl	-3.055	-2.411	1.019	Cl	1	UNK0	0.000	
20	   N	1.358	-2.195	3.463	N.pl3	1	UNK0	0.000	
21	   C	2.737	-2.512	3.556	C.2	1	UNK0	0.000	
22	   O	3.424	-2.135	4.539	O.2	1	UNK0	0.000	
23	   C	3.445	-3.298	2.513	C.3	1	UNK0	0.000	
24	   O	2.642	-3.689	1.444	O.3	1	UNK0	0.000	
25	   C	0.696	-1.440	4.466	C.3	1	UNK0	0.000	
26	   C	0.735	0.025	4.114	C.2	1	UNK0	0.000	
27	   N	0.407	1.067	4.892	N.2	1	UNK0	0.000	
28	   O	0.573	2.186	4.208	O.3	1	UNK0	0.000	
29	   C	1.002	1.913	3.003	C.2	1	UNK0	0.000	
30	   N	1.107	0.557	2.932	N.2	1	UNK0	0.000	
31	   C	1.308	2.901	1.934	C.3	1	UNK0	0.000	
32	   C	2.765	3.344	1.989	C.3	1	UNK0	0.000	
33	   H	-3.566	-1.813	-1.658	 H	1	UNK0	0.000	
34	   H	-3.045	-1.358	-3.325	 H	1	UNK0	0.000	
35	   H	-2.524	0.182	-1.350	 H	1	UNK0	0.000	
36	   H	-1.133	-0.848	-0.996	 H	1	UNK0	0.000	
37	   H	0.181	-0.837	-4.398	 H	1	UNK0	0.000	
38	   H	-1.546	-1.126	-4.671	 H	1	UNK0	0.000	
39	   H	0.259	-2.605	-2.671	 H	1	UNK0	0.000	
40	   H	-0.592	-3.166	-4.130	 H	1	UNK0	0.000	
41	   H	0.308	1.196	-3.724	 H	1	UNK0	0.000	
42	   H	0.571	0.722	-1.961	 H	1	UNK0	0.000	
43	   H	-1.231	2.193	-1.317	 H	1	UNK0	0.000	
44	   H	0.073	3.021	-2.216	 H	1	UNK0	0.000	
45	   H	-1.842	2.203	-4.209	 H	1	UNK0	0.000	
46	   H	-2.732	3.116	-2.909	 H	1	UNK0	0.000	
47	   H	-1.352	3.842	-3.757	 H	1	UNK0	0.000	
48	   H	1.095	-4.370	-0.570	 H	1	UNK0	0.000	
49	   H	-1.149	-1.804	2.933	 H	1	UNK0	0.000	
50	   H	4.289	-2.695	2.072	 H	1	UNK0	0.000	
51	   H	3.880	-4.196	3.036	 H	1	UNK0	0.000	
52	   H	-0.289	-1.777	4.767	 H	1	UNK0	0.000	
53	   H	1.324	-1.530	5.407	 H	1	UNK0	0.000	
54	   H	0.634	3.765	1.950	 H	1	UNK0	0.000	
55	   H	1.190	2.363	0.948	 H	1	UNK0	0.000	
56	   H	2.915	4.349	1.551	 H	1	UNK0	0.000	
57	   H	3.429	2.568	1.548	 H	1	UNK0	0.000	
58	   H	3.044	3.407	3.060	 H	1	UNK0	0.000	
@<TRIPOS>BOND
1 1 2 2
2 1 3 2
3 1 4 1
4 1 13 1
5 4 5 1
6 4 9 1
7 5 6 1
8 6 7 1
9 7 8 1
10 7 10 1
11 8 9 1
12 10 11 1
13 11 12 1
14 13 14 2
15 13 18 1
16 14 15 1
17 15 16 2
18 15 24 1
19 16 17 1
20 16 20 1
21 17 18 2
22 18 19 1
23 20 21 1
24 20 25 1
25 21 22 2
26 21 23 1
27 23 24 1
28 25 26 1
29 26 27 2
30 26 30 1
31 27 28 1
32 28 29 1
33 29 30 2
34 29 31 1
35 31 32 1
36 5 33 1
37 5 34 1
38 6 35 1
39 6 36 1
40 8 37 1
41 8 38 1
42 9 39 1
43 9 40 1
44 10 41 1
45 10 42 1
46 11 43 1
47 11 44 1
48 12 45 1
49 12 46 1
50 12 47 1
51 14 48 1
52 17 49 1
53 23 50 1
54 23 51 1
55 25 52 1
56 25 53 1
57 31 54 1
58 31 55 1
59 32 56 1
60 32 57 1
61 32 58 1
@<TRIPOS>SUBSTRUCTURE
1	UNK0	1	GROUP	1 ****	UNK
