# created with PyMOL 2.3.2
@<TRIPOS>MOLECULE
2423
62 66 1                 
SMALL
USER_CHARGES
@<TRIPOS>ATOM
1	  Cl	3.609	-1.519	0.025	Cl	1	UNK0	0.000	
2	   C	2.369	-1.979	1.151	C.2	1	UNK0	0.000	
3	   C	1.926	-1.053	2.061	C.2	1	UNK0	0.000	
4	   C	0.916	-1.507	2.909	C.2	1	UNK0	0.000	
5	   N	0.447	-2.762	2.806	N.2	1	UNK0	0.000	
6	   N	0.877	-3.649	1.929	N.pl3	1	UNK0	0.000	
7	   C	1.839	-3.280	1.089	C.2	1	UNK0	0.000	
8	   O	2.331	-4.036	0.210	O.2	1	UNK0	0.000	
9	   C	0.337	-4.964	1.870	C.2	1	UNK0	0.000	
10	   C	0.509	-5.832	2.943	C.2	1	UNK0	0.000	
11	   C	-0.004	-7.112	2.910	C.2	1	UNK0	0.000	
12	   C	-0.690	-7.485	1.770	C.2	1	UNK0	0.000	
13	   C	-0.861	-6.620	0.702	C.2	1	UNK0	0.000	
14	   C	-0.348	-5.341	0.734	C.2	1	UNK0	0.000	
15	   N	2.419	0.251	2.210	N.pl3	1	UNK0	0.000	
16	   C	1.539	1.185	2.948	C.3	1	UNK0	0.000	
17	   C	1.868	2.579	2.553	C.3	1	UNK0	0.000	
18	   N	2.303	2.738	1.200	N.pl3	1	UNK0	0.000	
19	   C	3.323	1.841	0.706	C.3	1	UNK0	0.000	
20	   C	3.654	0.802	1.776	C.3	1	UNK0	0.000	
21	   C	1.753	3.744	0.362	C.2	1	UNK0	0.000	
22	   O	0.858	4.510	0.833	O.2	1	UNK0	0.000	
23	   C	2.242	3.858	-1.008	C.3	1	UNK0	0.000	
24	   C	1.515	4.707	-1.974	C.3	1	UNK0	0.000	
25	   N	0.150	4.336	-2.275	N.pl3	1	UNK0	0.000	
26	   C	-1.091	4.768	-1.748	C.2	1	UNK0	0.000	
27	   O	-1.226	5.657	-0.872	O.2	1	UNK0	0.000	
28	   N	-2.168	4.030	-2.381	N.pl3	1	UNK0	0.000	
29	   C	-1.526	2.820	-2.822	C.3	1	UNK0	0.000	
30	   C	-1.312	1.850	-1.681	C.3	1	UNK0	0.000	
31	   C	-2.520	0.971	-1.770	C.3	1	UNK0	0.000	
32	   C	-2.598	0.727	-3.283	C.3	1	UNK0	0.000	
33	   C	-2.293	2.103	-3.892	C.3	1	UNK0	0.000	
34	   C	-0.219	3.312	-3.255	C.2	1	UNK0	0.000	
35	   O	0.518	2.999	-4.235	O.2	1	UNK0	0.000	
36	   H	0.535	-0.810	3.653	 H	1	UNK0	0.000	
37	   H	1.048	-5.534	3.835	 H	1	UNK0	0.000	
38	   H	0.130	-7.786	3.747	 H	1	UNK0	0.000	
39	   H	-1.097	-8.479	1.727	 H	1	UNK0	0.000	
40	   H	-1.400	-6.912	-0.196	 H	1	UNK0	0.000	
41	   H	-0.477	-4.653	-0.102	 H	1	UNK0	0.000	
42	   H	0.464	0.944	2.686	 H	1	UNK0	0.000	
43	   H	1.622	0.998	4.037	 H	1	UNK0	0.000	
44	   H	0.991	3.249	2.784	 H	1	UNK0	0.000	
45	   H	2.701	2.930	3.217	 H	1	UNK0	0.000	
46	   H	2.962	1.379	-0.215	 H	1	UNK0	0.000	
47	   H	4.203	2.460	0.440	 H	1	UNK0	0.000	
48	   H	4.477	0.154	1.553	 H	1	UNK0	0.000	
49	   H	4.022	1.446	2.646	 H	1	UNK0	0.000	
50	   H	2.183	2.800	-1.433	 H	1	UNK0	0.000	
51	   H	3.338	4.120	-1.038	 H	1	UNK0	0.000	
52	   H	1.458	5.762	-1.606	 H	1	UNK0	0.000	
53	   H	2.109	4.683	-2.940	 H	1	UNK0	0.000	
54	   H	-3.145	4.376	-2.451	 H	1	UNK0	0.000	
55	   H	-0.372	1.305	-1.889	 H	1	UNK0	0.000	
56	   H	-1.261	2.432	-0.740	 H	1	UNK0	0.000	
57	   H	-2.366	0.027	-1.236	 H	1	UNK0	0.000	
58	   H	-3.396	1.551	-1.427	 H	1	UNK0	0.000	
59	   H	-1.776	0.031	-3.522	 H	1	UNK0	0.000	
60	   H	-3.562	0.335	-3.600	 H	1	UNK0	0.000	
61	   H	-1.706	1.970	-4.821	 H	1	UNK0	0.000	
62	   H	-3.293	2.557	-4.090	 H	1	UNK0	0.000	
@<TRIPOS>BOND
1 1 2 1
2 2 3 2
3 2 7 1
4 3 4 1
5 3 15 1
6 4 5 2
7 5 6 1
8 6 7 1
9 6 9 1
10 7 8 2
11 9 10 2
12 9 14 1
13 10 11 1
14 11 12 2
15 12 13 1
16 13 14 2
17 15 16 1
18 15 20 1
19 16 17 1
20 17 18 1
21 18 19 1
22 18 21 1
23 19 20 1
24 21 22 2
25 21 23 1
26 23 24 1
27 24 25 1
28 25 26 1
29 25 34 1
30 26 27 2
31 26 28 1
32 28 29 1
33 29 30 1
34 29 33 1
35 29 34 1
36 30 31 1
37 31 32 1
38 32 33 1
39 34 35 2
40 4 36 1
41 10 37 1
42 11 38 1
43 12 39 1
44 13 40 1
45 14 41 1
46 16 42 1
47 16 43 1
48 17 44 1
49 17 45 1
50 19 46 1
51 19 47 1
52 20 48 1
53 20 49 1
54 23 50 1
55 23 51 1
56 24 52 1
57 24 53 1
58 28 54 1
59 30 55 1
60 30 56 1
61 31 57 1
62 31 58 1
63 32 59 1
64 32 60 1
65 33 61 1
66 33 62 1
@<TRIPOS>SUBSTRUCTURE
1	UNK0	1	GROUP	1 ****	UNK
