# created with PyMOL 2.3.2
@<TRIPOS>MOLECULE
2424
43 46 1                 
SMALL
USER_CHARGES
@<TRIPOS>ATOM
1	  Br	-4.279	-0.937	6.881	Br	1	UNK0	0.000	
2	   C	-3.080	-1.060	5.397	C.2	1	UNK0	0.000	
3	   C	-3.533	-1.393	4.141	C.2	1	UNK0	0.000	
4	   N	-2.683	-1.475	3.109	N.2	1	UNK0	0.000	
5	   C	-1.345	-1.239	3.239	C.2	1	UNK0	0.000	
6	   N	-0.938	-0.914	4.492	N.2	1	UNK0	0.000	
7	   C	-1.737	-0.819	5.544	C.2	1	UNK0	0.000	
8	   N	-0.470	-1.330	2.147	N.pl3	1	UNK0	0.000	
9	   C	-0.945	-1.676	0.843	C.3	1	UNK0	0.000	
10	   C	-0.824	-0.432	-0.019	C.3	1	UNK0	0.000	
11	   C	0.223	0.506	0.477	C.3	1	UNK0	0.000	
12	   C	1.362	-0.138	1.181	C.3	1	UNK0	0.000	
13	   C	0.933	-1.082	2.284	C.3	1	UNK0	0.000	
14	   C	0.677	1.443	-0.588	C.3	1	UNK0	0.000	
15	   N	1.265	0.819	-1.752	N.pl3	1	UNK0	0.000	
16	   N	0.451	0.433	-2.730	N.2	1	UNK0	0.000	
17	   C	0.860	-0.167	-3.860	C.2	1	UNK0	0.000	
18	   C	2.227	-0.370	-3.956	C.2	1	UNK0	0.000	
19	   C	3.092	0.021	-2.958	C.2	1	UNK0	0.000	
20	   C	2.601	0.632	-1.824	C.2	1	UNK0	0.000	
21	   O	3.395	1.002	-0.890	O.2	1	UNK0	0.000	
22	   N	-0.036	-0.569	-4.891	N.pl3	1	UNK0	0.000	
23	   N	-1.212	-0.046	-5.198	N.2	1	UNK0	0.000	
24	   C	-1.765	-0.704	-6.241	C.2	1	UNK0	0.000	
25	   N	-0.913	-1.667	-6.600	N.2	1	UNK0	0.000	
26	   C	0.144	-1.576	-5.765	C.2	1	UNK0	0.000	
27	   H	-4.583	-1.586	4.002	 H	1	UNK0	0.000	
28	   H	-1.386	-0.557	6.539	 H	1	UNK0	0.000	
29	   H	-0.359	-2.511	0.395	 H	1	UNK0	0.000	
30	   H	-1.988	-2.005	0.916	 H	1	UNK0	0.000	
31	   H	-1.835	0.017	-0.050	 H	1	UNK0	0.000	
32	   H	-0.607	-0.795	-1.039	 H	1	UNK0	0.000	
33	   H	-0.291	1.161	1.246	 H	1	UNK0	0.000	
34	   H	1.944	-0.778	0.486	 H	1	UNK0	0.000	
35	   H	2.063	0.580	1.625	 H	1	UNK0	0.000	
36	   H	1.448	-2.063	2.237	 H	1	UNK0	0.000	
37	   H	1.191	-0.652	3.276	 H	1	UNK0	0.000	
38	   H	-0.189	2.057	-0.976	 H	1	UNK0	0.000	
39	   H	1.374	2.222	-0.186	 H	1	UNK0	0.000	
40	   H	2.575	-0.856	-4.868	 H	1	UNK0	0.000	
41	   H	4.167	-0.152	-3.060	 H	1	UNK0	0.000	
42	   H	-2.734	-0.497	-6.717	 H	1	UNK0	0.000	
43	   H	1.028	-2.220	-5.784	 H	1	UNK0	0.000	
@<TRIPOS>BOND
1 1 2 1
2 2 3 2
3 2 7 1
4 3 4 1
5 4 5 2
6 5 6 1
7 5 8 1
8 6 7 2
9 8 9 1
10 8 13 1
11 9 10 1
12 10 11 1
13 11 12 1
14 11 14 1
15 12 13 1
16 14 15 1
17 15 16 1
18 15 20 1
19 16 17 2
20 17 18 1
21 17 22 1
22 18 19 2
23 19 20 1
24 20 21 2
25 22 23 1
26 22 26 1
27 23 24 2
28 24 25 1
29 25 26 2
30 3 27 1
31 7 28 1
32 9 29 1
33 9 30 1
34 10 31 1
35 10 32 1
36 11 33 1
37 12 34 1
38 12 35 1
39 13 36 1
40 13 37 1
41 14 38 1
42 14 39 1
43 18 40 1
44 19 41 1
45 24 42 1
46 26 43 1
@<TRIPOS>SUBSTRUCTURE
1	UNK0	1	GROUP	1 ****	UNK
