# created with PyMOL 2.3.2
@<TRIPOS>MOLECULE
2425
35 38 1                 
SMALL
USER_CHARGES
@<TRIPOS>ATOM
1	  Cl	-2.917	-1.735	4.089	Cl	1	UNK0	0.000	
2	   C	-2.707	-0.889	2.572	C.2	1	UNK0	0.000	
3	   C	-1.480	-0.850	1.918	C.2	1	UNK0	0.000	
4	   C	-1.300	-0.195	0.734	C.2	1	UNK0	0.000	
5	   C	-2.420	0.447	0.199	C.2	1	UNK0	0.000	
6	   C	-3.630	0.408	0.846	C.2	1	UNK0	0.000	
7	   C	-3.802	-0.253	2.035	C.2	1	UNK0	0.000	
8	   C	0.098	-0.346	0.314	C.3	1	UNK0	0.000	
9	   C	0.793	0.965	0.234	C.2	1	UNK0	0.000	
10	   C	1.457	1.388	-0.862	C.2	1	UNK0	0.000	
11	   O	1.541	0.610	-2.017	O.3	1	UNK0	0.000	
12	   C	0.904	-0.619	-1.975	C.2	1	UNK0	0.000	
13	   C	0.249	-1.074	-0.943	C.2	1	UNK0	0.000	
14	   C	-0.356	-2.378	-1.072	C.1	1	UNK0	0.000	
15	   N	-0.832	-3.438	-1.165	N.1	1	UNK0	0.000	
16	   N	1.023	-1.382	-3.200	N.pl3	1	UNK0	0.000	
17	   C	2.085	2.638	-0.856	C.2	1	UNK0	0.000	
18	   C	1.989	3.383	0.291	C.2	1	UNK0	0.000	
19	   O	1.333	2.930	1.329	O.3	1	UNK0	0.000	
20	   C	0.737	1.774	1.360	C.2	1	UNK0	0.000	
21	   O	0.116	1.382	2.387	O.co2	1	UNK0	0.000	
22	   C	2.639	4.724	0.354	C.3	1	UNK0	0.000	
23	   C	0.719	-1.164	1.384	C.2	1	UNK0	0.000	
24	   O	1.947	-1.541	1.425	O.2	1	UNK0	0.000	
25	   N	-0.276	-1.451	2.343	N.pl3	1	UNK0	0.000	
26	   H	-2.260	0.961	-0.737	 H	1	UNK0	0.000	
27	   H	-4.472	0.910	0.412	 H	1	UNK0	0.000	
28	   H	-4.756	-0.292	2.559	 H	1	UNK0	0.000	
29	   H	0.278	-1.337	-3.937	 H	1	UNK0	0.000	
30	   H	1.886	-1.962	-3.284	 H	1	UNK0	0.000	
31	   H	2.618	2.974	-1.738	 H	1	UNK0	0.000	
32	   H	2.778	5.126	-0.653	 H	1	UNK0	0.000	
33	   H	1.985	5.416	0.916	 H	1	UNK0	0.000	
34	   H	3.590	4.624	0.926	 H	1	UNK0	0.000	
35	   H	-0.119	-2.021	3.221	 H	1	UNK0	0.000	
@<TRIPOS>BOND
1 1 2 1
2 2 3 2
3 2 7 1
4 3 4 1
5 3 25 1
6 4 5 2
7 4 8 1
8 5 6 1
9 6 7 2
10 8 9 1
11 8 13 1
12 8 23 1
13 9 10 2
14 9 20 1
15 10 11 1
16 10 17 1
17 11 12 1
18 12 13 2
19 12 16 1
20 13 14 1
21 14 15 3
22 17 18 2
23 18 19 1
24 18 22 1
25 19 20 1
26 20 21 2
27 23 24 2
28 23 25 1
29 5 26 1
30 6 27 1
31 7 28 1
32 16 29 1
33 16 30 1
34 17 31 1
35 22 32 1
36 22 33 1
37 22 34 1
38 25 35 1
@<TRIPOS>SUBSTRUCTURE
1	UNK0	1	GROUP	1 ****	UNK
