# created with PyMOL 2.3.2
@<TRIPOS>MOLECULE
2426
34 37 1                 
SMALL
USER_CHARGES
@<TRIPOS>ATOM
1	  Cl	-0.255	4.070	3.424	Cl	1	UNK0	0.000	
2	   C	-1.372	2.730	3.218	C.2	1	UNK0	0.000	
3	   O	-1.228	1.646	2.503	O.3	1	UNK0	0.000	
4	   C	-2.259	0.856	2.577	C.2	1	UNK0	0.000	
5	   C	-3.160	1.489	3.424	C.2	1	UNK0	0.000	
6	   C	-2.616	2.685	3.844	C.2	1	UNK0	0.000	
7	   C	-2.430	-0.429	1.908	C.2	1	UNK0	0.000	
8	   O	-3.520	-1.079	2.095	O.2	1	UNK0	0.000	
9	   N	-1.421	-0.954	1.069	N.pl3	1	UNK0	0.000	
10	   C	-0.213	-0.183	0.892	C.3	1	UNK0	0.000	
11	   C	0.727	-0.830	-0.105	C.3	1	UNK0	0.000	
12	   O	1.704	0.076	-0.411	O.3	1	UNK0	0.000	
13	   C	2.083	0.170	-1.720	C.3	1	UNK0	0.000	
14	   C	1.959	-1.087	-2.497	C.2	1	UNK0	0.000	
15	   N	0.844	-1.809	-2.264	N.pl3	1	UNK0	0.000	
16	   N	0.909	-2.877	-3.036	N.2	1	UNK0	0.000	
17	   N	2.022	-2.857	-3.746	N.2	1	UNK0	0.000	
18	   C	2.725	-1.754	-3.450	C.2	1	UNK0	0.000	
19	   C	-0.078	-1.260	-1.289	C.3	1	UNK0	0.000	
20	   C	-1.071	-2.320	-0.950	C.3	1	UNK0	0.000	
21	   C	-1.637	-2.215	0.438	C.3	1	UNK0	0.000	
22	   H	-4.122	1.095	3.695	 H	1	UNK0	0.000	
23	   H	-3.034	3.438	4.508	 H	1	UNK0	0.000	
24	   H	-0.478	0.807	0.467	 H	1	UNK0	0.000	
25	   H	0.290	0.006	1.861	 H	1	UNK0	0.000	
26	   H	1.191	-1.739	0.367	 H	1	UNK0	0.000	
27	   H	1.423	0.925	-2.237	 H	1	UNK0	0.000	
28	   H	3.119	0.574	-1.793	 H	1	UNK0	0.000	
29	   H	3.678	-1.403	-3.831	 H	1	UNK0	0.000	
30	   H	-0.558	-0.340	-1.722	 H	1	UNK0	0.000	
31	   H	-1.936	-2.200	-1.658	 H	1	UNK0	0.000	
32	   H	-0.649	-3.316	-1.168	 H	1	UNK0	0.000	
33	   H	-2.696	-2.492	0.490	 H	1	UNK0	0.000	
34	   H	-1.087	-2.985	1.056	 H	1	UNK0	0.000	
@<TRIPOS>BOND
1 1 2 1
2 2 3 1
3 2 6 2
4 3 4 1
5 4 5 2
6 4 7 1
7 5 6 1
8 7 8 2
9 7 9 1
10 9 10 1
11 9 21 1
12 10 11 1
13 11 12 1
14 11 19 1
15 12 13 1
16 13 14 1
17 14 15 1
18 14 18 2
19 15 16 1
20 15 19 1
21 16 17 2
22 17 18 1
23 19 20 1
24 20 21 1
25 5 22 1
26 6 23 1
27 10 24 1
28 10 25 1
29 11 26 1
30 13 27 1
31 13 28 1
32 18 29 1
33 19 30 1
34 20 31 1
35 20 32 1
36 21 33 1
37 21 34 1
@<TRIPOS>SUBSTRUCTURE
1	UNK0	1	GROUP	1 ****	UNK
