# created with PyMOL 2.3.2
@<TRIPOS>MOLECULE
2431
52 55 1                 
SMALL
USER_CHARGES
@<TRIPOS>ATOM
1	   S	-2.623	0.972	3.831	S.O2	1	UNK0	0.000	
2	   O	-1.640	0.981	4.995	O.2	1	UNK0	0.000	
3	   O	-3.898	1.558	4.381	O.2	1	UNK0	0.000	
4	   N	-2.014	1.981	2.628	N.3	1	UNK0	0.000	
5	   C	-0.738	1.618	2.099	C.3	1	UNK0	0.000	
6	   C	-0.201	2.785	1.262	C.3	1	UNK0	0.000	
7	   N	-1.344	3.288	0.539	N.pl3	1	UNK0	0.000	
8	   C	-2.254	4.090	1.392	C.3	1	UNK0	0.000	
9	   C	-2.320	3.360	2.713	C.3	1	UNK0	0.000	
10	   C	-1.607	3.047	-0.799	C.2	1	UNK0	0.000	
11	   O	-2.667	3.629	-1.270	O.2	1	UNK0	0.000	
12	   C	-0.858	2.229	-1.745	C.3	1	UNK0	0.000	
13	   O	0.224	1.508	-1.251	O.3	1	UNK0	0.000	
14	   C	1.020	0.701	-2.051	C.2	1	UNK0	0.000	
15	   O	0.720	0.648	-3.274	O.co2	1	UNK0	0.000	
16	   C	2.143	-0.045	-1.498	C.2	1	UNK0	0.000	
17	   C	2.493	-0.031	-0.169	C.2	1	UNK0	0.000	
18	   C	3.588	-0.766	0.306	C.2	1	UNK0	0.000	
19	   C	4.366	-1.536	-0.528	C.2	1	UNK0	0.000	
20	   C	4.016	-1.551	-1.864	C.2	1	UNK0	0.000	
21	   C	2.941	-0.831	-2.334	C.2	1	UNK0	0.000	
22	   N	5.481	-2.287	-0.064	N.pl3	1	UNK0	0.000	
23	   N	6.752	-1.872	-0.068	N.2	1	UNK0	0.000	
24	   N	7.542	-2.811	0.431	N.2	1	UNK0	0.000	
25	   N	6.804	-3.855	0.770	N.2	1	UNK0	0.000	
26	   C	5.534	-3.524	0.461	C.2	1	UNK0	0.000	
27	   C	-2.893	-0.659	3.345	C.2	1	UNK0	0.000	
28	   C	-1.885	-1.588	3.474	C.2	1	UNK0	0.000	
29	   C	-2.026	-2.906	3.106	C.2	1	UNK0	0.000	
30	   C	-3.230	-3.323	2.583	C.2	1	UNK0	0.000	
31	   C	-4.255	-2.390	2.449	C.2	1	UNK0	0.000	
32	   C	-4.096	-1.076	2.822	C.2	1	UNK0	0.000	
33	  Cl	-3.454	-5.001	2.100	Cl	1	UNK0	0.000	
34	   H	-0.729	0.687	1.525	 H	1	UNK0	0.000	
35	   H	-0.027	1.502	2.944	 H	1	UNK0	0.000	
36	   H	0.675	2.547	0.686	 H	1	UNK0	0.000	
37	   H	0.137	3.560	2.027	 H	1	UNK0	0.000	
38	   H	-3.214	4.274	0.918	 H	1	UNK0	0.000	
39	   H	-1.746	5.059	1.551	 H	1	UNK0	0.000	
40	   H	-1.616	3.842	3.421	 H	1	UNK0	0.000	
41	   H	-3.333	3.458	3.156	 H	1	UNK0	0.000	
42	   H	-0.474	2.858	-2.586	 H	1	UNK0	0.000	
43	   H	-1.591	1.477	-2.176	 H	1	UNK0	0.000	
44	   H	1.906	0.557	0.513	 H	1	UNK0	0.000	
45	   H	3.849	-0.741	1.365	 H	1	UNK0	0.000	
46	   H	4.627	-2.161	-2.539	 H	1	UNK0	0.000	
47	   H	2.665	-0.843	-3.383	 H	1	UNK0	0.000	
48	   H	4.628	-4.125	0.592	 H	1	UNK0	0.000	
49	   H	-0.901	-1.324	3.883	 H	1	UNK0	0.000	
50	   H	-1.210	-3.617	3.221	 H	1	UNK0	0.000	
51	   H	-5.199	-2.753	2.030	 H	1	UNK0	0.000	
52	   H	-4.940	-0.402	2.689	 H	1	UNK0	0.000	
@<TRIPOS>BOND
1 1 2 2
2 1 3 2
3 1 4 1
4 1 27 1
5 4 5 1
6 4 9 1
7 5 6 1
8 6 7 1
9 7 8 1
10 7 10 1
11 8 9 1
12 10 11 2
13 10 12 1
14 12 13 1
15 13 14 1
16 14 15 2
17 14 16 1
18 16 17 2
19 16 21 1
20 17 18 1
21 18 19 2
22 19 20 1
23 19 22 1
24 20 21 2
25 22 23 1
26 22 26 1
27 23 24 2
28 24 25 1
29 25 26 2
30 27 28 2
31 27 32 1
32 28 29 1
33 29 30 2
34 30 31 1
35 30 33 1
36 31 32 2
37 5 34 1
38 5 35 1
39 6 36 1
40 6 37 1
41 8 38 1
42 8 39 1
43 9 40 1
44 9 41 1
45 12 42 1
46 12 43 1
47 17 44 1
48 18 45 1
49 20 46 1
50 21 47 1
51 26 48 1
52 28 49 1
53 29 50 1
54 31 51 1
55 32 52 1
@<TRIPOS>SUBSTRUCTURE
1	UNK0	1	GROUP	1 ****	UNK
