# created with PyMOL 2.3.2
@<TRIPOS>MOLECULE
2433
36 39 1                 
SMALL
USER_CHARGES
@<TRIPOS>ATOM
1	  Cl	-3.216	2.873	-0.251	Cl	1	UNK0	0.000	
2	   C	-3.055	1.457	0.777	C.2	1	UNK0	0.000	
3	   C	-4.207	0.894	1.234	C.2	1	UNK0	0.000	
4	   N	-4.149	-0.199	2.007	N.2	1	UNK0	0.000	
5	   C	-2.950	-0.695	2.300	C.2	1	UNK0	0.000	
6	   C	-1.761	-0.168	1.867	C.2	1	UNK0	0.000	
7	   C	-1.786	0.975	1.058	C.2	1	UNK0	0.000	
8	   N	-0.583	1.544	0.633	N.pl3	1	UNK0	0.000	
9	   C	0.693	0.781	0.614	C.3	1	UNK0	0.000	
10	   C	1.039	0.999	-0.856	C.3	1	UNK0	0.000	
11	   C	0.725	2.471	-1.012	C.3	1	UNK0	0.000	
12	   C	-0.159	2.833	0.173	C.3	1	UNK0	0.000	
13	   C	2.092	3.068	-0.760	C.3	1	UNK0	0.000	
14	   O	2.973	2.178	-1.378	O.3	1	UNK0	0.000	
15	   C	2.482	0.909	-1.168	C.3	1	UNK0	0.000	
16	   C	0.150	0.157	-1.686	C.2	1	UNK0	0.000	
17	   N	-0.324	0.366	-2.917	N.2	1	UNK0	0.000	
18	   N	-1.074	-0.676	-3.218	N.2	1	UNK0	0.000	
19	   C	-1.088	-1.549	-2.196	C.2	1	UNK0	0.000	
20	   O	-0.323	-0.991	-1.287	O.3	1	UNK0	0.000	
21	   C	-1.819	-2.860	-2.134	C.3	1	UNK0	0.000	
22	   H	-5.166	1.349	0.956	 H	1	UNK0	0.000	
23	   H	-2.944	-1.588	2.933	 H	1	UNK0	0.000	
24	   H	-0.845	-0.655	2.176	 H	1	UNK0	0.000	
25	   H	1.466	1.312	1.205	 H	1	UNK0	0.000	
26	   H	0.563	-0.268	0.854	 H	1	UNK0	0.000	
27	   H	0.286	2.737	-1.973	 H	1	UNK0	0.000	
28	   H	0.481	3.256	1.010	 H	1	UNK0	0.000	
29	   H	-0.905	3.578	-0.036	 H	1	UNK0	0.000	
30	   H	2.285	2.971	0.339	 H	1	UNK0	0.000	
31	   H	2.213	4.082	-1.147	 H	1	UNK0	0.000	
32	   H	2.601	0.352	-2.142	 H	1	UNK0	0.000	
33	   H	3.072	0.317	-0.432	 H	1	UNK0	0.000	
34	   H	-2.803	-2.759	-1.637	 H	1	UNK0	0.000	
35	   H	-1.873	-3.334	-3.132	 H	1	UNK0	0.000	
36	   H	-1.200	-3.529	-1.481	 H	1	UNK0	0.000	
@<TRIPOS>BOND
1 1 2 1
2 2 3 2
3 2 7 1
4 3 4 1
5 4 5 2
6 5 6 1
7 6 7 2
8 7 8 1
9 8 9 1
10 8 12 1
11 9 10 1
12 10 11 1
13 10 15 1
14 10 16 1
15 11 12 1
16 11 13 1
17 13 14 1
18 14 15 1
19 16 17 2
20 16 20 1
21 17 18 1
22 18 19 2
23 19 20 1
24 19 21 1
25 3 22 1
26 5 23 1
27 6 24 1
28 9 25 1
29 9 26 1
30 11 27 1
31 12 28 1
32 12 29 1
33 13 30 1
34 13 31 1
35 15 32 1
36 15 33 1
37 21 34 1
38 21 35 1
39 21 36 1
@<TRIPOS>SUBSTRUCTURE
1	UNK0	1	GROUP	1 ****	UNK
