# created with PyMOL 2.3.2
@<TRIPOS>MOLECULE
2434
56 59 1                 
SMALL
USER_CHARGES
@<TRIPOS>ATOM
1	   S	3.188	-1.975	1.942	S.O2	1	UNK0	0.000	
2	   O	2.761	-0.547	1.704	O.2	1	UNK0	0.000	
3	   O	3.378	-2.179	3.393	O.2	1	UNK0	0.000	
4	   N	1.888	-2.963	1.311	N.3	1	UNK0	0.000	
5	   C	1.683	-2.555	-0.027	C.3	1	UNK0	0.000	
6	   C	0.285	-2.746	-0.548	C.3	1	UNK0	0.000	
7	   C	-0.631	-2.101	0.474	C.3	1	UNK0	0.000	
8	   C	-0.569	-3.049	1.669	C.3	1	UNK0	0.000	
9	   C	0.825	-2.910	2.227	C.3	1	UNK0	0.000	
10	   C	-1.974	-1.821	0.016	C.2	1	UNK0	0.000	
11	   O	-2.931	-2.529	0.417	O.2	1	UNK0	0.000	
12	   N	-2.241	-0.753	-0.892	N.pl3	1	UNK0	0.000	
13	   C	-3.612	-0.520	-1.372	C.3	1	UNK0	0.000	
14	   C	-3.687	0.823	-2.051	C.3	1	UNK0	0.000	
15	   N	-3.027	1.839	-1.251	N.pl3	1	UNK0	0.000	
16	   C	-1.619	1.554	-0.940	C.3	1	UNK0	0.000	
17	   C	-1.237	0.154	-1.377	C.3	1	UNK0	0.000	
18	   C	-3.652	3.017	-0.787	C.2	1	UNK0	0.000	
19	   C	-2.884	3.927	-0.072	C.2	1	UNK0	0.000	
20	   C	-3.410	5.099	0.419	C.2	1	UNK0	0.000	
21	   C	-4.737	5.398	0.206	C.2	1	UNK0	0.000	
22	   C	-5.512	4.527	-0.490	C.2	1	UNK0	0.000	
23	   C	-4.958	3.344	-0.979	C.2	1	UNK0	0.000	
24	  Cl	-5.466	6.879	0.807	Cl	1	UNK0	0.000	
25	   C	4.652	-2.244	1.029	C.2	1	UNK0	0.000	
26	   N	5.303	-3.428	0.887	N.2	1	UNK0	0.000	
27	   C	6.386	-3.234	0.113	C.2	1	UNK0	0.000	
28	   N	6.453	-1.947	-0.254	N.pl3	1	UNK0	0.000	
29	   C	5.384	-1.341	0.312	C.2	1	UNK0	0.000	
30	   C	7.482	-1.341	-1.095	C.3	1	UNK0	0.000	
31	   H	1.945	-1.486	-0.172	 H	1	UNK0	0.000	
32	   H	2.375	-3.145	-0.690	 H	1	UNK0	0.000	
33	   H	0.098	-3.857	-0.511	 H	1	UNK0	0.000	
34	   H	0.213	-2.352	-1.554	 H	1	UNK0	0.000	
35	   H	-0.160	-1.153	0.874	 H	1	UNK0	0.000	
36	   H	-1.276	-2.771	2.454	 H	1	UNK0	0.000	
37	   H	-0.705	-4.104	1.363	 H	1	UNK0	0.000	
38	   H	0.847	-1.931	2.787	 H	1	UNK0	0.000	
39	   H	1.005	-3.682	3.032	 H	1	UNK0	0.000	
40	   H	-3.750	-1.288	-2.186	 H	1	UNK0	0.000	
41	   H	-4.368	-0.671	-0.609	 H	1	UNK0	0.000	
42	   H	-4.712	1.089	-2.354	 H	1	UNK0	0.000	
43	   H	-3.106	0.812	-3.022	 H	1	UNK0	0.000	
44	   H	-1.026	2.326	-1.464	 H	1	UNK0	0.000	
45	   H	-1.488	1.702	0.143	 H	1	UNK0	0.000	
46	   H	-1.247	0.143	-2.484	 H	1	UNK0	0.000	
47	   H	-0.211	-0.100	-1.052	 H	1	UNK0	0.000	
48	   H	-1.837	3.703	0.102	 H	1	UNK0	0.000	
49	   H	-2.811	5.801	0.972	 H	1	UNK0	0.000	
50	   H	-6.577	4.725	-0.683	 H	1	UNK0	0.000	
51	   H	-5.597	2.680	-1.521	 H	1	UNK0	0.000	
52	   H	7.068	-4.037	-0.143	 H	1	UNK0	0.000	
53	   H	5.179	-0.282	0.185	 H	1	UNK0	0.000	
54	   H	6.989	-0.524	-1.673	 H	1	UNK0	0.000	
55	   H	8.344	-0.991	-0.510	 H	1	UNK0	0.000	
56	   H	7.815	-2.105	-1.814	 H	1	UNK0	0.000	
@<TRIPOS>BOND
1 1 2 2
2 1 3 2
3 1 4 1
4 1 25 1
5 4 5 1
6 4 9 1
7 5 6 1
8 6 7 1
9 7 8 1
10 7 10 1
11 8 9 1
12 10 11 2
13 10 12 1
14 12 13 1
15 12 17 1
16 13 14 1
17 14 15 1
18 15 16 1
19 15 18 1
20 16 17 1
21 18 19 2
22 18 23 1
23 19 20 1
24 20 21 2
25 21 22 1
26 21 24 1
27 22 23 2
28 25 26 1
29 25 29 2
30 26 27 2
31 27 28 1
32 28 29 1
33 28 30 1
34 5 31 1
35 5 32 1
36 6 33 1
37 6 34 1
38 7 35 1
39 8 36 1
40 8 37 1
41 9 38 1
42 9 39 1
43 13 40 1
44 13 41 1
45 14 42 1
46 14 43 1
47 16 44 1
48 16 45 1
49 17 46 1
50 17 47 1
51 19 48 1
52 20 49 1
53 22 50 1
54 23 51 1
55 27 52 1
56 29 53 1
57 30 54 1
58 30 55 1
59 30 56 1
@<TRIPOS>SUBSTRUCTURE
1	UNK0	1	GROUP	1 ****	UNK
