# created with PyMOL 2.3.2
@<TRIPOS>MOLECULE
2435
61 64 1                 
SMALL
USER_CHARGES
@<TRIPOS>ATOM
1	  Cl	-6.287	-2.004	-0.009	Cl	1	UNK0	0.000	
2	   C	-5.394	-0.861	-0.984	C.2	1	UNK0	0.000	
3	   C	-4.254	-1.250	-1.666	C.2	1	UNK0	0.000	
4	   C	-3.495	-0.415	-2.454	C.2	1	UNK0	0.000	
5	   C	-3.969	0.903	-2.522	C.2	1	UNK0	0.000	
6	   C	-5.100	1.317	-1.854	C.2	1	UNK0	0.000	
7	   C	-5.821	0.437	-1.079	C.2	1	UNK0	0.000	
8	   N	-2.341	-0.817	-3.149	N.pl3	1	UNK0	0.000	
9	   C	-1.454	0.061	-3.861	C.3	1	UNK0	0.000	
10	   C	-0.047	-0.460	-3.649	C.3	1	UNK0	0.000	
11	   N	0.114	-1.186	-2.449	N.3	1	UNK0	0.000	
12	   C	-0.710	-2.334	-2.345	C.3	1	UNK0	0.000	
13	   C	-1.962	-2.205	-3.197	C.3	1	UNK0	0.000	
14	   C	0.579	-0.556	-1.296	C.3	1	UNK0	0.000	
15	   C	-0.384	0.450	-0.706	C.3	1	UNK0	0.000	
16	   N	0.175	1.055	0.493	N.pl3	1	UNK0	0.000	
17	   C	-0.537	2.032	1.229	C.2	1	UNK0	0.000	
18	   O	-1.675	2.373	0.829	O.2	1	UNK0	0.000	
19	   C	-0.000	2.663	2.441	C.3	1	UNK0	0.000	
20	   N	1.321	2.191	2.802	N.pl3	1	UNK0	0.000	
21	   C	2.436	2.767	2.336	C.2	1	UNK0	0.000	
22	   C	3.682	2.309	2.701	C.2	1	UNK0	0.000	
23	   C	4.845	2.910	2.208	C.2	1	UNK0	0.000	
24	   C	4.753	3.978	1.343	C.2	1	UNK0	0.000	
25	   C	3.523	4.461	0.957	C.2	1	UNK0	0.000	
26	   C	2.383	3.833	1.472	C.2	1	UNK0	0.000	
27	   N	3.789	1.264	3.542	N.pl3	1	UNK0	0.000	
28	   C	2.669	0.682	4.012	C.2	1	UNK0	0.000	
29	   O	2.750	-0.313	4.811	O.2	1	UNK0	0.000	
30	   C	1.429	1.145	3.642	C.2	1	UNK0	0.000	
31	   O	0.369	0.583	4.096	O.2	1	UNK0	0.000	
32	   C	5.053	0.728	3.983	C.3	1	UNK0	0.000	
33	   C	5.579	-0.349	3.065	C.3	1	UNK0	0.000	
34	   H	-3.977	-2.281	-1.542	 H	1	UNK0	0.000	
35	   H	-3.449	1.620	-3.106	 H	1	UNK0	0.000	
36	   H	-5.422	2.357	-1.944	 H	1	UNK0	0.000	
37	   H	-6.700	0.766	-0.561	 H	1	UNK0	0.000	
38	   H	-1.747	-0.039	-4.952	 H	1	UNK0	0.000	
39	   H	-1.561	1.129	-3.653	 H	1	UNK0	0.000	
40	   H	0.117	-1.198	-4.495	 H	1	UNK0	0.000	
41	   H	0.711	0.344	-3.803	 H	1	UNK0	0.000	
42	   H	-0.108	-3.209	-2.728	 H	1	UNK0	0.000	
43	   H	-0.968	-2.574	-1.276	 H	1	UNK0	0.000	
44	   H	-1.627	-2.484	-4.249	 H	1	UNK0	0.000	
45	   H	-2.739	-2.927	-2.967	 H	1	UNK0	0.000	
46	   H	0.745	-1.325	-0.491	 H	1	UNK0	0.000	
47	   H	1.575	-0.065	-1.486	 H	1	UNK0	0.000	
48	   H	-1.315	-0.085	-0.412	 H	1	UNK0	0.000	
49	   H	-0.569	1.209	-1.495	 H	1	UNK0	0.000	
50	   H	1.134	0.722	0.774	 H	1	UNK0	0.000	
51	   H	-0.068	3.756	2.467	 H	1	UNK0	0.000	
52	   H	-0.694	2.329	3.277	 H	1	UNK0	0.000	
53	   H	5.817	2.544	2.497	 H	1	UNK0	0.000	
54	   H	5.624	4.475	0.935	 H	1	UNK0	0.000	
55	   H	3.440	5.300	0.280	 H	1	UNK0	0.000	
56	   H	1.398	4.185	1.184	 H	1	UNK0	0.000	
57	   H	4.900	0.206	4.980	 H	1	UNK0	0.000	
58	   H	5.777	1.524	4.213	 H	1	UNK0	0.000	
59	   H	5.102	-0.176	2.077	 H	1	UNK0	0.000	
60	   H	6.693	-0.295	3.004	 H	1	UNK0	0.000	
61	   H	5.282	-1.354	3.427	 H	1	UNK0	0.000	
@<TRIPOS>BOND
1 1 2 1
2 2 3 2
3 2 7 1
4 3 4 1
5 4 5 2
6 4 8 1
7 5 6 1
8 6 7 2
9 8 9 1
10 8 13 1
11 9 10 1
12 10 11 1
13 11 12 1
14 11 14 1
15 12 13 1
16 14 15 1
17 15 16 1
18 16 17 1
19 17 18 2
20 17 19 1
21 19 20 1
22 20 21 1
23 20 30 1
24 21 22 1
25 21 26 2
26 22 23 2
27 22 27 1
28 23 24 1
29 24 25 2
30 25 26 1
31 27 28 1
32 27 32 1
33 28 29 2
34 28 30 1
35 30 31 2
36 32 33 1
37 3 34 1
38 5 35 1
39 6 36 1
40 7 37 1
41 9 38 1
42 9 39 1
43 10 40 1
44 10 41 1
45 12 42 1
46 12 43 1
47 13 44 1
48 13 45 1
49 14 46 1
50 14 47 1
51 15 48 1
52 15 49 1
53 16 50 1
54 19 51 1
55 19 52 1
56 23 53 1
57 24 54 1
58 25 55 1
59 26 56 1
60 32 57 1
61 32 58 1
62 33 59 1
63 33 60 1
64 33 61 1
@<TRIPOS>SUBSTRUCTURE
1	UNK0	1	GROUP	1 ****	UNK
