# created with PyMOL 2.3.2
@<TRIPOS>MOLECULE
2436
59 62 1                 
SMALL
USER_CHARGES
@<TRIPOS>ATOM
1	  Cl	-1.099	7.659	4.193	Cl	1	UNK0	0.000	
2	   C	-0.717	7.175	2.554	C.2	1	UNK0	0.000	
3	   C	-1.053	5.914	2.113	C.2	1	UNK0	0.000	
4	   C	-0.768	5.492	0.823	C.2	1	UNK0	0.000	
5	   C	-0.132	6.411	0.016	C.2	1	UNK0	0.000	
6	   C	0.204	7.671	0.455	C.2	1	UNK0	0.000	
7	   C	-0.083	8.078	1.733	C.2	1	UNK0	0.000	
8	   N	-1.097	4.215	0.340	N.pl3	1	UNK0	0.000	
9	   C	-0.680	3.830	-0.994	C.3	1	UNK0	0.000	
10	   C	-0.771	2.296	-1.053	C.3	1	UNK0	0.000	
11	   N	-0.141	1.802	0.120	N.3	1	UNK0	0.000	
12	   C	-0.886	2.046	1.301	C.3	1	UNK0	0.000	
13	   C	-1.834	3.200	1.047	C.3	1	UNK0	0.000	
14	   C	0.525	0.560	0.038	C.3	1	UNK0	0.000	
15	   C	1.099	0.260	1.431	C.3	1	UNK0	0.000	
16	   C	1.837	-1.074	1.413	C.3	1	UNK0	0.000	
17	   N	0.944	-2.132	1.040	N.pl3	1	UNK0	0.000	
18	   C	-0.227	-2.474	1.766	C.2	1	UNK0	0.000	
19	   O	-0.566	-1.856	2.813	O.2	1	UNK0	0.000	
20	   C	-1.129	-3.579	1.345	C.3	1	UNK0	0.000	
21	   N	-0.646	-4.224	0.130	N.pl3	1	UNK0	0.000	
22	   N	-1.048	-3.760	-1.112	N.pl3	1	UNK0	0.000	
23	   C	-0.588	-4.373	-2.338	C.2	1	UNK0	0.000	
24	   C	-1.000	-3.893	-3.484	C.2	1	UNK0	0.000	
25	   C	0.321	-5.509	-2.308	C.2	1	UNK0	0.000	
26	   C	0.713	-5.960	-1.048	C.2	1	UNK0	0.000	
27	   N	1.542	-7.005	-1.301	N.2	1	UNK0	0.000	
28	   O	1.667	-7.202	-2.569	O.3	1	UNK0	0.000	
29	   C	0.938	-6.311	-3.238	C.2	1	UNK0	0.000	
30	   C	0.814	-6.202	-4.707	C.3	1	UNK0	0.000	
31	   C	0.237	-5.327	0.167	C.2	1	UNK0	0.000	
32	   O	0.618	-5.768	1.275	O.2	1	UNK0	0.000	
33	   H	-1.543	5.234	2.769	 H	1	UNK0	0.000	
34	   H	0.122	6.139	-1.023	 H	1	UNK0	0.000	
35	   H	0.698	8.360	-0.203	 H	1	UNK0	0.000	
36	   H	0.166	9.066	2.119	 H	1	UNK0	0.000	
37	   H	0.380	4.143	-1.196	 H	1	UNK0	0.000	
38	   H	-1.307	4.291	-1.779	 H	1	UNK0	0.000	
39	   H	-0.104	2.026	-1.925	 H	1	UNK0	0.000	
40	   H	-1.792	1.952	-1.218	 H	1	UNK0	0.000	
41	   H	-0.278	2.197	2.212	 H	1	UNK0	0.000	
42	   H	-1.523	1.139	1.503	 H	1	UNK0	0.000	
43	   H	-2.333	3.548	1.964	 H	1	UNK0	0.000	
44	   H	-2.677	2.809	0.403	 H	1	UNK0	0.000	
45	   H	1.344	0.550	-0.710	 H	1	UNK0	0.000	
46	   H	-0.161	-0.282	-0.255	 H	1	UNK0	0.000	
47	   H	0.304	0.212	2.182	 H	1	UNK0	0.000	
48	   H	1.850	1.045	1.652	 H	1	UNK0	0.000	
49	   H	2.231	-1.193	2.451	 H	1	UNK0	0.000	
50	   H	2.629	-0.974	0.669	 H	1	UNK0	0.000	
51	   H	1.156	-2.691	0.187	 H	1	UNK0	0.000	
52	   H	-2.149	-3.207	1.119	 H	1	UNK0	0.000	
53	   H	-1.140	-4.339	2.148	 H	1	UNK0	0.000	
54	   H	-1.708	-2.937	-1.196	 H	1	UNK0	0.000	
55	   H	-1.686	-3.034	-3.491	 H	1	UNK0	0.000	
56	   H	-0.716	-4.277	-4.415	 H	1	UNK0	0.000	
57	   H	1.208	-5.264	-5.126	 H	1	UNK0	0.000	
58	   H	1.491	-6.992	-5.177	 H	1	UNK0	0.000	
59	   H	-0.210	-6.408	-5.040	 H	1	UNK0	0.000	
@<TRIPOS>BOND
1 1 2 1
2 2 3 2
3 2 7 1
4 3 4 1
5 4 5 2
6 4 8 1
7 5 6 1
8 6 7 2
9 8 9 1
10 8 13 1
11 9 10 1
12 10 11 1
13 11 12 1
14 11 14 1
15 12 13 1
16 14 15 1
17 15 16 1
18 16 17 1
19 17 18 1
20 18 19 2
21 18 20 1
22 20 21 1
23 21 22 1
24 21 31 1
25 22 23 1
26 23 24 2
27 23 25 1
28 25 26 1
29 25 29 2
30 26 27 2
31 26 31 1
32 27 28 1
33 28 29 1
34 29 30 1
35 31 32 2
36 3 33 1
37 5 34 1
38 6 35 1
39 7 36 1
40 9 37 1
41 9 38 1
42 10 39 1
43 10 40 1
44 12 41 1
45 12 42 1
46 13 43 1
47 13 44 1
48 14 45 1
49 14 46 1
50 15 47 1
51 15 48 1
52 16 49 1
53 16 50 1
54 17 51 1
55 20 52 1
56 20 53 1
57 22 54 1
58 24 55 1
59 24 56 1
60 30 57 1
61 30 58 1
62 30 59 1
@<TRIPOS>SUBSTRUCTURE
1	UNK0	1	GROUP	1 ****	UNK
