# created with PyMOL 2.3.2
@<TRIPOS>MOLECULE
2437
66 69 1                 
SMALL
USER_CHARGES
@<TRIPOS>ATOM
1	  Cl	4.313	3.495	-3.904	Cl	1	UNK0	0.000	
2	   C	3.728	2.975	-2.338	C.2	1	UNK0	0.000	
3	   C	3.570	1.630	-2.038	C.2	1	UNK0	0.000	
4	   C	3.114	1.171	-0.824	C.2	1	UNK0	0.000	
5	   C	2.814	2.160	0.109	C.2	1	UNK0	0.000	
6	   C	2.968	3.501	-0.182	C.2	1	UNK0	0.000	
7	   C	3.426	3.930	-1.405	C.2	1	UNK0	0.000	
8	   N	2.960	-0.198	-0.497	N.pl3	1	UNK0	0.000	
9	   C	2.146	-0.532	0.683	C.3	1	UNK0	0.000	
10	   C	1.531	-1.893	0.438	C.3	1	UNK0	0.000	
11	   N	1.338	-2.090	-0.933	N.3	1	UNK0	0.000	
12	   C	2.545	-2.315	-1.695	C.3	1	UNK0	0.000	
13	   C	3.560	-1.291	-1.235	C.3	1	UNK0	0.000	
14	   C	0.171	-2.566	-1.491	C.3	1	UNK0	0.000	
15	   C	-0.999	-1.659	-1.526	C.3	1	UNK0	0.000	
16	   C	-1.504	-1.164	-0.227	C.3	1	UNK0	0.000	
17	   N	-2.707	-0.340	-0.392	N.pl3	1	UNK0	0.000	
18	   C	-2.731	0.849	-1.157	C.2	1	UNK0	0.000	
19	   C	-2.483	2.167	-0.769	C.2	1	UNK0	0.000	
20	   C	-2.728	2.535	-2.076	C.2	1	UNK0	0.000	
21	   O	-2.734	3.631	-2.707	O.2	1	UNK0	0.000	
22	   C	-2.973	1.238	-2.462	C.2	1	UNK0	0.000	
23	   O	-3.285	0.614	-3.518	O.2	1	UNK0	0.000	
24	   N	-2.133	2.835	0.437	N.pl3	1	UNK0	0.000	
25	   C	-0.742	3.021	0.771	C.3	1	UNK0	0.000	
26	   C	-0.525	2.594	2.205	C.3	1	UNK0	0.000	
27	   N	-1.715	1.957	2.700	N.pl3	1	UNK0	0.000	
28	   C	-2.957	2.676	2.704	C.3	1	UNK0	0.000	
29	   C	-3.124	3.346	1.362	C.3	1	UNK0	0.000	
30	   C	-1.663	0.632	3.178	C.2	1	UNK0	0.000	
31	   O	-0.583	-0.044	3.194	O.co2	1	UNK0	0.000	
32	   O	-2.788	-0.037	3.668	O.3	1	UNK0	0.000	
33	   C	-2.746	-1.364	4.148	C.3	1	UNK0	0.000	
34	   C	-1.826	-1.558	5.309	C.3	1	UNK0	0.000	
35	   H	3.819	0.923	-2.807	 H	1	UNK0	0.000	
36	   H	2.455	1.870	1.088	 H	1	UNK0	0.000	
37	   H	2.728	4.239	0.559	 H	1	UNK0	0.000	
38	   H	3.555	4.971	-1.659	 H	1	UNK0	0.000	
39	   H	2.806	-0.556	1.594	 H	1	UNK0	0.000	
40	   H	1.378	0.206	0.901	 H	1	UNK0	0.000	
41	   H	2.370	-2.608	0.814	 H	1	UNK0	0.000	
42	   H	0.654	-2.101	1.046	 H	1	UNK0	0.000	
43	   H	2.926	-3.366	-1.567	 H	1	UNK0	0.000	
44	   H	2.283	-2.205	-2.767	 H	1	UNK0	0.000	
45	   H	4.091	-0.924	-2.113	 H	1	UNK0	0.000	
46	   H	4.269	-1.777	-0.498	 H	1	UNK0	0.000	
47	   H	0.405	-2.806	-2.592	 H	1	UNK0	0.000	
48	   H	-0.145	-3.591	-1.121	 H	1	UNK0	0.000	
49	   H	-1.889	-2.140	-2.044	 H	1	UNK0	0.000	
50	   H	-0.793	-0.783	-2.227	 H	1	UNK0	0.000	
51	   H	-0.709	-0.513	0.243	 H	1	UNK0	0.000	
52	   H	-1.712	-1.972	0.479	 H	1	UNK0	0.000	
53	   H	-3.574	-0.655	0.077	 H	1	UNK0	0.000	
54	   H	-0.065	2.489	0.071	 H	1	UNK0	0.000	
55	   H	-0.540	4.109	0.712	 H	1	UNK0	0.000	
56	   H	-0.278	3.489	2.846	 H	1	UNK0	0.000	
57	   H	0.365	1.923	2.256	 H	1	UNK0	0.000	
58	   H	-3.799	1.938	2.785	 H	1	UNK0	0.000	
59	   H	-3.018	3.425	3.523	 H	1	UNK0	0.000	
60	   H	-4.132	3.145	0.913	 H	1	UNK0	0.000	
61	   H	-3.038	4.439	1.511	 H	1	UNK0	0.000	
62	   H	-2.447	-2.003	3.273	 H	1	UNK0	0.000	
63	   H	-3.801	-1.651	4.368	 H	1	UNK0	0.000	
64	   H	-0.849	-1.924	4.921	 H	1	UNK0	0.000	
65	   H	-2.239	-2.372	5.946	 H	1	UNK0	0.000	
66	   H	-1.708	-0.664	5.940	 H	1	UNK0	0.000	
@<TRIPOS>BOND
1 1 2 1
2 2 3 2
3 2 7 1
4 3 4 1
5 4 5 2
6 4 8 1
7 5 6 1
8 6 7 2
9 8 9 1
10 8 13 1
11 9 10 1
12 10 11 1
13 11 12 1
14 11 14 1
15 12 13 1
16 14 15 1
17 15 16 1
18 16 17 1
19 17 18 1
20 18 19 2
21 18 22 1
22 19 20 1
23 19 24 1
24 20 21 2
25 20 22 1
26 22 23 2
27 24 25 1
28 24 29 1
29 25 26 1
30 26 27 1
31 27 28 1
32 27 30 1
33 28 29 1
34 30 31 2
35 30 32 1
36 32 33 1
37 33 34 1
38 3 35 1
39 5 36 1
40 6 37 1
41 7 38 1
42 9 39 1
43 9 40 1
44 10 41 1
45 10 42 1
46 12 43 1
47 12 44 1
48 13 45 1
49 13 46 1
50 14 47 1
51 14 48 1
52 15 49 1
53 15 50 1
54 16 51 1
55 16 52 1
56 17 53 1
57 25 54 1
58 25 55 1
59 26 56 1
60 26 57 1
61 28 58 1
62 28 59 1
63 29 60 1
64 29 61 1
65 33 62 1
66 33 63 1
67 34 64 1
68 34 65 1
69 34 66 1
@<TRIPOS>SUBSTRUCTURE
1	UNK0	1	GROUP	1 ****	UNK
