# created with PyMOL 2.3.2
@<TRIPOS>MOLECULE
2438
61 64 1                 
SMALL
USER_CHARGES
@<TRIPOS>ATOM
1	  Cl	-6.602	-2.164	4.596	Cl	1	UNK0	0.000	
2	   C	-4.970	-1.546	4.303	C.2	1	UNK0	0.000	
3	   C	-4.791	-0.357	3.610	C.2	1	UNK0	0.000	
4	   C	-3.558	0.163	3.358	C.2	1	UNK0	0.000	
5	   C	-2.463	-0.543	3.822	C.2	1	UNK0	0.000	
6	   C	-2.606	-1.743	4.524	C.2	1	UNK0	0.000	
7	   C	-3.869	-2.244	4.764	C.2	1	UNK0	0.000	
8	   N	-3.343	1.368	2.658	N.pl3	1	UNK0	0.000	
9	   C	-1.973	1.889	2.467	C.3	1	UNK0	0.000	
10	   C	-2.033	2.962	1.368	C.3	1	UNK0	0.000	
11	   N	-2.796	2.405	0.302	N.3	1	UNK0	0.000	
12	   C	-4.197	2.322	0.565	C.3	1	UNK0	0.000	
13	   C	-4.377	2.187	2.080	C.3	1	UNK0	0.000	
14	   C	-2.424	2.800	-1.015	C.3	1	UNK0	0.000	
15	   C	-1.073	2.214	-1.348	C.3	1	UNK0	0.000	
16	   N	-1.106	0.772	-1.291	N.pl3	1	UNK0	0.000	
17	   C	0.096	0.022	-1.576	C.2	1	UNK0	0.000	
18	   O	1.123	0.659	-1.863	O.2	1	UNK0	0.000	
19	   C	0.029	-1.421	-1.510	C.3	1	UNK0	0.000	
20	   C	1.224	-2.266	-1.752	C.3	1	UNK0	0.000	
21	   N	2.302	-2.052	-0.868	N.pl3	1	UNK0	0.000	
22	   C	3.428	-1.371	-1.072	C.2	1	UNK0	0.000	
23	   C	4.367	-1.192	-0.055	C.2	1	UNK0	0.000	
24	   C	5.545	-0.505	-0.309	C.2	1	UNK0	0.000	
25	   C	5.798	0.005	-1.561	C.2	1	UNK0	0.000	
26	   C	4.847	-0.192	-2.539	C.2	1	UNK0	0.000	
27	   C	3.672	-0.864	-2.329	C.2	1	UNK0	0.000	
28	   N	4.178	-1.703	1.183	N.pl3	1	UNK0	0.000	
29	   C	3.051	-2.393	1.404	C.2	1	UNK0	0.000	
30	   O	2.872	-2.876	2.568	O.2	1	UNK0	0.000	
31	   C	2.145	-2.556	0.398	C.2	1	UNK0	0.000	
32	   O	1.105	-3.223	0.689	O.2	1	UNK0	0.000	
33	   C	5.177	-1.493	2.209	C.3	1	UNK0	0.000	
34	   H	-5.701	0.125	3.286	 H	1	UNK0	0.000	
35	   H	-1.450	-0.200	3.666	 H	1	UNK0	0.000	
36	   H	-1.757	-2.303	4.891	 H	1	UNK0	0.000	
37	   H	-4.021	-3.187	5.313	 H	1	UNK0	0.000	
38	   H	-1.365	1.058	2.075	 H	1	UNK0	0.000	
39	   H	-1.596	2.300	3.418	 H	1	UNK0	0.000	
40	   H	-2.487	3.909	1.770	 H	1	UNK0	0.000	
41	   H	-1.016	3.254	1.057	 H	1	UNK0	0.000	
42	   H	-4.600	1.384	0.140	 H	1	UNK0	0.000	
43	   H	-4.716	3.231	0.255	 H	1	UNK0	0.000	
44	   H	-5.376	1.805	2.321	 H	1	UNK0	0.000	
45	   H	-4.232	3.210	2.546	 H	1	UNK0	0.000	
46	   H	-3.151	2.328	-1.722	 H	1	UNK0	0.000	
47	   H	-2.446	3.872	-1.206	 H	1	UNK0	0.000	
48	   H	-0.265	2.588	-0.706	 H	1	UNK0	0.000	
49	   H	-0.766	2.472	-2.400	 H	1	UNK0	0.000	
50	   H	-1.988	0.283	-1.046	 H	1	UNK0	0.000	
51	   H	-0.861	-1.800	-2.147	 H	1	UNK0	0.000	
52	   H	-0.386	-1.700	-0.468	 H	1	UNK0	0.000	
53	   H	0.861	-3.334	-1.531	 H	1	UNK0	0.000	
54	   H	1.487	-2.372	-2.825	 H	1	UNK0	0.000	
55	   H	6.254	-0.383	0.500	 H	1	UNK0	0.000	
56	   H	6.732	0.554	-1.776	 H	1	UNK0	0.000	
57	   H	5.040	0.207	-3.526	 H	1	UNK0	0.000	
58	   H	2.922	-1.017	-3.099	 H	1	UNK0	0.000	
59	   H	5.416	-0.415	2.354	 H	1	UNK0	0.000	
60	   H	6.074	-2.047	1.924	 H	1	UNK0	0.000	
61	   H	4.752	-1.891	3.159	 H	1	UNK0	0.000	
@<TRIPOS>BOND
1 1 2 1
2 2 3 2
3 2 7 1
4 3 4 1
5 4 5 2
6 4 8 1
7 5 6 1
8 6 7 2
9 8 9 1
10 8 13 1
11 9 10 1
12 10 11 1
13 11 12 1
14 11 14 1
15 12 13 1
16 14 15 1
17 15 16 1
18 16 17 1
19 17 18 2
20 17 19 1
21 19 20 1
22 20 21 1
23 21 22 1
24 21 31 1
25 22 23 1
26 22 27 2
27 23 24 2
28 23 28 1
29 24 25 1
30 25 26 2
31 26 27 1
32 28 29 1
33 28 33 1
34 29 30 2
35 29 31 1
36 31 32 2
37 3 34 1
38 5 35 1
39 6 36 1
40 7 37 1
41 9 38 1
42 9 39 1
43 10 40 1
44 10 41 1
45 12 42 1
46 12 43 1
47 13 44 1
48 13 45 1
49 14 46 1
50 14 47 1
51 15 48 1
52 15 49 1
53 16 50 1
54 19 51 1
55 19 52 1
56 20 53 1
57 20 54 1
58 24 55 1
59 25 56 1
60 26 57 1
61 27 58 1
62 33 59 1
63 33 60 1
64 33 61 1
@<TRIPOS>SUBSTRUCTURE
1	UNK0	1	GROUP	1 ****	UNK
