# created with PyMOL 2.3.2
@<TRIPOS>MOLECULE
2441
49 52 1                 
SMALL
USER_CHARGES
@<TRIPOS>ATOM
1	  Cl	6.176	-0.393	3.078	Cl	1	UNK0	0.000	
2	   C	4.437	-0.445	2.821	C.2	1	UNK0	0.000	
3	   C	3.947	-0.872	1.585	C.2	1	UNK0	0.000	
4	   C	2.608	-0.936	1.318	C.2	1	UNK0	0.000	
5	   C	1.756	-0.549	2.359	C.2	1	UNK0	0.000	
6	   C	2.226	-0.130	3.572	C.2	1	UNK0	0.000	
7	   C	3.566	-0.073	3.816	C.2	1	UNK0	0.000	
8	   C	2.405	-1.401	-0.047	C.3	1	UNK0	0.000	
9	   N	1.617	-2.617	-0.114	N.3	1	UNK0	0.000	
10	   C	0.632	-2.477	-1.135	C.3	1	UNK0	0.000	
11	   C	0.739	-1.110	-1.710	C.3	1	UNK0	0.000	
12	   C	1.731	-0.357	-0.899	C.3	1	UNK0	0.000	
13	   C	0.991	0.670	-0.170	C.2	1	UNK0	0.000	
14	   O	1.499	1.522	0.603	O.2	1	UNK0	0.000	
15	   N	-0.395	0.542	-0.484	N.pl3	1	UNK0	0.000	
16	   C	-0.536	-0.387	-1.548	C.2	1	UNK0	0.000	
17	   O	-1.547	-0.614	-2.279	O.2	1	UNK0	0.000	
18	   C	-1.521	1.214	0.129	C.3	1	UNK0	0.000	
19	   C	-1.305	2.706	-0.071	C.3	1	UNK0	0.000	
20	   C	-2.815	0.831	-0.549	C.3	1	UNK0	0.000	
21	   C	-1.675	0.924	1.598	C.3	1	UNK0	0.000	
22	   C	0.704	-3.572	-2.179	C.3	1	UNK0	0.000	
23	   C	-0.328	-3.402	-3.226	C.2	1	UNK0	0.000	
24	   O	-0.114	-2.602	-4.172	O.2	1	UNK0	0.000	
25	   N	-1.561	-4.104	-3.215	N.pl3	1	UNK0	0.000	
26	   C	3.762	-1.681	-0.563	C.2	1	UNK0	0.000	
27	   O	4.074	-2.156	-1.703	O.2	1	UNK0	0.000	
28	   N	4.674	-1.321	0.451	N.pl3	1	UNK0	0.000	
29	   H	0.710	-0.598	2.164	 H	1	UNK0	0.000	
30	   H	1.546	0.171	4.378	 H	1	UNK0	0.000	
31	   H	3.931	0.259	4.774	 H	1	UNK0	0.000	
32	   H	2.232	-3.437	-0.370	 H	1	UNK0	0.000	
33	   H	-0.371	-2.597	-0.628	 H	1	UNK0	0.000	
34	   H	1.078	-1.096	-2.768	 H	1	UNK0	0.000	
35	   H	2.540	0.090	-1.550	 H	1	UNK0	0.000	
36	   H	-0.220	2.936	-0.155	 H	1	UNK0	0.000	
37	   H	-1.767	2.971	-1.037	 H	1	UNK0	0.000	
38	   H	-1.808	3.275	0.726	 H	1	UNK0	0.000	
39	   H	-3.003	-0.254	-0.491	 H	1	UNK0	0.000	
40	   H	-3.657	1.390	-0.050	 H	1	UNK0	0.000	
41	   H	-2.816	1.223	-1.596	 H	1	UNK0	0.000	
42	   H	-1.001	1.500	2.243	 H	1	UNK0	0.000	
43	   H	-2.726	1.226	1.869	 H	1	UNK0	0.000	
44	   H	-1.622	-0.165	1.795	 H	1	UNK0	0.000	
45	   H	0.559	-4.546	-1.669	 H	1	UNK0	0.000	
46	   H	1.727	-3.563	-2.615	 H	1	UNK0	0.000	
47	   H	-2.497	-3.632	-3.339	 H	1	UNK0	0.000	
48	   H	-1.564	-5.131	-3.080	 H	1	UNK0	0.000	
49	   H	5.731	-1.390	0.342	 H	1	UNK0	0.000	
@<TRIPOS>BOND
1 1 2 1
2 2 3 2
3 2 7 1
4 3 4 1
5 3 28 1
6 4 5 2
7 4 8 1
8 5 6 1
9 6 7 2
10 8 9 1
11 8 12 1
12 8 26 1
13 9 10 1
14 10 11 1
15 10 22 1
16 11 12 1
17 11 16 1
18 12 13 1
19 13 14 2
20 13 15 1
21 15 16 1
22 15 18 1
23 16 17 2
24 18 19 1
25 18 20 1
26 18 21 1
27 22 23 1
28 23 24 2
29 23 25 1
30 26 27 2
31 26 28 1
32 5 29 1
33 6 30 1
34 7 31 1
35 9 32 1
36 10 33 1
37 11 34 1
38 12 35 1
39 19 36 1
40 19 37 1
41 19 38 1
42 20 39 1
43 20 40 1
44 20 41 1
45 21 42 1
46 21 43 1
47 21 44 1
48 22 45 1
49 22 46 1
50 25 47 1
51 25 48 1
52 28 49 1
@<TRIPOS>SUBSTRUCTURE
1	UNK0	1	GROUP	1 ****	UNK
