# created with PyMOL 2.3.2
@<TRIPOS>MOLECULE
2446
58 61 1                 
SMALL
USER_CHARGES
@<TRIPOS>ATOM
1	  Cl	-4.047	4.924	-0.532	Cl	1	UNK0	0.000	
2	   C	-2.747	4.670	-1.669	C.2	1	UNK0	0.000	
3	   C	-2.761	3.540	-2.444	C.2	1	UNK0	0.000	
4	   C	-1.768	3.277	-3.360	C.2	1	UNK0	0.000	
5	   C	-0.746	4.206	-3.469	C.2	1	UNK0	0.000	
6	   C	-0.703	5.349	-2.705	C.2	1	UNK0	0.000	
7	   C	-1.719	5.572	-1.800	C.2	1	UNK0	0.000	
8	   C	-1.799	2.042	-4.198	C.3	1	UNK0	0.000	
9	   N	-1.181	0.985	-3.470	N.3	1	UNK0	0.000	
10	   C	-1.122	-0.271	-4.136	C.3	1	UNK0	0.000	
11	   C	-0.881	-1.360	-3.119	C.3	1	UNK0	0.000	
12	   N	-0.609	-0.739	-1.839	N.pl3	1	UNK0	0.000	
13	   C	0.460	0.256	-1.839	C.3	1	UNK0	0.000	
14	   C	0.019	1.357	-2.789	C.3	1	UNK0	0.000	
15	   C	-1.330	-1.069	-0.661	C.2	1	UNK0	0.000	
16	   O	-2.232	-1.936	-0.759	O.2	1	UNK0	0.000	
17	   C	-1.066	-0.450	0.636	C.3	1	UNK0	0.000	
18	   C	-1.920	-0.961	1.749	C.3	1	UNK0	0.000	
19	   N	-1.806	-2.353	2.027	N.pl3	1	UNK0	0.000	
20	   N	-2.521	-3.320	1.498	N.2	1	UNK0	0.000	
21	   N	-2.155	-4.497	1.981	N.2	1	UNK0	0.000	
22	   N	-1.174	-4.259	2.845	N.2	1	UNK0	0.000	
23	   C	-0.941	-2.915	2.887	C.2	1	UNK0	0.000	
24	   C	0.081	-2.249	3.734	C.3	1	UNK0	0.000	
25	   N	1.295	-2.161	2.986	N.3	1	UNK0	0.000	
26	   C	2.382	-1.540	3.671	C.3	1	UNK0	0.000	
27	   C	3.484	-1.215	2.690	C.3	1	UNK0	0.000	
28	   O	3.451	-2.029	1.570	O.3	1	UNK0	0.000	
29	   C	3.134	-3.328	2.020	C.3	1	UNK0	0.000	
30	   C	1.644	-3.336	2.256	C.3	1	UNK0	0.000	
31	   H	-3.559	2.828	-2.350	 H	1	UNK0	0.000	
32	   H	0.053	4.031	-4.180	 H	1	UNK0	0.000	
33	   H	0.085	6.084	-2.776	 H	1	UNK0	0.000	
34	   H	-1.713	6.464	-1.185	 H	1	UNK0	0.000	
35	   H	-1.163	2.266	-5.100	 H	1	UNK0	0.000	
36	   H	-2.824	1.853	-4.510	 H	1	UNK0	0.000	
37	   H	-0.321	-0.262	-4.933	 H	1	UNK0	0.000	
38	   H	-2.091	-0.423	-4.672	 H	1	UNK0	0.000	
39	   H	0.035	-1.903	-3.434	 H	1	UNK0	0.000	
40	   H	-1.765	-2.027	-3.080	 H	1	UNK0	0.000	
41	   H	1.397	-0.200	-2.236	 H	1	UNK0	0.000	
42	   H	0.688	0.626	-0.827	 H	1	UNK0	0.000	
43	   H	-0.252	2.219	-2.111	 H	1	UNK0	0.000	
44	   H	0.853	1.648	-3.462	 H	1	UNK0	0.000	
45	   H	0.001	-0.634	0.923	 H	1	UNK0	0.000	
46	   H	-1.174	0.659	0.569	 H	1	UNK0	0.000	
47	   H	-1.712	-0.321	2.655	 H	1	UNK0	0.000	
48	   H	-2.985	-0.693	1.483	 H	1	UNK0	0.000	
49	   H	-0.273	-1.206	3.933	 H	1	UNK0	0.000	
50	   H	0.242	-2.776	4.701	 H	1	UNK0	0.000	
51	   H	2.003	-0.541	4.040	 H	1	UNK0	0.000	
52	   H	2.737	-2.072	4.562	 H	1	UNK0	0.000	
53	   H	3.479	-0.158	2.376	 H	1	UNK0	0.000	
54	   H	4.450	-1.398	3.217	 H	1	UNK0	0.000	
55	   H	3.620	-3.434	3.023	 H	1	UNK0	0.000	
56	   H	3.454	-4.101	1.305	 H	1	UNK0	0.000	
57	   H	1.284	-4.218	2.789	 H	1	UNK0	0.000	
58	   H	1.143	-3.280	1.261	 H	1	UNK0	0.000	
@<TRIPOS>BOND
1 1 2 1
2 2 3 2
3 2 7 1
4 3 4 1
5 4 5 2
6 4 8 1
7 5 6 1
8 6 7 2
9 8 9 1
10 9 10 1
11 9 14 1
12 10 11 1
13 11 12 1
14 12 13 1
15 12 15 1
16 13 14 1
17 15 16 2
18 15 17 1
19 17 18 1
20 18 19 1
21 19 20 1
22 19 23 1
23 20 21 2
24 21 22 1
25 22 23 2
26 23 24 1
27 24 25 1
28 25 26 1
29 25 30 1
30 26 27 1
31 27 28 1
32 28 29 1
33 29 30 1
34 3 31 1
35 5 32 1
36 6 33 1
37 7 34 1
38 8 35 1
39 8 36 1
40 10 37 1
41 10 38 1
42 11 39 1
43 11 40 1
44 13 41 1
45 13 42 1
46 14 43 1
47 14 44 1
48 17 45 1
49 17 46 1
50 18 47 1
51 18 48 1
52 24 49 1
53 24 50 1
54 26 51 1
55 26 52 1
56 27 53 1
57 27 54 1
58 29 55 1
59 29 56 1
60 30 57 1
61 30 58 1
@<TRIPOS>SUBSTRUCTURE
1	UNK0	1	GROUP	1 ****	UNK
