# created with PyMOL 2.3.2
@<TRIPOS>MOLECULE
2447
62 65 1                 
SMALL
USER_CHARGES
@<TRIPOS>ATOM
1	   S	2.424	0.849	-4.143	S.O2	1	UNK0	0.000	
2	   O	2.957	0.432	-2.789	O.2	1	UNK0	0.000	
3	   O	2.249	-0.440	-4.935	O.2	1	UNK0	0.000	
4	   N	0.914	1.624	-4.062	N.3	1	UNK0	0.000	
5	   C	0.911	2.850	-3.337	C.3	1	UNK0	0.000	
6	   C	0.454	2.574	-1.918	C.3	1	UNK0	0.000	
7	   N	-0.948	2.242	-1.977	N.3	1	UNK0	0.000	
8	   C	-1.366	1.581	-3.157	C.3	1	UNK0	0.000	
9	   C	-0.179	0.782	-3.697	C.3	1	UNK0	0.000	
10	   C	-1.824	3.209	-1.415	C.3	1	UNK0	0.000	
11	   C	-1.640	3.232	0.061	C.3	1	UNK0	0.000	
12	   C	-2.510	4.230	0.748	C.2	1	UNK0	0.000	
13	   O	-3.197	5.072	0.122	O.co2	1	UNK0	0.000	
14	   O	-2.484	4.136	2.137	O.3	1	UNK0	0.000	
15	   C	-2.237	2.976	2.841	C.2	1	UNK0	0.000	
16	   C	-2.004	1.848	2.135	C.2	1	UNK0	0.000	
17	   C	-2.029	1.919	0.690	C.2	1	UNK0	0.000	
18	   O	-2.356	0.954	-0.021	O.2	1	UNK0	0.000	
19	   C	-1.750	0.569	2.812	C.3	1	UNK0	0.000	
20	   N	-0.493	-0.007	2.564	N.3	1	UNK0	0.000	
21	   C	-0.171	-0.528	1.305	C.3	1	UNK0	0.000	
22	   C	0.986	-1.546	1.423	C.3	1	UNK0	0.000	
23	   N	0.607	-2.412	2.510	N.pl3	1	UNK0	0.000	
24	   C	0.644	-1.780	3.821	C.3	1	UNK0	0.000	
25	   C	0.350	-0.294	3.667	C.3	1	UNK0	0.000	
26	   C	0.221	-3.753	2.318	C.2	1	UNK0	0.000	
27	   C	-0.029	-4.309	1.084	C.2	1	UNK0	0.000	
28	   C	-0.400	-5.627	0.954	C.2	1	UNK0	0.000	
29	   C	-0.542	-6.460	2.039	C.2	1	UNK0	0.000	
30	   C	-0.300	-5.935	3.282	C.2	1	UNK0	0.000	
31	   C	0.074	-4.606	3.417	C.2	1	UNK0	0.000	
32	  Cl	-0.704	-6.273	-0.636	Cl	1	UNK0	0.000	
33	   C	3.662	1.790	-4.953	C.3	1	UNK0	0.000	
34	   H	0.090	3.483	-3.788	 H	1	UNK0	0.000	
35	   H	1.827	3.427	-3.414	 H	1	UNK0	0.000	
36	   H	0.996	1.679	-1.551	 H	1	UNK0	0.000	
37	   H	0.670	3.402	-1.241	 H	1	UNK0	0.000	
38	   H	-1.817	2.227	-3.929	 H	1	UNK0	0.000	
39	   H	-2.148	0.822	-2.883	 H	1	UNK0	0.000	
40	   H	0.107	0.067	-2.882	 H	1	UNK0	0.000	
41	   H	-0.498	0.138	-4.550	 H	1	UNK0	0.000	
42	   H	-1.603	4.238	-1.794	 H	1	UNK0	0.000	
43	   H	-2.860	2.941	-1.727	 H	1	UNK0	0.000	
44	   H	-0.602	3.445	0.317	 H	1	UNK0	0.000	
45	   H	-2.217	2.910	3.915	 H	1	UNK0	0.000	
46	   H	-2.617	-0.109	2.562	 H	1	UNK0	0.000	
47	   H	-1.832	0.758	3.925	 H	1	UNK0	0.000	
48	   H	0.178	0.207	0.563	 H	1	UNK0	0.000	
49	   H	-1.009	-1.184	0.929	 H	1	UNK0	0.000	
50	   H	1.219	-2.028	0.481	 H	1	UNK0	0.000	
51	   H	1.866	-0.918	1.691	 H	1	UNK0	0.000	
52	   H	-0.093	-2.191	4.514	 H	1	UNK0	0.000	
53	   H	1.691	-1.848	4.179	 H	1	UNK0	0.000	
54	   H	-0.139	0.040	4.602	 H	1	UNK0	0.000	
55	   H	1.290	0.290	3.584	 H	1	UNK0	0.000	
56	   H	0.078	-3.656	0.206	 H	1	UNK0	0.000	
57	   H	-0.839	-7.511	1.918	 H	1	UNK0	0.000	
58	   H	-0.395	-6.546	4.184	 H	1	UNK0	0.000	
59	   H	0.272	-4.176	4.395	 H	1	UNK0	0.000	
60	   H	4.273	2.414	-4.273	 H	1	UNK0	0.000	
61	   H	4.400	1.113	-5.474	 H	1	UNK0	0.000	
62	   H	3.275	2.464	-5.743	 H	1	UNK0	0.000	
@<TRIPOS>BOND
1 1 2 2
2 1 3 2
3 1 4 1
4 1 33 1
5 4 5 1
6 4 9 1
7 5 6 1
8 6 7 1
9 7 8 1
10 7 10 1
11 8 9 1
12 10 11 1
13 11 12 1
14 11 17 1
15 12 13 2
16 12 14 1
17 14 15 1
18 15 16 2
19 16 17 1
20 16 19 1
21 17 18 2
22 19 20 1
23 20 21 1
24 20 25 1
25 21 22 1
26 22 23 1
27 23 24 1
28 23 26 1
29 24 25 1
30 26 27 2
31 26 31 1
32 27 28 1
33 28 29 2
34 28 32 1
35 29 30 1
36 30 31 2
37 5 34 1
38 5 35 1
39 6 36 1
40 6 37 1
41 8 38 1
42 8 39 1
43 9 40 1
44 9 41 1
45 10 42 1
46 10 43 1
47 11 44 1
48 15 45 1
49 19 46 1
50 19 47 1
51 21 48 1
52 21 49 1
53 22 50 1
54 22 51 1
55 24 52 1
56 24 53 1
57 25 54 1
58 25 55 1
59 27 56 1
60 29 57 1
61 30 58 1
62 31 59 1
63 33 60 1
64 33 61 1
65 33 62 1
@<TRIPOS>SUBSTRUCTURE
1	UNK0	1	GROUP	1 ****	UNK
