# created with PyMOL 2.3.2
@<TRIPOS>MOLECULE
2448
56 60 1                 
SMALL
USER_CHARGES
@<TRIPOS>ATOM
1	  Cl	-2.267	0.448	-2.020	Cl	1	UNK0	0.000	
2	   C	-1.857	-1.242	-1.934	C.2	1	UNK0	0.000	
3	   C	-1.764	-1.878	-0.723	C.2	1	UNK0	0.000	
4	   C	-1.393	-3.230	-0.807	C.2	1	UNK0	0.000	
5	   N	-1.152	-3.846	-1.974	N.2	1	UNK0	0.000	
6	   N	-1.244	-3.231	-3.140	N.pl3	1	UNK0	0.000	
7	   C	-1.593	-1.941	-3.110	C.2	1	UNK0	0.000	
8	   O	-1.681	-1.350	-4.232	O.2	1	UNK0	0.000	
9	   C	-0.988	-3.886	-4.379	C.2	1	UNK0	0.000	
10	   C	-1.888	-4.801	-4.881	C.2	1	UNK0	0.000	
11	   C	-1.673	-5.459	-6.085	C.2	1	UNK0	0.000	
12	   C	-0.536	-5.213	-6.825	C.2	1	UNK0	0.000	
13	   C	0.363	-4.296	-6.319	C.2	1	UNK0	0.000	
14	   C	0.148	-3.644	-5.124	C.2	1	UNK0	0.000	
15	   N	-2.032	-1.316	0.544	N.pl3	1	UNK0	0.000	
16	   C	-1.429	-2.001	1.711	C.3	1	UNK0	0.000	
17	   C	-1.225	-0.993	2.815	C.3	1	UNK0	0.000	
18	   N	-0.914	0.275	2.224	N.pl3	1	UNK0	0.000	
19	   C	-1.952	0.941	1.439	C.3	1	UNK0	0.000	
20	   C	-2.853	-0.160	0.831	C.3	1	UNK0	0.000	
21	   C	0.351	0.860	2.394	C.2	1	UNK0	0.000	
22	   O	0.635	1.992	1.869	O.2	1	UNK0	0.000	
23	   C	1.410	0.185	3.192	C.3	1	UNK0	0.000	
24	   N	2.612	0.989	3.215	N.pl3	1	UNK0	0.000	
25	   N	3.523	0.805	2.268	N.pl3	1	UNK0	0.000	
26	   C	4.672	1.499	2.200	C.2	1	UNK0	0.000	
27	   O	5.487	1.286	1.292	O.2	1	UNK0	0.000	
28	   C	4.905	2.447	3.171	C.2	1	UNK0	0.000	
29	   C	3.979	2.647	4.150	C.2	1	UNK0	0.000	
30	   C	4.235	3.601	5.109	C.2	1	UNK0	0.000	
31	   C	5.411	4.360	5.100	C.2	1	UNK0	0.000	
32	   C	6.340	4.151	4.106	C.2	1	UNK0	0.000	
33	   C	6.071	3.181	3.138	C.2	1	UNK0	0.000	
34	   C	2.798	1.910	4.191	C.2	1	UNK0	0.000	
35	   O	1.941	2.083	5.084	O.2	1	UNK0	0.000	
36	   H	-1.312	-3.762	0.145	 H	1	UNK0	0.000	
37	   H	-2.795	-4.998	-4.293	 H	1	UNK0	0.000	
38	   H	-2.388	-6.179	-6.474	 H	1	UNK0	0.000	
39	   H	-0.342	-5.715	-7.774	 H	1	UNK0	0.000	
40	   H	1.266	-4.108	-6.918	 H	1	UNK0	0.000	
41	   H	0.894	-2.938	-4.788	 H	1	UNK0	0.000	
42	   H	-0.455	-2.368	1.374	 H	1	UNK0	0.000	
43	   H	-2.088	-2.848	2.013	 H	1	UNK0	0.000	
44	   H	-0.463	-1.332	3.546	 H	1	UNK0	0.000	
45	   H	-2.192	-0.954	3.399	 H	1	UNK0	0.000	
46	   H	-2.556	1.535	2.152	 H	1	UNK0	0.000	
47	   H	-1.560	1.613	0.676	 H	1	UNK0	0.000	
48	   H	-3.446	0.235	0.045	 H	1	UNK0	0.000	
49	   H	-3.477	-0.471	1.737	 H	1	UNK0	0.000	
50	   H	1.690	-0.799	2.750	 H	1	UNK0	0.000	
51	   H	1.047	-0.018	4.226	 H	1	UNK0	0.000	
52	   H	3.349	0.081	1.524	 H	1	UNK0	0.000	
53	   H	3.497	3.746	5.875	 H	1	UNK0	0.000	
54	   H	5.567	5.092	5.869	 H	1	UNK0	0.000	
55	   H	7.259	4.710	4.057	 H	1	UNK0	0.000	
56	   H	6.779	2.989	2.340	 H	1	UNK0	0.000	
@<TRIPOS>BOND
1 1 2 1
2 2 3 2
3 2 7 1
4 3 4 1
5 3 15 1
6 4 5 2
7 5 6 1
8 6 7 1
9 6 9 1
10 7 8 2
11 9 10 2
12 9 14 1
13 10 11 1
14 11 12 2
15 12 13 1
16 13 14 2
17 15 16 1
18 15 20 1
19 16 17 1
20 17 18 1
21 18 19 1
22 18 21 1
23 19 20 1
24 21 22 2
25 21 23 1
26 23 24 1
27 24 25 1
28 24 34 1
29 25 26 1
30 26 27 2
31 26 28 1
32 28 29 2
33 28 33 1
34 29 30 1
35 29 34 1
36 30 31 2
37 31 32 1
38 32 33 2
39 34 35 2
40 4 36 1
41 10 37 1
42 11 38 1
43 12 39 1
44 13 40 1
45 14 41 1
46 16 42 1
47 16 43 1
48 17 44 1
49 17 45 1
50 19 46 1
51 19 47 1
52 20 48 1
53 20 49 1
54 23 50 1
55 23 51 1
56 25 52 1
57 30 53 1
58 31 54 1
59 32 55 1
60 33 56 1
@<TRIPOS>SUBSTRUCTURE
1	UNK0	1	GROUP	1 ****	UNK
