# created with PyMOL 2.3.2
@<TRIPOS>MOLECULE
2449
56 59 1                 
SMALL
USER_CHARGES
@<TRIPOS>ATOM
1	  Cl	-0.700	2.772	-2.452	Cl	1	UNK0	0.000	
2	   C	-1.070	2.541	-0.780	C.2	1	UNK0	0.000	
3	   C	-0.322	1.639	-0.055	C.2	1	UNK0	0.000	
4	   C	-0.667	1.499	1.276	C.2	1	UNK0	0.000	
5	   N	-1.678	2.205	1.827	N.2	1	UNK0	0.000	
6	   N	-2.407	3.080	1.132	N.pl3	1	UNK0	0.000	
7	   C	-2.096	3.242	-0.171	C.2	1	UNK0	0.000	
8	   O	-2.731	4.049	-0.914	O.2	1	UNK0	0.000	
9	   C	-3.483	3.832	1.721	C.3	1	UNK0	0.000	
10	   C	-4.798	3.182	1.650	C.2	1	UNK0	0.000	
11	   C	-5.636	3.414	0.580	C.2	1	UNK0	0.000	
12	   C	-6.858	2.772	0.574	C.2	1	UNK0	0.000	
13	   C	-7.249	1.924	1.592	C.2	1	UNK0	0.000	
14	   C	-6.419	1.686	2.667	C.2	1	UNK0	0.000	
15	   C	-5.191	2.326	2.680	C.2	1	UNK0	0.000	
16	   N	0.731	0.915	-0.667	N.pl3	1	UNK0	0.000	
17	   C	1.554	-0.034	0.014	C.3	1	UNK0	0.000	
18	   C	2.608	-0.699	-0.802	C.3	1	UNK0	0.000	
19	   N	3.371	-1.611	-0.065	N.3	1	UNK0	0.000	
20	   C	4.143	-1.061	1.024	C.3	1	UNK0	0.000	
21	   C	3.903	-1.867	2.303	C.3	1	UNK0	0.000	
22	   O	2.647	-2.417	2.334	O.3	1	UNK0	0.000	
23	   C	2.421	-3.304	1.319	C.3	1	UNK0	0.000	
24	   C	3.128	-2.971	0.016	C.3	1	UNK0	0.000	
25	   C	2.220	-1.066	-2.183	C.3	1	UNK0	0.000	
26	   C	1.098	-1.979	-2.393	C.3	1	UNK0	0.000	
27	   O	1.456	-3.027	-3.220	O.3	1	UNK0	0.000	
28	   C	2.744	-2.879	-3.620	C.3	1	UNK0	0.000	
29	   C	3.376	-1.762	-2.869	C.3	1	UNK0	0.000	
30	   H	-0.081	0.784	1.872	 H	1	UNK0	0.000	
31	   H	-3.505	4.836	1.219	 H	1	UNK0	0.000	
32	   H	-3.223	4.056	2.795	 H	1	UNK0	0.000	
33	   H	-5.390	4.066	-0.247	 H	1	UNK0	0.000	
34	   H	-7.523	2.960	-0.282	 H	1	UNK0	0.000	
35	   H	-8.228	1.436	1.546	 H	1	UNK0	0.000	
36	   H	-6.740	1.015	3.464	 H	1	UNK0	0.000	
37	   H	-4.554	2.131	3.523	 H	1	UNK0	0.000	
38	   H	0.917	1.086	-1.675	 H	1	UNK0	0.000	
39	   H	1.981	0.539	0.891	 H	1	UNK0	0.000	
40	   H	0.939	-0.834	0.523	 H	1	UNK0	0.000	
41	   H	3.364	0.153	-0.977	 H	1	UNK0	0.000	
42	   H	3.908	-0.007	1.174	 H	1	UNK0	0.000	
43	   H	5.217	-1.211	0.756	 H	1	UNK0	0.000	
44	   H	4.684	-2.643	2.405	 H	1	UNK0	0.000	
45	   H	4.010	-1.189	3.190	 H	1	UNK0	0.000	
46	   H	1.315	-3.430	1.134	 H	1	UNK0	0.000	
47	   H	2.738	-4.320	1.695	 H	1	UNK0	0.000	
48	   H	2.603	-3.475	-0.777	 H	1	UNK0	0.000	
49	   H	4.130	-3.495	0.127	 H	1	UNK0	0.000	
50	   H	2.057	-0.140	-2.776	 H	1	UNK0	0.000	
51	   H	0.601	-2.411	-1.517	 H	1	UNK0	0.000	
52	   H	0.250	-1.462	-2.945	 H	1	UNK0	0.000	
53	   H	3.268	-3.851	-3.505	 H	1	UNK0	0.000	
54	   H	2.734	-2.691	-4.734	 H	1	UNK0	0.000	
55	   H	4.154	-2.086	-2.139	 H	1	UNK0	0.000	
56	   H	3.908	-1.115	-3.598	 H	1	UNK0	0.000	
@<TRIPOS>BOND
1 1 2 1
2 2 3 2
3 2 7 1
4 3 4 1
5 3 16 1
6 4 5 2
7 5 6 1
8 6 7 1
9 6 9 1
10 7 8 2
11 9 10 1
12 10 11 2
13 10 15 1
14 11 12 1
15 12 13 2
16 13 14 1
17 14 15 2
18 16 17 1
19 17 18 1
20 18 19 1
21 18 25 1
22 19 20 1
23 19 24 1
24 20 21 1
25 21 22 1
26 22 23 1
27 23 24 1
28 25 26 1
29 25 29 1
30 26 27 1
31 27 28 1
32 28 29 1
33 4 30 1
34 9 31 1
35 9 32 1
36 11 33 1
37 12 34 1
38 13 35 1
39 14 36 1
40 15 37 1
41 16 38 1
42 17 39 1
43 17 40 1
44 18 41 1
45 20 42 1
46 20 43 1
47 21 44 1
48 21 45 1
49 23 46 1
50 23 47 1
51 24 48 1
52 24 49 1
53 25 50 1
54 26 51 1
55 26 52 1
56 28 53 1
57 28 54 1
58 29 55 1
59 29 56 1
@<TRIPOS>SUBSTRUCTURE
1	UNK0	1	GROUP	1 ****	UNK
