# created with PyMOL 2.3.2
@<TRIPOS>MOLECULE
2450
44 47 1                 
SMALL
USER_CHARGES
@<TRIPOS>ATOM
1	  Cl	-0.316	-4.271	-0.585	Cl	1	UNK0	0.000	
2	   C	-0.725	-2.584	-0.291	C.2	1	UNK0	0.000	
3	   C	-0.929	-2.117	1.006	C.2	1	UNK0	0.000	
4	   C	-1.259	-0.766	1.133	C.2	1	UNK0	0.000	
5	   N	-1.369	0.026	0.053	N.2	1	UNK0	0.000	
6	   N	-1.181	-0.393	-1.167	N.pl3	1	UNK0	0.000	
7	   C	-0.862	-1.691	-1.329	C.2	1	UNK0	0.000	
8	   O	-0.663	-2.174	-2.493	O.2	1	UNK0	0.000	
9	   C	-1.286	0.412	-2.369	C.3	1	UNK0	0.000	
10	   C	0.023	1.015	-2.702	C.2	1	UNK0	0.000	
11	   O	0.843	0.322	-3.359	O.2	1	UNK0	0.000	
12	   N	0.329	2.329	-2.291	N.pl3	1	UNK0	0.000	
13	   C	-0.576	3.195	-1.560	C.3	1	UNK0	0.000	
14	   C	0.327	4.283	-1.019	C.3	1	UNK0	0.000	
15	   C	1.585	4.181	-1.792	C.2	1	UNK0	0.000	
16	   C	1.560	3.034	-2.524	C.2	1	UNK0	0.000	
17	   C	2.615	2.700	-3.334	C.2	1	UNK0	0.000	
18	   C	3.707	3.536	-3.403	C.2	1	UNK0	0.000	
19	   C	3.751	4.701	-2.671	C.2	1	UNK0	0.000	
20	   C	2.672	5.013	-1.862	C.2	1	UNK0	0.000	
21	   N	-0.803	-2.960	2.138	N.pl3	1	UNK0	0.000	
22	   C	-1.060	-2.559	3.494	C.3	1	UNK0	0.000	
23	   C	0.035	-3.344	4.215	C.3	1	UNK0	0.000	
24	   C	-0.285	-4.715	3.654	C.3	1	UNK0	0.000	
25	   C	-0.404	-4.343	2.161	C.3	1	UNK0	0.000	
26	   H	-1.427	-0.366	2.123	 H	1	UNK0	0.000	
27	   H	-2.048	1.195	-2.142	 H	1	UNK0	0.000	
28	   H	-1.658	-0.251	-3.196	 H	1	UNK0	0.000	
29	   H	-1.102	2.671	-0.743	 H	1	UNK0	0.000	
30	   H	-1.326	3.633	-2.278	 H	1	UNK0	0.000	
31	   H	0.548	4.131	0.045	 H	1	UNK0	0.000	
32	   H	-0.078	5.298	-1.192	 H	1	UNK0	0.000	
33	   H	2.574	1.789	-3.903	 H	1	UNK0	0.000	
34	   H	4.567	3.309	-4.034	 H	1	UNK0	0.000	
35	   H	4.598	5.370	-2.713	 H	1	UNK0	0.000	
36	   H	2.688	5.916	-1.284	 H	1	UNK0	0.000	
37	   H	-1.000	-1.494	3.695	 H	1	UNK0	0.000	
38	   H	-2.066	-2.978	3.750	 H	1	UNK0	0.000	
39	   H	-0.017	-3.274	5.290	 H	1	UNK0	0.000	
40	   H	1.007	-3.038	3.834	 H	1	UNK0	0.000	
41	   H	0.527	-5.416	3.833	 H	1	UNK0	0.000	
42	   H	-1.245	-5.114	4.033	 H	1	UNK0	0.000	
43	   H	-1.192	-4.950	1.700	 H	1	UNK0	0.000	
44	   H	0.604	-4.502	1.716	 H	1	UNK0	0.000	
@<TRIPOS>BOND
1 1 2 1
2 2 3 2
3 2 7 1
4 3 4 1
5 3 21 1
6 4 5 2
7 5 6 1
8 6 7 1
9 6 9 1
10 7 8 2
11 9 10 1
12 10 11 2
13 10 12 1
14 12 13 1
15 12 16 1
16 13 14 1
17 14 15 1
18 15 16 2
19 15 20 1
20 16 17 1
21 17 18 2
22 18 19 1
23 19 20 2
24 21 22 1
25 21 25 1
26 22 23 1
27 23 24 1
28 24 25 1
29 4 26 1
30 9 27 1
31 9 28 1
32 13 29 1
33 13 30 1
34 14 31 1
35 14 32 1
36 17 33 1
37 18 34 1
38 19 35 1
39 20 36 1
40 22 37 1
41 22 38 1
42 23 39 1
43 23 40 1
44 24 41 1
45 24 42 1
46 25 43 1
47 25 44 1
@<TRIPOS>SUBSTRUCTURE
1	UNK0	1	GROUP	1 ****	UNK
