# created with PyMOL 2.3.2
@<TRIPOS>MOLECULE
2451
44 47 1                 
SMALL
USER_CHARGES
@<TRIPOS>ATOM
1	  Cl	7.017	-2.799	-4.517	Cl	1	UNK0	0.000	
2	   C	6.619	-2.809	-2.791	C.2	1	UNK0	0.000	
3	   O	5.496	-2.482	-2.237	O.3	1	UNK0	0.000	
4	   C	5.530	-2.599	-0.945	C.2	1	UNK0	0.000	
5	   C	6.785	-3.043	-0.606	C.2	1	UNK0	0.000	
6	   C	7.482	-3.177	-1.785	C.2	1	UNK0	0.000	
7	   C	4.409	-2.302	-0.046	C.2	1	UNK0	0.000	
8	   O	4.608	-2.469	1.184	O.2	1	UNK0	0.000	
9	   N	3.170	-1.851	-0.539	N.pl3	1	UNK0	0.000	
10	   C	2.103	-1.573	0.380	C.3	1	UNK0	0.000	
11	   C	0.744	-2.124	-0.050	C.3	1	UNK0	0.000	
12	   C	0.138	-0.841	0.488	C.3	1	UNK0	0.000	
13	   C	1.492	-0.176	0.217	C.3	1	UNK0	0.000	
14	   C	-0.907	-0.248	-0.362	C.2	1	UNK0	0.000	
15	   N	-0.776	-0.168	-1.681	N.2	1	UNK0	0.000	
16	   C	-1.783	0.393	-2.409	C.2	1	UNK0	0.000	
17	   N	-2.905	0.867	-1.830	N.2	1	UNK0	0.000	
18	   C	-3.082	0.805	-0.480	C.2	1	UNK0	0.000	
19	   C	-2.046	0.232	0.227	C.2	1	UNK0	0.000	
20	   N	-4.255	1.301	0.119	N.pl3	1	UNK0	0.000	
21	   C	-4.559	1.294	1.524	C.3	1	UNK0	0.000	
22	   C	-5.251	2.644	1.705	C.3	1	UNK0	0.000	
23	   C	-5.682	3.087	0.336	C.3	1	UNK0	0.000	
24	   C	-5.365	1.906	-0.565	C.3	1	UNK0	0.000	
25	   O	-6.346	2.544	2.563	O.3	1	UNK0	0.000	
26	   H	7.164	-3.252	0.411	 H	1	UNK0	0.000	
27	   H	8.513	-3.511	-1.881	 H	1	UNK0	0.000	
28	   H	3.039	-1.724	-1.563	 H	1	UNK0	0.000	
29	   H	2.323	-1.733	1.443	 H	1	UNK0	0.000	
30	   H	0.449	-3.044	0.499	 H	1	UNK0	0.000	
31	   H	0.621	-2.170	-1.132	 H	1	UNK0	0.000	
32	   H	-0.063	-0.862	1.558	 H	1	UNK0	0.000	
33	   H	1.749	0.529	1.018	 H	1	UNK0	0.000	
34	   H	1.608	0.190	-0.818	 H	1	UNK0	0.000	
35	   H	-1.722	0.481	-3.479	 H	1	UNK0	0.000	
36	   H	-2.158	0.169	1.302	 H	1	UNK0	0.000	
37	   H	-5.345	0.526	1.751	 H	1	UNK0	0.000	
38	   H	-3.681	1.204	2.178	 H	1	UNK0	0.000	
39	   H	-4.528	3.366	2.169	 H	1	UNK0	0.000	
40	   H	-6.745	3.375	0.305	 H	1	UNK0	0.000	
41	   H	-5.094	3.969	0.007	 H	1	UNK0	0.000	
42	   H	-5.105	2.267	-1.588	 H	1	UNK0	0.000	
43	   H	-6.267	1.254	-0.588	 H	1	UNK0	0.000	
44	   H	-6.050	2.741	3.469	 H	1	UNK0	0.000	
@<TRIPOS>BOND
1 1 2 1
2 2 3 1
3 2 6 2
4 3 4 1
5 4 5 2
6 4 7 1
7 5 6 1
8 7 8 2
9 7 9 1
10 9 10 1
11 10 11 1
12 10 13 1
13 11 12 1
14 12 13 1
15 12 14 1
16 14 15 2
17 14 19 1
18 15 16 1
19 16 17 2
20 17 18 1
21 18 19 2
22 18 20 1
23 20 21 1
24 20 24 1
25 21 22 1
26 22 23 1
27 22 25 1
28 23 24 1
29 5 26 1
30 6 27 1
31 9 28 1
32 10 29 1
33 11 30 1
34 11 31 1
35 12 32 1
36 13 33 1
37 13 34 1
38 16 35 1
39 19 36 1
40 21 37 1
41 21 38 1
42 22 39 1
43 23 40 1
44 23 41 1
45 24 42 1
46 24 43 1
47 25 44 1
@<TRIPOS>SUBSTRUCTURE
1	UNK0	1	GROUP	1 ****	UNK
