# created with PyMOL 2.3.2
@<TRIPOS>MOLECULE
2452
43 46 1                 
SMALL
USER_CHARGES
@<TRIPOS>ATOM
1	  Br	5.018	-2.578	-1.935	Br	1	UNK0	0.000	
2	   C	3.162	-2.628	-2.434	C.2	1	UNK0	0.000	
3	   C	2.209	-2.036	-1.640	C.2	1	UNK0	0.000	
4	   C	0.882	-2.073	-1.995	C.2	1	UNK0	0.000	
5	   C	0.545	-2.723	-3.171	C.2	1	UNK0	0.000	
6	   C	1.485	-3.319	-3.974	C.2	1	UNK0	0.000	
7	   C	2.800	-3.262	-3.589	C.2	1	UNK0	0.000	
8	   O	-0.814	-2.756	-3.529	O.2	1	UNK0	0.000	
9	   C	-0.152	-1.456	-1.158	C.2	1	UNK0	0.000	
10	   N	-1.388	-1.434	-1.401	N.2	1	UNK0	0.000	
11	   N	-2.290	-0.846	-0.581	N.pl3	1	UNK0	0.000	
12	   C	-3.181	-0.265	0.227	C.2	1	UNK0	0.000	
13	   O	-4.338	-0.748	0.547	O.2	1	UNK0	0.000	
14	   C	-2.912	1.090	0.878	C.3	1	UNK0	0.000	
15	   N	-1.614	1.174	1.467	N.pl3	1	UNK0	0.000	
16	   C	-0.476	1.590	0.842	C.2	1	UNK0	0.000	
17	   C	0.518	1.555	1.788	C.2	1	UNK0	0.000	
18	   N	-0.009	1.130	2.948	N.2	1	UNK0	0.000	
19	   C	-1.318	0.891	2.768	C.2	1	UNK0	0.000	
20	   C	-2.283	0.430	3.759	C.2	1	UNK0	0.000	
21	   N	-3.615	0.175	3.606	N.2	1	UNK0	0.000	
22	   O	-4.102	-0.200	4.728	O.3	1	UNK0	0.000	
23	   N	-3.178	-0.214	5.636	N.2	1	UNK0	0.000	
24	   C	-2.029	0.174	5.062	C.2	1	UNK0	0.000	
25	   N	-0.814	0.275	5.781	N.4	1	UNK0	0.000	
26	   C	1.807	1.941	1.408	C.2	1	UNK0	0.000	
27	   C	2.011	2.335	0.112	C.2	1	UNK0	0.000	
28	   C	1.008	2.368	-0.836	C.2	1	UNK0	0.000	
29	   C	-0.260	1.988	-0.461	C.2	1	UNK0	0.000	
30	   H	2.515	-1.532	-0.716	 H	1	UNK0	0.000	
31	   H	1.219	-3.828	-4.902	 H	1	UNK0	0.000	
32	   H	3.569	-3.730	-4.211	 H	1	UNK0	0.000	
33	   H	0.231	-0.982	-0.234	 H	1	UNK0	0.000	
34	   H	-3.128	-1.922	-0.789	 H	1	UNK0	0.000	
35	   H	-3.013	1.794	0.014	 H	1	UNK0	0.000	
36	   H	-3.704	1.348	1.585	 H	1	UNK0	0.000	
37	   H	-1.045	0.865	6.628	 H	1	UNK0	0.000	
38	   H	-0.040	0.654	5.228	 H	1	UNK0	0.000	
39	   H	-0.605	-0.672	6.163	 H	1	UNK0	0.000	
40	   H	2.583	1.910	2.151	 H	1	UNK0	0.000	
41	   H	3.018	2.640	-0.189	 H	1	UNK0	0.000	
42	   H	1.229	2.693	-1.862	 H	1	UNK0	0.000	
43	   H	-1.086	1.991	-1.153	 H	1	UNK0	0.000	
@<TRIPOS>BOND
1 1 2 1
2 2 3 2
3 2 7 1
4 3 4 1
5 4 5 2
6 4 9 1
7 5 6 1
8 5 8 1
9 6 7 2
10 9 10 2
11 10 11 1
12 11 12 1
13 12 13 2
14 12 14 1
15 14 15 1
16 15 16 1
17 15 19 1
18 16 17 2
19 16 29 1
20 17 18 1
21 17 26 1
22 18 19 2
23 19 20 1
24 20 21 2
25 20 24 1
26 21 22 1
27 22 23 1
28 23 24 2
29 24 25 1
30 26 27 2
31 27 28 1
32 28 29 2
33 3 30 1
34 6 31 1
35 7 32 1
36 9 33 1
37 11 34 1
38 14 35 1
39 14 36 1
40 25 37 1
41 25 38 1
42 25 39 1
43 26 40 1
44 27 41 1
45 28 42 1
46 29 43 1
@<TRIPOS>SUBSTRUCTURE
1	UNK0	1	GROUP	1 ****	UNK
