3


 38 41  0  0  0  0  0  0  0  0999 V2000
   19.5880   78.5401   18.0916 C   0  0  0  0  0  0  0  0  0  0  0  0
   19.1740   78.4383   19.3961 N   0  0  0  0  0  0  0  0  0  0  0  0
   19.4154   79.5602   20.0159 N   0  0  0  0  0  0  0  0  0  0  0  0
   19.9774   80.4454   19.2109 N   0  0  0  0  0  0  0  0  0  0  0  0
   20.0974   79.8410   18.0168 C   0  0  0  0  0  0  0  0  0  0  0  0
   20.3229   81.7632   19.5994 C   0  0  0  0  0  0  0  0  0  0  0  0
   20.3261   82.8991   18.8697 N   0  0  0  0  0  0  0  0  0  0  0  0
   20.7021   83.9035   19.6162 O   0  0  0  0  0  0  0  0  0  0  0  0
   20.9575   83.4966   20.8335 N   0  0  0  0  0  0  0  0  0  0  0  0
   20.7321   82.1724   20.8594 C   0  0  0  0  0  0  0  0  0  0  0  0
   20.8959   81.3612   22.0030 N   0  0  0  0  0  0  0  0  0  0  0  0
   20.2235   81.4577   22.7853 H   0  0  0  0  0  0  0  0  0  0  0  0
   21.6631   80.6709   22.0928 H   0  0  0  0  0  0  0  0  0  0  0  0
   20.5005   76.8226   16.4227 N   0  0  0  0  0  0  0  0  0  0  0  0
   19.4864   77.4889   17.0970 C   0  0  0  0  0  0  0  0  0  0  0  0
   18.2794   77.1394   16.8124 O   0  0  0  0  0  0  0  0  0  0  0  0
   21.5329   76.9729   16.5189 H   0  0  0  0  0  0  0  0  0  0  0  0
   19.6283   76.1692   14.3423 C   0  0  0  0  0  0  0  0  0  0  0  0
   20.1072   75.8123   15.4805 N   0  0  0  0  0  0  0  0  0  0  0  0
   18.8711   75.1982    9.1821 Br  0  0  0  0  0  0  0  0  0  0  0  0
   18.8162   74.6689   11.0002 C   0  0  0  0  0  0  0  0  0  0  0  0
   18.3787   73.4208   11.3350 C   0  0  0  0  0  0  0  0  0  0  0  0
   18.3487   73.0613   12.6799 C   0  0  0  0  0  0  0  0  0  0  0  0
   18.7612   73.9744   13.6452 C   0  0  0  0  0  0  0  0  0  0  0  0
   19.2014   75.2289   13.3176 C   0  0  0  0  0  0  0  0  0  0  0  0
   19.2255   75.5707   11.9838 C   0  0  0  0  0  0  0  0  0  0  0  0
   19.6733   76.8431   11.6638 O   0  0  0  0  0  0  0  0  0  0  0  0
   17.7469   71.3343   13.1785 Br  0  0  0  0  0  0  0  0  0  0  0  0
   17.9635   72.4955   10.3884 O   0  0  0  0  0  0  0  0  0  0  0  0
   19.7098   77.1422   10.6974 H   0  0  0  0  0  0  0  0  0  0  0  0
   17.6440   71.5806   10.6614 H   0  0  0  0  0  0  0  0  0  0  0  0
   20.6335   80.4255   16.7840 C   0  0  0  0  0  0  0  0  0  0  0  0
   22.0771   80.6754   16.8126 N   0  0  0  0  0  0  0  0  0  0  0  0
   22.5449   80.8742   15.4267 C   0  0  0  0  0  0  0  0  0  0  0  0
   21.9884   79.8085   14.5486 C   0  0  0  0  0  0  0  0  0  0  0  0
   22.2930   78.5749   15.0696 O   0  0  0  0  0  0  0  0  0  0  0  0
   23.1785   78.6045   16.1147 C   0  0  0  0  0  0  0  0  0  0  0  0
   22.7460   79.4419   17.2901 C   0  0  0  0  0  0  0  0  0  0  0  0
 20 21  1  0  0  0
 21 22  2  0  0  0
 21 26  1  0  0  0
 22 23  1  0  0  0
 22 29  1  0  0  0
 23 24  2  0  0  0
 23 28  1  0  0  0
 24 25  1  0  0  0
 25 26  2  0  0  0
 25 18  1  0  0  0
 26 27  1  0  0  0
 18 19  2  0  0  0
 19 14  1  0  0  0
 14 15  1  0  0  0
 15 16  2  0  0  0
 15  1  1  0  0  0
  1  2  1  0  0  0
  1  5  2  0  0  0
  2  3  2  0  0  0
  3  4  1  0  0  0
  4  5  1  0  0  0
  4  6  1  0  0  0
  5 32  1  0  0  0
 32 33  1  0  0  0
 33 34  1  0  0  0
 33 38  1  0  0  0
 34 35  1  0  0  0
 35 36  1  0  0  0
 36 37  1  0  0  0
 37 38  1  0  0  0
  6  7  2  0  0  0
  6 10  1  0  0  0
  7  8  1  0  0  0
  8  9  1  0  0  0
  9 10  2  0  0  0
 10 11  1  0  0  0
 27 30  1  0  0  0
 14 17  1  0  0  0
 11 12  1  0  0  0
 11 13  1  0  0  0
 29 31  1  0  0  0
M  END
> <minimizedAffinity>
-9.49554

$$$$
708


 31 34  0  0  0  0  0  0  0  0999 V2000
   23.4514   79.1869   13.4503 C   0  0  0  0  0  0  0  0  0  0  0  0
   22.0814   79.7055   13.1240 C   0  0  0  0  0  0  0  0  0  0  0  0
   22.2981   80.8987   10.1047 Br  0  0  0  0  0  0  0  0  0  0  0  0
   21.4021   79.3469   10.7486 C   0  0  0  0  0  0  0  0  0  0  0  0
   21.4146   78.9757   12.0653 N   0  0  0  0  0  0  0  0  0  0  0  0
   20.6792   77.8471   12.1093 C   0  0  0  0  0  0  0  0  0  0  0  0
   20.2133   77.5111   10.8484 C   0  0  0  0  0  0  0  0  0  0  0  0
   20.6862   78.4726   10.0265 N   0  0  0  0  0  0  0  0  0  0  0  0
   19.4479   76.4376   10.5865 N   0  0  0  0  0  0  0  0  0  0  0  0
   19.1273   75.6579   11.6346 C   0  0  0  0  0  0  0  0  0  0  0  0
   18.4028   74.6251   11.4376 O   0  0  0  0  0  0  0  0  0  0  0  0
   19.5573   75.9478   12.8764 N   0  0  0  0  0  0  0  0  0  0  0  0
   20.3331   77.0348   13.1451 C   0  0  0  0  0  0  0  0  0  0  0  0
   20.7221   77.2908   14.3033 O   0  0  0  0  0  0  0  0  0  0  0  0
   18.9667   76.0934    9.2656 C   0  0  0  0  0  0  0  0  0  0  0  0
   19.3182   75.3540   13.6989 H   0  0  0  0  0  0  0  0  0  0  0  0
   23.9870   79.6277   14.7823 C   0  0  0  0  0  0  0  0  0  0  0  0
   23.3287   78.8918   15.8529 N   0  0  0  0  0  0  0  0  0  0  0  0
   22.3302   79.3055   16.6660 C   0  0  0  0  0  0  0  0  0  0  0  0
   21.9879   78.3064   17.5474 C   0  0  0  0  0  0  0  0  0  0  0  0
   22.7996   77.2729   17.2552 N   0  0  0  0  0  0  0  0  0  0  0  0
   23.6049   77.6340   16.2332 C   0  0  0  0  0  0  0  0  0  0  0  0
   24.9523   76.5628   15.4060 Br  0  0  0  0  0  0  0  0  0  0  0  0
   21.0239   78.4306   18.4784 N   0  0  0  0  0  0  0  0  0  0  0  0
   20.3747   79.6200   18.5217 C   0  0  0  0  0  0  0  0  0  0  0  0
   19.4643   79.7406   19.3974 O   0  0  0  0  0  0  0  0  0  0  0  0
   20.6792   80.6262   17.6756 N   0  0  0  0  0  0  0  0  0  0  0  0
   21.6471   80.4904   16.7461 C   0  0  0  0  0  0  0  0  0  0  0  0
   21.9542   81.4063   15.9449 O   0  0  0  0  0  0  0  0  0  0  0  0
   20.6948   77.3412   19.3944 C   0  0  0  0  0  0  0  0  0  0  0  0
   20.1470   81.5154   17.7550 H   0  0  0  0  0  0  0  0  0  0  0  0
  3  4  1  0  0  0
  4  5  1  0  0  0
  4  8  2  0  0  0
  5  6  1  0  0  0
  5  2  1  0  0  0
  6  7  2  0  0  0
  6 13  1  0  0  0
  7  8  1  0  0  0
  7  9  1  0  0  0
  9 10  1  0  0  0
  9 15  1  0  0  0
 10 11  2  0  0  0
 10 12  1  0  0  0
 12 13  1  0  0  0
 13 14  2  0  0  0
  2  1  1  0  0  0
  1 17  1  0  0  0
 17 18  1  0  0  0
 18 19  1  0  0  0
 18 22  1  0  0  0
 19 20  2  0  0  0
 19 28  1  0  0  0
 20 21  1  0  0  0
 20 24  1  0  0  0
 21 22  2  0  0  0
 22 23  1  0  0  0
 24 25  1  0  0  0
 24 30  1  0  0  0
 25 26  2  0  0  0
 25 27  1  0  0  0
 27 28  1  0  0  0
 28 29  2  0  0  0
 12 16  1  0  0  0
 27 31  1  0  0  0
M  END
> <minimizedAffinity>
-8.86518

$$$$
1808


 24 28  0  0  0  0  0  0  0  0999 V2000
   20.7024   79.4680   17.0701 N   0  0  0  0  0  0  0  0  0  0  0  0
   20.7043   80.8826   17.1816 C   0  0  0  0  0  0  0  0  0  0  0  0
   21.5454   81.6317   16.6290 O   0  0  0  0  0  0  0  0  0  0  0  0
   19.5667   81.3041   18.0425 C   0  0  0  0  0  0  0  0  0  0  0  0
   19.9741   81.4797   19.4728 C   0  0  0  0  0  0  0  0  0  0  0  0
   18.7742   81.1203   20.1259 O   0  0  0  0  0  0  0  0  0  0  0  0
   18.6910   79.8006   19.6148 C   0  0  0  0  0  0  0  0  0  0  0  0
   18.6812   80.0617   18.1480 C   0  0  0  0  0  0  0  0  0  0  0  0
   19.4082   78.9831   17.4262 C   0  0  0  0  0  0  0  0  0  0  0  0
   18.9487   77.8633   17.1864 O   0  0  0  0  0  0  0  0  0  0  0  0
   20.0402   79.3081   19.9968 C   0  0  0  0  0  0  0  0  0  0  0  0
   20.8466   80.3539   19.8421 C   0  0  0  0  0  0  0  0  0  0  0  0
   25.5892   76.2937   15.2908 Br  0  0  0  0  0  0  0  0  0  0  0  0
   24.0709   77.2813   15.8544 C   0  0  0  0  0  0  0  0  0  0  0  0
   23.9719   77.6813   17.1650 C   0  0  0  0  0  0  0  0  0  0  0  0
   22.8591   78.3982   17.5462 C   0  0  0  0  0  0  0  0  0  0  0  0
   21.8541   78.7194   16.6609 C   0  0  0  0  0  0  0  0  0  0  0  0
   21.9532   78.3165   15.3361 C   0  0  0  0  0  0  0  0  0  0  0  0
   23.0832   77.5909   14.9533 C   0  0  0  0  0  0  0  0  0  0  0  0
   20.4456   82.8210   19.8389 C   0  0  0  0  0  0  0  0  0  0  0  0
   20.4011   83.0804   21.1814 O   0  0  0  0  0  0  0  0  0  0  0  0
   19.4223   84.0126   21.4188 C   0  0  0  0  0  0  0  0  0  0  0  0
   18.8296   84.3507   20.0905 C   0  0  0  0  0  0  0  0  0  0  0  0
   19.7372   83.8129   19.1850 O   0  0  0  0  0  0  0  0  0  0  0  0
 13 14  1  0  0  0
 14 15  2  0  0  0
 14 19  1  0  0  0
 15 16  1  0  0  0
 16 17  2  0  0  0
 17 18  1  0  0  0
 17  1  1  0  0  0
 18 19  2  0  0  0
  1  2  1  0  0  0
  1  9  1  0  0  0
  2  3  2  0  0  0
  2  4  1  0  0  0
  4  5  1  0  0  0
  4  8  1  0  0  0
  5  6  1  0  0  0
  5 12  1  0  0  0
  5 20  1  0  0  0
  6  7  1  0  0  0
  7  8  1  0  0  0
  7 11  1  0  0  0
  8  9  1  0  0  0
  9 10  2  0  0  0
 11 12  2  0  0  0
 20 21  1  0  0  0
 20 24  1  0  0  0
 21 22  1  0  0  0
 22 23  1  0  0  0
 23 24  1  0  0  0
M  END
> <minimizedAffinity>
-9.76248

$$$$
