2


 38 41  0  0  0  0  0  0  0  0999 V2000
   22.2278   78.6338   12.6724 C   0  0  0  0  0  0  0  0  0  0  0  0
   23.4952   79.0064   12.2779 N   0  0  0  0  0  0  0  0  0  0  0  0
   24.2416   79.0483   13.3344 N   0  0  0  0  0  0  0  0  0  0  0  0
   23.4995   78.7123   14.4253 N   0  0  0  0  0  0  0  0  0  0  0  0
   22.2495   78.4496   14.0486 C   0  0  0  0  0  0  0  0  0  0  0  0
   24.1128   78.6979   15.7168 C   0  0  0  0  0  0  0  0  0  0  0  0
   24.1580   79.6024   16.6867 N   0  0  0  0  0  0  0  0  0  0  0  0
   24.8138   79.0852   17.6730 O   0  0  0  0  0  0  0  0  0  0  0  0
   25.2091   77.8794   17.4087 N   0  0  0  0  0  0  0  0  0  0  0  0
   24.8001   77.5673   16.1865 C   0  0  0  0  0  0  0  0  0  0  0  0
   24.9844   76.3676   15.4525 N   0  0  0  0  0  0  0  0  0  0  0  0
   24.6556   75.4656   15.8550 H   0  0  0  0  0  0  0  0  0  0  0  0
   25.4492   76.3476   14.4995 H   0  0  0  0  0  0  0  0  0  0  0  0
   20.7180   79.3075   10.6913 N   0  0  0  0  0  0  0  0  0  0  0  0
   21.1376   78.4801   11.7392 C   0  0  0  0  0  0  0  0  0  0  0  0
   20.4400   77.3896   11.9076 O   0  0  0  0  0  0  0  0  0  0  0  0
   21.1489   80.1761   10.4213 H   0  0  0  0  0  0  0  0  0  0  0  0
   19.6852   78.5919    8.6937 C   0  0  0  0  0  0  0  0  0  0  0  0
   19.5766   78.8594    9.9407 N   0  0  0  0  0  0  0  0  0  0  0  0
   17.6297   74.7495    5.6196 Br  0  0  0  0  0  0  0  0  0  0  0  0
   17.5322   76.4601    6.4864 C   0  0  0  0  0  0  0  0  0  0  0  0
   16.3874   77.2163    6.3230 C   0  0  0  0  0  0  0  0  0  0  0  0
   16.3378   78.4402    6.9539 C   0  0  0  0  0  0  0  0  0  0  0  0
   17.4042   78.8823    7.7189 C   0  0  0  0  0  0  0  0  0  0  0  0
   18.5493   78.1307    7.8846 C   0  0  0  0  0  0  0  0  0  0  0  0
   18.5916   76.9069    7.2499 C   0  0  0  0  0  0  0  0  0  0  0  0
   19.7606   76.1430    7.4208 O   0  0  0  0  0  0  0  0  0  0  0  0
   14.7516   79.4836    6.7255 Br  0  0  0  0  0  0  0  0  0  0  0  0
   15.3314   76.7389    5.5444 O   0  0  0  0  0  0  0  0  0  0  0  0
   19.8317   75.2416    6.9747 H   0  0  0  0  0  0  0  0  0  0  0  0
   21.1062   78.0446   14.8658 C   0  0  0  0  0  0  0  0  0  0  0  0
   21.1779   76.8610   15.6367 N   0  0  0  0  0  0  0  0  0  0  0  0
   19.8946   76.1911   15.7880 C   0  0  0  0  0  0  0  0  0  0  0  0
   18.8564   77.1229   16.2705 C   0  0  0  0  0  0  0  0  0  0  0  0
   19.1698   78.1235   17.0958 O   0  0  0  0  0  0  0  0  0  0  0  0
   20.4646   78.3222   17.4507 C   0  0  0  0  0  0  0  0  0  0  0  0
   21.4412   77.2935   17.0478 C   0  0  0  0  0  0  0  0  0  0  0  0
   21.9208   76.2399   15.3515 H   0  0  0  0  0  0  0  0  0  0  0  0
 20 21  1  0  0  0
 21 22  2  0  0  0
 21 26  1  0  0  0
 22 23  1  0  0  0
 22 29  1  0  0  0
 23 24  2  0  0  0
 23 28  1  0  0  0
 24 25  1  0  0  0
 25 26  2  0  0  0
 25 18  1  0  0  0
 26 27  1  0  0  0
 18 19  2  0  0  0
 19 14  1  0  0  0
 14 15  1  0  0  0
 15 16  2  0  0  0
 15  1  1  0  0  0
  1  2  1  0  0  0
  1  5  2  0  0  0
  2  3  2  0  0  0
  3  4  1  0  0  0
  4  5  1  0  0  0
  4  6  1  0  0  0
  5 31  1  0  0  0
 31 32  1  0  0  0
 32 33  1  0  0  0
 32 37  1  0  0  0
 33 34  1  0  0  0
 34 35  1  0  0  0
 35 36  1  0  0  0
 36 37  1  0  0  0
  6  7  2  0  0  0
  6 10  1  0  0  0
  7  8  1  0  0  0
  8  9  1  0  0  0
  9 10  2  0  0  0
 10 11  1  0  0  0
 27 30  1  0  0  0
 14 17  1  0  0  0
 32 38  1  0  0  0
 11 12  1  0  0  0
 11 13  1  0  0  0
M  CHG 1  29  -1
M  CHG 1  32   1
M  END
> <minimizedAffinity>
-9.06696

$$$$
3


 38 41  0  0  0  0  0  0  0  0999 V2000
   19.5880   78.5401   18.0916 C   0  0  0  0  0  0  0  0  0  0  0  0
   19.1740   78.4383   19.3961 N   0  0  0  0  0  0  0  0  0  0  0  0
   19.4154   79.5602   20.0159 N   0  0  0  0  0  0  0  0  0  0  0  0
   19.9774   80.4454   19.2109 N   0  0  0  0  0  0  0  0  0  0  0  0
   20.0974   79.8410   18.0168 C   0  0  0  0  0  0  0  0  0  0  0  0
   20.3229   81.7632   19.5994 C   0  0  0  0  0  0  0  0  0  0  0  0
   20.3261   82.8991   18.8697 N   0  0  0  0  0  0  0  0  0  0  0  0
   20.7021   83.9035   19.6162 O   0  0  0  0  0  0  0  0  0  0  0  0
   20.9575   83.4966   20.8335 N   0  0  0  0  0  0  0  0  0  0  0  0
   20.7321   82.1724   20.8594 C   0  0  0  0  0  0  0  0  0  0  0  0
   20.8959   81.3612   22.0030 N   0  0  0  0  0  0  0  0  0  0  0  0
   20.2235   81.4577   22.7853 H   0  0  0  0  0  0  0  0  0  0  0  0
   21.6631   80.6709   22.0928 H   0  0  0  0  0  0  0  0  0  0  0  0
   20.5005   76.8226   16.4227 N   0  0  0  0  0  0  0  0  0  0  0  0
   19.4864   77.4889   17.0970 C   0  0  0  0  0  0  0  0  0  0  0  0
   18.2794   77.1394   16.8124 O   0  0  0  0  0  0  0  0  0  0  0  0
   21.5329   76.9729   16.5189 H   0  0  0  0  0  0  0  0  0  0  0  0
   19.6283   76.1692   14.3423 C   0  0  0  0  0  0  0  0  0  0  0  0
   20.1072   75.8123   15.4805 N   0  0  0  0  0  0  0  0  0  0  0  0
   18.8711   75.1982    9.1821 Br  0  0  0  0  0  0  0  0  0  0  0  0
   18.8162   74.6689   11.0002 C   0  0  0  0  0  0  0  0  0  0  0  0
   18.3787   73.4208   11.3350 C   0  0  0  0  0  0  0  0  0  0  0  0
   18.3487   73.0613   12.6799 C   0  0  0  0  0  0  0  0  0  0  0  0
   18.7612   73.9744   13.6452 C   0  0  0  0  0  0  0  0  0  0  0  0
   19.2014   75.2289   13.3176 C   0  0  0  0  0  0  0  0  0  0  0  0
   19.2255   75.5707   11.9838 C   0  0  0  0  0  0  0  0  0  0  0  0
   19.6733   76.8431   11.6638 O   0  0  0  0  0  0  0  0  0  0  0  0
   17.7469   71.3343   13.1785 Br  0  0  0  0  0  0  0  0  0  0  0  0
   17.9635   72.4955   10.3884 O   0  0  0  0  0  0  0  0  0  0  0  0
   19.7098   77.1422   10.6974 H   0  0  0  0  0  0  0  0  0  0  0  0
   17.6440   71.5806   10.6614 H   0  0  0  0  0  0  0  0  0  0  0  0
   20.6335   80.4255   16.7840 C   0  0  0  0  0  0  0  0  0  0  0  0
   22.0771   80.6754   16.8126 N   0  0  0  0  0  0  0  0  0  0  0  0
   22.5449   80.8742   15.4267 C   0  0  0  0  0  0  0  0  0  0  0  0
   21.9884   79.8085   14.5486 C   0  0  0  0  0  0  0  0  0  0  0  0
   22.2930   78.5749   15.0696 O   0  0  0  0  0  0  0  0  0  0  0  0
   23.1785   78.6045   16.1147 C   0  0  0  0  0  0  0  0  0  0  0  0
   22.7460   79.4419   17.2901 C   0  0  0  0  0  0  0  0  0  0  0  0
 20 21  1  0  0  0
 21 22  2  0  0  0
 21 26  1  0  0  0
 22 23  1  0  0  0
 22 29  1  0  0  0
 23 24  2  0  0  0
 23 28  1  0  0  0
 24 25  1  0  0  0
 25 26  2  0  0  0
 25 18  1  0  0  0
 26 27  1  0  0  0
 18 19  2  0  0  0
 19 14  1  0  0  0
 14 15  1  0  0  0
 15 16  2  0  0  0
 15  1  1  0  0  0
  1  2  1  0  0  0
  1  5  2  0  0  0
  2  3  2  0  0  0
  3  4  1  0  0  0
  4  5  1  0  0  0
  4  6  1  0  0  0
  5 32  1  0  0  0
 32 33  1  0  0  0
 33 34  1  0  0  0
 33 38  1  0  0  0
 34 35  1  0  0  0
 35 36  1  0  0  0
 36 37  1  0  0  0
 37 38  1  0  0  0
  6  7  2  0  0  0
  6 10  1  0  0  0
  7  8  1  0  0  0
  8  9  1  0  0  0
  9 10  2  0  0  0
 10 11  1  0  0  0
 27 30  1  0  0  0
 14 17  1  0  0  0
 11 12  1  0  0  0
 11 13  1  0  0  0
 29 31  1  0  0  0
M  END
> <minimizedAffinity>
-9.49554

$$$$
4


 34 37  0  0  0  0  0  0  0  0999 V2000
   20.1939   78.3291   17.1772 C   0  0  0  0  0  0  0  0  0  0  0  0
   19.8233   79.3127   17.9940 N   0  0  0  0  0  0  0  0  0  0  0  0
   20.5491   80.4581   18.1432 C   0  0  0  0  0  0  0  0  0  0  0  0
   21.6632   80.5443   17.4201 N   0  0  0  0  0  0  0  0  0  0  0  0
   22.1117   79.5951   16.5677 C   0  0  0  0  0  0  0  0  0  0  0  0
   21.3255   78.4808   16.4791 N   0  0  0  0  0  0  0  0  0  0  0  0
   23.2974   79.7302   15.8229 N   0  0  0  0  0  0  0  0  0  0  0  0
   23.2568   80.0965   14.4416 C   0  0  0  0  0  0  0  0  0  0  0  0
   24.1020   79.0731   13.6781 C   0  0  0  0  0  0  0  0  0  0  0  0
   24.5778   78.0774   14.5036 O   0  0  0  0  0  0  0  0  0  0  0  0
   25.3337   78.5255   15.5582 C   0  0  0  0  0  0  0  0  0  0  0  0
   24.5662   79.5009   16.4427 C   0  0  0  0  0  0  0  0  0  0  0  0
   20.1384   81.4891   19.0146 N   0  0  0  0  0  0  0  0  0  0  0  0
   19.9728   82.8293   18.5255 C   0  0  0  0  0  0  0  0  0  0  0  0
   20.6669   83.7579   19.5093 C   0  0  0  0  0  0  0  0  0  0  0  0
   20.3372   83.4615   20.8259 O   0  0  0  0  0  0  0  0  0  0  0  0
   20.7135   82.1958   21.2145 C   0  0  0  0  0  0  0  0  0  0  0  0
   19.8839   81.1979   20.3969 C   0  0  0  0  0  0  0  0  0  0  0  0
   19.4091   77.1504   17.0495 N   0  0  0  0  0  0  0  0  0  0  0  0
   19.0857   76.5829   17.8399 H   0  0  0  0  0  0  0  0  0  0  0  0
   19.8057   76.0340   15.0081 C   0  0  0  0  0  0  0  0  0  0  0  0
   19.0359   76.7114   15.7642 N   0  0  0  0  0  0  0  0  0  0  0  0
   19.6268   76.8930    9.7036 Br  0  0  0  0  0  0  0  0  0  0  0  0
   19.3174   75.8605   11.2814 C   0  0  0  0  0  0  0  0  0  0  0  0
   18.7247   74.6221   11.1313 C   0  0  0  0  0  0  0  0  0  0  0  0
   18.4993   73.8736   12.2658 C   0  0  0  0  0  0  0  0  0  0  0  0
   18.8535   74.3385   13.5196 C   0  0  0  0  0  0  0  0  0  0  0  0
   19.4440   75.5697   13.6789 C   0  0  0  0  0  0  0  0  0  0  0  0
   19.6689   76.3180   12.5421 C   0  0  0  0  0  0  0  0  0  0  0  0
   20.2593   77.5521   12.6772 O   0  0  0  0  0  0  0  0  0  0  0  0
   17.6770   72.1549   12.0716 Br  0  0  0  0  0  0  0  0  0  0  0  0
   18.3743   74.1702    9.8609 O   0  0  0  0  0  0  0  0  0  0  0  0
   20.4423   78.1376   11.8568 H   0  0  0  0  0  0  0  0  0  0  0  0
   17.9427   73.2670    9.7576 H   0  0  0  0  0  0  0  0  0  0  0  0
 23 24  1  0  0  0
 24 25  2  0  0  0
 24 29  1  0  0  0
 25 26  1  0  0  0
 25 32  1  0  0  0
 26 27  2  0  0  0
 26 31  1  0  0  0
 27 28  1  0  0  0
 28 29  2  0  0  0
 28 21  1  0  0  0
 29 30  1  0  0  0
 21 22  2  0  0  0
 22 19  1  0  0  0
 19  1  1  0  0  0
  1  2  2  0  0  0
  1  6  1  0  0  0
  2  3  1  0  0  0
  3  4  2  0  0  0
  3 13  1  0  0  0
  4  5  1  0  0  0
  5  6  2  0  0  0
  5  7  1  0  0  0
  7  8  1  0  0  0
  7 12  1  0  0  0
  8  9  1  0  0  0
  9 10  1  0  0  0
 10 11  1  0  0  0
 11 12  1  0  0  0
 13 14  1  0  0  0
 13 18  1  0  0  0
 14 15  1  0  0  0
 15 16  1  0  0  0
 16 17  1  0  0  0
 17 18  1  0  0  0
 30 33  1  0  0  0
 19 20  1  0  0  0
 32 34  1  0  0  0
M  END
> <minimizedAffinity>
-10.02602

$$$$
5


 38 41  0  0  0  0  0  0  0  0999 V2000
   20.9773   78.7442   16.5444 N   0  0  0  0  0  0  0  0  0  0  0  0
   20.3317   79.2487   17.6292 C   0  0  0  0  0  0  0  0  0  0  0  0
   20.5433   80.5998   17.6994 C   0  0  0  0  0  0  0  0  0  0  0  0
   21.3037   80.8873   16.6631 N   0  0  0  0  0  0  0  0  0  0  0  0
   21.5869   79.7758   15.9305 C   0  0  0  0  0  0  0  0  0  0  0  0
   20.0195   81.4143   18.6668 N   0  0  0  0  0  0  0  0  0  0  0  0
   19.2502   80.8264   19.5912 C   0  0  0  0  0  0  0  0  0  0  0  0
   18.7687   81.5807   20.4832 O   0  0  0  0  0  0  0  0  0  0  0  0
   19.0081   79.5016   19.5642 N   0  0  0  0  0  0  0  0  0  0  0  0
   19.5157   78.6910   18.6220 C   0  0  0  0  0  0  0  0  0  0  0  0
   19.2478   77.3414   18.6139 O   0  0  0  0  0  0  0  0  0  0  0  0
   20.3205   82.8390   18.6476 C   0  0  0  0  0  0  0  0  0  0  0  0
   22.3027   79.8430   14.6836 N   0  0  0  0  0  0  0  0  0  0  0  0
   21.8145   80.2763   13.4314 C   0  0  0  0  0  0  0  0  0  0  0  0
   23.0001   80.2474   12.4280 C   0  0  0  0  0  0  0  0  0  0  0  0
   23.3888   78.8519   12.3606 N   0  0  0  0  0  0  0  0  0  0  0  0
   24.2093   78.6747   13.5738 C   0  0  0  0  0  0  0  0  0  0  0  0
   23.7192   79.4563   14.7262 C   0  0  0  0  0  0  0  0  0  0  0  0
   22.5919   78.1882   12.4638 H   0  0  0  0  0  0  0  0  0  0  0  0
   24.1911   78.5760   11.1857 C   0  0  0  0  0  0  0  0  0  0  0  0
   23.3162   78.7018    9.9579 C   0  0  0  0  0  0  0  0  0  0  0  0
   23.9660   79.5067    9.0140 O   0  0  0  0  0  0  0  0  0  0  0  0
   23.4223   80.3154    8.8052 H   0  0  0  0  0  0  0  0  0  0  0  0
   20.9888   77.3822   16.1450 C   0  0  0  0  0  0  0  0  0  0  0  0
   20.0365   76.8373   15.1918 C   0  0  0  0  0  0  0  0  0  0  0  0
   18.9341   76.1125   15.6785 O   0  0  0  0  0  0  0  0  0  0  0  0
   18.3286   76.6717   16.1975 H   0  0  0  0  0  0  0  0  0  0  0  0
   20.3720   76.2472   13.8885 C   0  0  0  0  0  0  0  0  0  0  0  0
   19.2446   76.2875   13.0164 O   0  0  0  0  0  0  0  0  0  0  0  0
   18.5342   73.3952   12.7210 Br  0  0  0  0  0  0  0  0  0  0  0  0
   18.9225   74.6485   11.3276 C   0  0  0  0  0  0  0  0  0  0  0  0
   19.2318   75.9646   11.7046 C   0  0  0  0  0  0  0  0  0  0  0  0
   19.5050   76.8415   10.7050 C   0  0  0  0  0  0  0  0  0  0  0  0
   19.4821   76.4677    9.3556 C   0  0  0  0  0  0  0  0  0  0  0  0
   19.1755   75.1714    9.0115 C   0  0  0  0  0  0  0  0  0  0  0  0
   18.8957   74.2647   10.0113 C   0  0  0  0  0  0  0  0  0  0  0  0
   19.1148   74.5482    7.2124 Br  0  0  0  0  0  0  0  0  0  0  0  0
   19.9543   78.6310   11.0806 Br  0  0  0  0  0  0  0  0  0  0  0  0
 30 31  1  0  0  0
 31 32  2  0  0  0
 31 36  1  0  0  0
 32 33  1  0  0  0
 32 29  1  0  0  0
 33 34  2  0  0  0
 33 38  1  0  0  0
 34 35  1  0  0  0
 35 36  2  0  0  0
 35 37  1  0  0  0
 29 28  1  0  0  0
 28 25  1  0  0  0
 25 26  1  0  0  0
 25 24  1  0  0  0
 24  1  1  0  0  0
  1  2  1  0  0  0
  1  5  1  0  0  0
  2  3  2  0  0  0
  2 10  1  0  0  0
  3  4  1  0  0  0
  3  6  1  0  0  0
  4  5  2  0  0  0
  5 13  1  0  0  0
 13 14  1  0  0  0
 13 18  1  0  0  0
 14 15  1  0  0  0
 15 16  1  0  0  0
 16 17  1  0  0  0
 16 20  1  0  0  0
 17 18  1  0  0  0
 20 21  1  0  0  0
 21 22  1  0  0  0
  6  7  1  0  0  0
  6 12  1  0  0  0
  7  8  2  0  0  0
  7  9  1  0  0  0
  9 10  2  0  0  0
 10 11  1  0  0  0
 26 27  1  0  0  0
 16 19  1  0  0  0
 22 23  1  0  0  0
M  CHG 1  11  -1
M  CHG 1  16   1
M  END
> <minimizedAffinity>
-8.75024

$$$$
6


 34 37  0  0  0  0  0  0  0  0999 V2000
   22.3312   78.7066   15.5861 N   0  0  0  0  0  0  0  0  0  0  0  0
   23.6633   78.7733   15.8490 C   0  0  0  0  0  0  0  0  0  0  0  0
   24.2564   77.5727   15.5735 C   0  0  0  0  0  0  0  0  0  0  0  0
   23.2649   76.7787   15.1399 N   0  0  0  0  0  0  0  0  0  0  0  0
   22.0824   77.4712   15.1465 C   0  0  0  0  0  0  0  0  0  0  0  0
   25.6142   77.4411   15.7779 C   0  0  0  0  0  0  0  0  0  0  0  0
   26.3894   78.4866   16.2523 C   0  0  0  0  0  0  0  0  0  0  0  0
   25.7611   79.6896   16.5225 C   0  0  0  0  0  0  0  0  0  0  0  0
   24.4024   79.8238   16.3185 C   0  0  0  0  0  0  0  0  0  0  0  0
   20.8066   76.9015   14.7308 C   0  0  0  0  0  0  0  0  0  0  0  0
   20.4542   76.6171   13.4705 N   0  0  0  0  0  0  0  0  0  0  0  0
   19.2322   76.1154   13.4724 O   0  0  0  0  0  0  0  0  0  0  0  0
   18.7724   76.0608   14.6826 N   0  0  0  0  0  0  0  0  0  0  0  0
   19.7273   76.5447   15.5070 C   0  0  0  0  0  0  0  0  0  0  0  0
   19.6406   76.6649   16.9150 N   0  0  0  0  0  0  0  0  0  0  0  0
   19.8783   75.7923   17.4057 H   0  0  0  0  0  0  0  0  0  0  0  0
   18.6243   76.8604   17.1290 H   0  0  0  0  0  0  0  0  0  0  0  0
   20.1918   77.4812   17.2886 H   0  0  0  0  0  0  0  0  0  0  0  0
   21.3595   79.7440   15.7388 C   0  0  0  0  0  0  0  0  0  0  0  0
   20.5740   81.3857   17.4772 N   0  0  0  0  0  0  0  0  0  0  0  0
   21.0021   80.0915   17.0922 C   0  0  0  0  0  0  0  0  0  0  0  0
   21.0626   79.2257   17.9967 O   0  0  0  0  0  0  0  0  0  0  0  0
   20.5208   82.1138   16.7331 H   0  0  0  0  0  0  0  0  0  0  0  0
   20.2295   82.9517   19.1963 C   0  0  0  0  0  0  0  0  0  0  0  0
   20.2249   81.7477   18.7676 N   0  0  0  0  0  0  0  0  0  0  0  0
   16.8983   85.3394   22.4926 Br  0  0  0  0  0  0  0  0  0  0  0  0
   18.4073   84.2434   22.1442 C   0  0  0  0  0  0  0  0  0  0  0  0
   18.7647   83.9992   20.8350 C   0  0  0  0  0  0  0  0  0  0  0  0
   19.8446   83.2149   20.5689 C   0  0  0  0  0  0  0  0  0  0  0  0
   20.6055   82.6468   21.5969 C   0  0  0  0  0  0  0  0  0  0  0  0
   20.2277   82.9068   22.8917 C   0  0  0  0  0  0  0  0  0  0  0  0
   19.1418   83.6952   23.1815 C   0  0  0  0  0  0  0  0  0  0  0  0
   21.2326   82.1554   24.3359 Br  0  0  0  0  0  0  0  0  0  0  0  0
   18.0232   84.5529   19.8064 O   0  0  0  0  0  0  0  0  0  0  0  0
 26 27  1  0  0  0
 27 28  2  0  0  0
 27 32  1  0  0  0
 28 29  1  0  0  0
 28 34  1  0  0  0
 29 30  2  0  0  0
 29 24  1  0  0  0
 30 31  1  0  0  0
 31 32  2  0  0  0
 31 33  1  0  0  0
 24 25  2  0  0  0
 25 20  1  0  0  0
 20 21  1  0  0  0
 21 22  2  0  0  0
 21 19  1  0  0  0
 19  1  1  0  0  0
  1  2  1  0  0  0
  1  5  1  0  0  0
  2  3  2  0  0  0
  2  9  1  0  0  0
  3  4  1  0  0  0
  3  6  1  0  0  0
  4  5  2  0  0  0
  5 10  1  0  0  0
 10 11  2  0  0  0
 10 14  1  0  0  0
 11 12  1  0  0  0
 12 13  1  0  0  0
 13 14  2  0  0  0
 14 15  1  0  0  0
  6  7  2  0  0  0
  7  8  1  0  0  0
  8  9  2  0  0  0
 20 23  1  0  0  0
 15 16  1  0  0  0
 15 17  1  0  0  0
 15 18  1  0  0  0
M  CHG 1  15   1
M  CHG 1  34  -1
M  END
> <minimizedAffinity>
-10.45082

$$$$
11


 36 39  0  0  0  0  0  0  0  0999 V2000
   20.7661   78.3200   15.4368 C   0  0  0  0  0  0  0  0  0  0  0  0
   21.7002   78.7084   16.4110 N   0  0  0  0  0  0  0  0  0  0  0  0
   23.0569   78.5928   16.1489 C   0  0  0  0  0  0  0  0  0  0  0  0
   23.7089   79.0059   17.2501 C   0  0  0  0  0  0  0  0  0  0  0  0
   22.7897   79.3520   18.1376 N   0  0  0  0  0  0  0  0  0  0  0  0
   21.5158   79.1700   17.6188 C   0  0  0  0  0  0  0  0  0  0  0  0
   25.0920   79.0208   17.3407 C   0  0  0  0  0  0  0  0  0  0  0  0
   25.7822   78.5877   16.2343 C   0  0  0  0  0  0  0  0  0  0  0  0
   25.1634   78.1563   15.0766 C   0  0  0  0  0  0  0  0  0  0  0  0
   23.7702   78.1613   15.0414 C   0  0  0  0  0  0  0  0  0  0  0  0
   20.4109   79.4977   18.5017 C   0  0  0  0  0  0  0  0  0  0  0  0
   19.9281   80.7976   18.6392 N   0  0  0  0  0  0  0  0  0  0  0  0
   18.9466   80.8258   19.4467 O   0  0  0  0  0  0  0  0  0  0  0  0
   18.6997   79.6585   19.8887 N   0  0  0  0  0  0  0  0  0  0  0  0
   19.6017   78.7909   19.3148 C   0  0  0  0  0  0  0  0  0  0  0  0
   19.5786   77.4061   19.5837 N   0  0  0  0  0  0  0  0  0  0  0  0
   18.6573   77.1811   20.1185 H   0  0  0  0  0  0  0  0  0  0  0  0
   20.3103   77.1660   20.2635 H   0  0  0  0  0  0  0  0  0  0  0  0
   19.4773   76.8571   18.7339 H   0  0  0  0  0  0  0  0  0  0  0  0
   19.9011   76.3348   14.4183 N   0  0  0  0  0  0  0  0  0  0  0  0
   20.3374   76.8448   15.5969 C   0  0  0  0  0  0  0  0  0  0  0  0
   20.4738   76.4328   16.7471 O   0  0  0  0  0  0  0  0  0  0  0  0
   19.6982   75.1090   15.0761 H   0  0  0  0  0  0  0  0  0  0  0  0
   19.1602   75.4916   12.2827 C   0  0  0  0  0  0  0  0  0  0  0  0
   19.5045   75.8679   13.3481 N   0  0  0  0  0  0  0  0  0  0  0  0
   18.9783   74.6592    7.0324 Br  0  0  0  0  0  0  0  0  0  0  0  0
   19.2460   75.7782    8.5420 C   0  0  0  0  0  0  0  0  0  0  0  0
   19.6129   77.0952    8.3739 C   0  0  0  0  0  0  0  0  0  0  0  0
   19.8279   77.9047    9.5154 C   0  0  0  0  0  0  0  0  0  0  0  0
   19.6589   77.3254   10.7394 C   0  0  0  0  0  0  0  0  0  0  0  0
   19.2887   75.9904   10.9571 C   0  0  0  0  0  0  0  0  0  0  0  0
   19.0919   75.2533    9.8103 C   0  0  0  0  0  0  0  0  0  0  0  0
   19.7879   77.6781    7.1525 O   0  0  0  0  0  0  0  0  0  0  0  0
   20.1975   79.2217    9.3165 O   0  0  0  0  0  0  0  0  0  0  0  0
   21.3391   79.7785    9.8724 C   0  0  0  0  0  0  0  0  0  0  0  0
   22.6472   79.1763    9.4438 C   0  0  0  0  0  0  0  0  0  0  0  0
 26 27  1  0  0  0
 27 28  2  0  0  0
 27 32  1  0  0  0
 28 29  1  0  0  0
 28 33  1  0  0  0
 29 30  2  0  0  0
 29 34  1  0  0  0
 30 31  1  0  0  0
 31 32  2  0  0  0
 31 24  1  0  0  0
 24 25  2  0  0  0
 25 20  1  0  0  0
 20 21  1  0  0  0
 21 22  2  0  0  0
 21  1  1  0  0  0
  1  2  1  0  0  0
  2  3  1  0  0  0
  2  6  1  0  0  0
  3  4  2  0  0  0
  3 10  1  0  0  0
  4  5  1  0  0  0
  4  7  1  0  0  0
  5  6  2  0  0  0
  6 11  1  0  0  0
 11 12  2  0  0  0
 11 15  1  0  0  0
 12 13  1  0  0  0
 13 14  1  0  0  0
 14 15  2  0  0  0
 15 16  1  0  0  0
  7  8  2  0  0  0
  8  9  1  0  0  0
  9 10  2  0  0  0
 34 35  1  0  0  0
 35 36  1  0  0  0
 20 23  1  0  0  0
 16 17  1  0  0  0
 16 18  1  0  0  0
 16 19  1  0  0  0
M  CHG 1  16   1
M  CHG 1  33  -1
M  END
> <minimizedAffinity>
-11.15119

$$$$
17


 38 41  0  0  0  0  0  0  0  0999 V2000
   20.7166   76.9435   14.3912 C   0  0  0  0  0  0  0  0  0  0  0  0
   20.3260   76.7695   15.6604 N   0  0  0  0  0  0  0  0  0  0  0  0
   21.2790   77.1593   16.4708 N   0  0  0  0  0  0  0  0  0  0  0  0
   22.3395   77.6081   15.7752 N   0  0  0  0  0  0  0  0  0  0  0  0
   22.0134   77.4835   14.4854 C   0  0  0  0  0  0  0  0  0  0  0  0
   23.5401   78.0796   16.3963 C   0  0  0  0  0  0  0  0  0  0  0  0
   23.7283   79.1774   17.1456 N   0  0  0  0  0  0  0  0  0  0  0  0
   24.9833   79.2304   17.5232 O   0  0  0  0  0  0  0  0  0  0  0  0
   25.6471   78.2025   17.0512 N   0  0  0  0  0  0  0  0  0  0  0  0
   24.7694   77.4681   16.3442 C   0  0  0  0  0  0  0  0  0  0  0  0
   25.1158   76.2639   15.6784 N   0  0  0  0  0  0  0  0  0  0  0  0
   25.5039   76.2234   14.7138 H   0  0  0  0  0  0  0  0  0  0  0  0
   24.9901   75.3322   16.1514 H   0  0  0  0  0  0  0  0  0  0  0  0
   20.0263   77.5203   12.0500 N   0  0  0  0  0  0  0  0  0  0  0  0
   19.9905   76.6501   13.1626 C   0  0  0  0  0  0  0  0  0  0  0  0
   19.3189   75.6022   13.0916 O   0  0  0  0  0  0  0  0  0  0  0  0
   20.6023   78.4077   12.1271 H   0  0  0  0  0  0  0  0  0  0  0  0
   19.3439   78.1057    9.8649 C   0  0  0  0  0  0  0  0  0  0  0  0
   19.3672   77.3044   10.8652 N   0  0  0  0  0  0  0  0  0  0  0  0
   18.4714   74.4730    6.1695 Br  0  0  0  0  0  0  0  0  0  0  0  0
   18.1627   76.1941    6.9273 C   0  0  0  0  0  0  0  0  0  0  0  0
   17.2861   77.1013    6.3431 C   0  0  0  0  0  0  0  0  0  0  0  0
   17.0588   78.3457    6.8848 C   0  0  0  0  0  0  0  0  0  0  0  0
   17.7346   78.6700    8.0368 C   0  0  0  0  0  0  0  0  0  0  0  0
   18.6158   77.7908    8.6465 C   0  0  0  0  0  0  0  0  0  0  0  0
   18.8131   76.5554    8.0702 C   0  0  0  0  0  0  0  0  0  0  0  0
   16.6307   76.7177    5.1766 O   0  0  0  0  0  0  0  0  0  0  0  0
   15.9858   77.3575    4.7283 H   0  0  0  0  0  0  0  0  0  0  0  0
   16.1786   79.1912    6.2528 O   0  0  0  0  0  0  0  0  0  0  0  0
   15.3101   80.0956    6.8526 C   0  0  0  0  0  0  0  0  0  0  0  0
   13.8780   79.6692    6.8889 C   0  0  0  0  0  0  0  0  0  0  0  0
   22.8108   77.7946   13.2978 C   0  0  0  0  0  0  0  0  0  0  0  0
   23.3628   79.1229   13.2106 N   0  0  0  0  0  0  0  0  0  0  0  0
   24.1701   79.1068   11.9841 C   0  0  0  0  0  0  0  0  0  0  0  0
   23.4163   78.8312   10.7442 C   0  0  0  0  0  0  0  0  0  0  0  0
   22.1255   79.3320   10.8128 O   0  0  0  0  0  0  0  0  0  0  0  0
   22.1457   80.4800   11.5749 C   0  0  0  0  0  0  0  0  0  0  0  0
   22.2778   80.0908   13.0342 C   0  0  0  0  0  0  0  0  0  0  0  0
 20 21  1  0  0  0
 21 22  2  0  0  0
 21 26  1  0  0  0
 22 23  1  0  0  0
 22 27  1  0  0  0
 23 24  2  0  0  0
 23 29  1  0  0  0
 24 25  1  0  0  0
 25 26  2  0  0  0
 25 18  1  0  0  0
 18 19  2  0  0  0
 19 14  1  0  0  0
 14 15  1  0  0  0
 15 16  2  0  0  0
 15  1  1  0  0  0
  1  2  1  0  0  0
  1  5  2  0  0  0
  2  3  2  0  0  0
  3  4  1  0  0  0
  4  5  1  0  0  0
  4  6  1  0  0  0
  5 32  1  0  0  0
 32 33  1  0  0  0
 33 34  1  0  0  0
 33 38  1  0  0  0
 34 35  1  0  0  0
 35 36  1  0  0  0
 36 37  1  0  0  0
 37 38  1  0  0  0
  6  7  2  0  0  0
  6 10  1  0  0  0
  7  8  1  0  0  0
  8  9  1  0  0  0
  9 10  2  0  0  0
 10 11  1  0  0  0
 29 30  1  0  0  0
 30 31  1  0  0  0
 14 17  1  0  0  0
 11 12  1  0  0  0
 11 13  1  0  0  0
 27 28  1  0  0  0
M  END
> <minimizedAffinity>
-8.44499

$$$$
18


 37 40  0  0  0  0  0  0  0  0999 V2000
   20.0011   78.3334   18.7876 C   0  0  0  0  0  0  0  0  0  0  0  0
   19.0704   78.7241   19.5852 N   0  0  0  0  0  0  0  0  0  0  0  0
   19.1684   80.0266   19.7905 N   0  0  0  0  0  0  0  0  0  0  0  0
   20.2049   80.4884   19.1059 N   0  0  0  0  0  0  0  0  0  0  0  0
   20.8278   79.5244   18.4430 C   0  0  0  0  0  0  0  0  0  0  0  0
   20.3029   81.9011   18.8000 C   0  0  0  0  0  0  0  0  0  0  0  0
   20.3465   82.5719   17.7257 N   0  0  0  0  0  0  0  0  0  0  0  0
   20.4936   83.8788   17.9464 O   0  0  0  0  0  0  0  0  0  0  0  0
   20.5413   84.0260   19.2208 N   0  0  0  0  0  0  0  0  0  0  0  0
   20.4329   82.8572   19.8537 C   0  0  0  0  0  0  0  0  0  0  0  0
   20.4600   82.6092   21.2361 N   0  0  0  0  0  0  0  0  0  0  0  0
   21.2448   82.1234   21.7060 H   0  0  0  0  0  0  0  0  0  0  0  0
   19.6662   82.9263   21.8887 H   0  0  0  0  0  0  0  0  0  0  0  0
   19.4004   77.1157   16.6787 N   0  0  0  0  0  0  0  0  0  0  0  0
   20.1910   77.2203   17.8847 C   0  0  0  0  0  0  0  0  0  0  0  0
   21.0850   76.4059   18.1110 O   0  0  0  0  0  0  0  0  0  0  0  0
   18.6122   77.3666   16.2505 H   0  0  0  0  0  0  0  0  0  0  0  0
   19.4390   76.1194   14.7395 C   0  0  0  0  0  0  0  0  0  0  0  0
   20.3280   76.2117   15.7463 N   0  0  0  0  0  0  0  0  0  0  0  0
   19.9538   77.1758    9.6821 Br  0  0  0  0  0  0  0  0  0  0  0  0
   19.3902   76.0366   11.1350 C   0  0  0  0  0  0  0  0  0  0  0  0
   18.8116   74.8208   10.8382 C   0  0  0  0  0  0  0  0  0  0  0  0
   18.4218   73.9849   11.8476 C   0  0  0  0  0  0  0  0  0  0  0  0
   18.6228   74.4018   13.1432 C   0  0  0  0  0  0  0  0  0  0  0  0
   19.1960   75.6106   13.4950 C   0  0  0  0  0  0  0  0  0  0  0  0
   19.5881   76.4444   12.3835 C   0  0  0  0  0  0  0  0  0  0  0  0
   18.6273   74.4523    9.5025 O   0  0  0  0  0  0  0  0  0  0  0  0
   18.8977   75.1374    8.7651 H   0  0  0  0  0  0  0  0  0  0  0  0
   17.8465   72.7355   11.5868 O   0  0  0  0  0  0  0  0  0  0  0  0
   16.8822   72.2087   12.5206 C   0  0  0  0  0  0  0  0  0  0  0  0
   21.8773   79.4745   17.4664 C   0  0  0  0  0  0  0  0  0  0  0  0
   21.5381   79.7837   16.0758 N   0  0  0  0  0  0  0  0  0  0  0  0
   21.9602   78.7633   15.1725 C   0  0  0  0  0  0  0  0  0  0  0  0
   23.4485   78.6319   15.0193 C   0  0  0  0  0  0  0  0  0  0  0  0
   23.9319   79.6893   14.2672 O   0  0  0  0  0  0  0  0  0  0  0  0
   23.0709   80.7893   14.3512 C   0  0  0  0  0  0  0  0  0  0  0  0
   22.5279   80.8961   15.7367 C   0  0  0  0  0  0  0  0  0  0  0  0
 20 21  1  0  0  0
 21 22  2  0  0  0
 21 26  1  0  0  0
 22 23  1  0  0  0
 22 27  1  0  0  0
 23 24  2  0  0  0
 23 29  1  0  0  0
 24 25  1  0  0  0
 25 26  2  0  0  0
 25 18  1  0  0  0
 18 19  2  0  0  0
 19 14  1  0  0  0
 14 15  1  0  0  0
 15 16  2  0  0  0
 15  1  1  0  0  0
  1  2  1  0  0  0
  1  5  2  0  0  0
  2  3  2  0  0  0
  3  4  1  0  0  0
  4  5  1  0  0  0
  4  6  1  0  0  0
  5 31  1  0  0  0
 31 32  1  0  0  0
 32 33  1  0  0  0
 32 37  1  0  0  0
 33 34  1  0  0  0
 34 35  1  0  0  0
 35 36  1  0  0  0
 36 37  1  0  0  0
  6  7  2  0  0  0
  6 10  1  0  0  0
  7  8  1  0  0  0
  8  9  1  0  0  0
  9 10  2  0  0  0
 10 11  1  0  0  0
 29 30  1  0  0  0
 14 17  1  0  0  0
 11 12  1  0  0  0
 11 13  1  0  0  0
 27 28  1  0  0  0
M  END
> <minimizedAffinity>
-10.75300

$$$$
20


 34 37  0  0  0  0  0  0  0  0999 V2000
   19.9482   78.1185   10.7844 C   0  0  0  0  0  0  0  0  0  0  0  0
   19.7468   77.8421    9.5100 N   0  0  0  0  0  0  0  0  0  0  0  0
   19.3082   76.6112    9.1197 C   0  0  0  0  0  0  0  0  0  0  0  0
   19.0983   75.7172   10.1148 N   0  0  0  0  0  0  0  0  0  0  0  0
   19.2876   75.9414   11.4288 C   0  0  0  0  0  0  0  0  0  0  0  0
   19.7271   77.1804   11.7451 N   0  0  0  0  0  0  0  0  0  0  0  0
   18.9097   75.0293   12.3986 N   0  0  0  0  0  0  0  0  0  0  0  0
   19.2258   74.9833   13.7737 C   0  0  0  0  0  0  0  0  0  0  0  0
   19.9950   73.6788   14.0020 C   0  0  0  0  0  0  0  0  0  0  0  0
   19.2127   72.6459   13.5351 O   0  0  0  0  0  0  0  0  0  0  0  0
   18.9149   72.6836   12.1922 C   0  0  0  0  0  0  0  0  0  0  0  0
   18.0242   73.9285   11.9140 C   0  0  0  0  0  0  0  0  0  0  0  0
   18.9975   76.3020    7.7744 N   0  0  0  0  0  0  0  0  0  0  0  0
   18.3504   77.3171    6.9277 C   0  0  0  0  0  0  0  0  0  0  0  0
   17.1955   76.5643    6.2182 C   0  0  0  0  0  0  0  0  0  0  0  0
   17.8242   75.6913    5.3770 O   0  0  0  0  0  0  0  0  0  0  0  0
   18.4674   74.6689    6.0164 C   0  0  0  0  0  0  0  0  0  0  0  0
   19.2613   75.0259    7.2299 C   0  0  0  0  0  0  0  0  0  0  0  0
   20.2159   79.4765   11.3124 N   0  0  0  0  0  0  0  0  0  0  0  0
   19.5347   80.1710   11.0759 H   0  0  0  0  0  0  0  0  0  0  0  0
   22.3089   79.4791   12.6235 C   0  0  0  0  0  0  0  0  0  0  0  0
   21.3200   79.4737   12.0156 N   0  0  0  0  0  0  0  0  0  0  0  0
   26.1029   78.9670   16.2851 Br  0  0  0  0  0  0  0  0  0  0  0  0
   24.3083   78.6839   15.6682 C   0  0  0  0  0  0  0  0  0  0  0  0
   23.4583   77.9063   16.4050 C   0  0  0  0  0  0  0  0  0  0  0  0
   22.1608   77.6886   15.9464 C   0  0  0  0  0  0  0  0  0  0  0  0
   21.7400   78.2541   14.7509 C   0  0  0  0  0  0  0  0  0  0  0  0
   22.5821   79.0238   14.0022 C   0  0  0  0  0  0  0  0  0  0  0  0
   23.8562   79.2242   14.4842 C   0  0  0  0  0  0  0  0  0  0  0  0
   23.9233   77.3621   17.5833 O   0  0  0  0  0  0  0  0  0  0  0  0
   24.8453   77.4827   17.9273 H   0  0  0  0  0  0  0  0  0  0  0  0
   21.3816   76.9106   16.7443 O   0  0  0  0  0  0  0  0  0  0  0  0
   20.2438   77.2385   17.4599 C   0  0  0  0  0  0  0  0  0  0  0  0
   20.5402   77.6018   18.9075 C   0  0  0  0  0  0  0  0  0  0  0  0
 23 24  1  0  0  0
 24 25  2  0  0  0
 24 29  1  0  0  0
 25 26  1  0  0  0
 25 30  1  0  0  0
 26 27  2  0  0  0
 26 32  1  0  0  0
 27 28  1  0  0  0
 28 29  2  0  0  0
 28 21  1  0  0  0
 21 22  2  0  0  0
 22 19  1  0  0  0
 19  1  1  0  0  0
  1  2  2  0  0  0
  1  6  1  0  0  0
  2  3  1  0  0  0
  3  4  2  0  0  0
  3 13  1  0  0  0
  4  5  1  0  0  0
  5  6  2  0  0  0
  5  7  1  0  0  0
  7  8  1  0  0  0
  7 12  1  0  0  0
  8  9  1  0  0  0
  9 10  1  0  0  0
 10 11  1  0  0  0
 11 12  1  0  0  0
 13 14  1  0  0  0
 13 18  1  0  0  0
 14 15  1  0  0  0
 15 16  1  0  0  0
 16 17  1  0  0  0
 17 18  1  0  0  0
 32 33  1  0  0  0
 33 34  1  0  0  0
 19 20  1  0  0  0
 30 31  1  0  0  0
M  END
> <minimizedAffinity>
-9.94011

$$$$
23


 37 40  0  0  0  0  0  0  0  0999 V2000
   19.9668   79.5543   17.0178 C   0  0  0  0  0  0  0  0  0  0  0  0
   19.6130   78.1920   17.3567 N   0  0  0  0  0  0  0  0  0  0  0  0
   19.5487   78.0060   18.7416 C   0  0  0  0  0  0  0  0  0  0  0  0
   19.3939   76.9255   19.3300 O   0  0  0  0  0  0  0  0  0  0  0  0
   19.6993   79.3180   19.3720 C   0  0  0  0  0  0  0  0  0  0  0  0
   19.6877   79.4766   20.6196 O   0  0  0  0  0  0  0  0  0  0  0  0
   19.8529   80.3029   18.3228 C   0  0  0  0  0  0  0  0  0  0  0  0
   19.9262   81.5937   18.5050 C   0  0  0  0  0  0  0  0  0  0  0  0
   20.1394   82.4280   17.4194 O   0  0  0  0  0  0  0  0  0  0  0  0
   19.7843   82.1928   19.8093 C   0  0  0  0  0  0  0  0  0  0  0  0
   20.8650   81.9771   20.6742 C   0  0  0  0  0  0  0  0  0  0  0  0
   20.8829   82.5184   21.9358 C   0  0  0  0  0  0  0  0  0  0  0  0
   19.8287   83.2864   22.3724 C   0  0  0  0  0  0  0  0  0  0  0  0
   18.7737   83.4845   21.5015 C   0  0  0  0  0  0  0  0  0  0  0  0
   18.7387   82.9508   20.2314 C   0  0  0  0  0  0  0  0  0  0  0  0
   20.1093   83.7071   23.6892 O   0  0  0  0  0  0  0  0  0  0  0  0
   21.1498   82.8867   24.2112 C   0  0  0  0  0  0  0  0  0  0  0  0
   21.9248   82.4042   23.0067 C   0  0  0  0  0  0  0  0  0  0  0  0
   20.6060   81.6645   24.9267 C   0  0  0  0  0  0  0  0  0  0  0  0
   25.1782   78.5857   17.7787 Br  0  0  0  0  0  0  0  0  0  0  0  0
   23.6912   79.1551   16.7492 C   0  0  0  0  0  0  0  0  0  0  0  0
   23.9075   79.6051   15.4389 C   0  0  0  0  0  0  0  0  0  0  0  0
   22.8187   80.0230   14.6845 C   0  0  0  0  0  0  0  0  0  0  0  0
   21.5854   79.9805   15.2432 C   0  0  0  0  0  0  0  0  0  0  0  0
   21.3735   79.5356   16.5384 C   0  0  0  0  0  0  0  0  0  0  0  0
   22.4298   79.1163   17.3086 C   0  0  0  0  0  0  0  0  0  0  0  0
   25.1623   79.6423   14.8854 O   0  0  0  0  0  0  0  0  0  0  0  0
   25.2941   79.9653   13.9588 H   0  0  0  0  0  0  0  0  0  0  0  0
   23.0290   80.4721   13.3780 O   0  0  0  0  0  0  0  0  0  0  0  0
   22.5903   79.7729   12.2451 C   0  0  0  0  0  0  0  0  0  0  0  0
   19.3764   77.1982   16.3299 C   0  0  0  0  0  0  0  0  0  0  0  0
   20.5615   76.6651   15.6428 C   0  0  0  0  0  0  0  0  0  0  0  0
   20.4862   76.4622   14.1749 C   0  0  0  0  0  0  0  0  0  0  0  0
   19.4072   75.6053   13.7490 N   0  0  0  0  0  0  0  0  0  0  0  0
   19.7894   74.2050   13.9822 C   0  0  0  0  0  0  0  0  0  0  0  0
   19.2660   75.7733   12.3139 C   0  0  0  0  0  0  0  0  0  0  0  0
   18.4975   75.8048   14.1738 H   0  0  0  0  0  0  0  0  0  0  0  0
 20 21  1  0  0  0
 21 22  2  0  0  0
 21 26  1  0  0  0
 22 23  1  0  0  0
 22 27  1  0  0  0
 23 24  2  0  0  0
 23 29  1  0  0  0
 24 25  1  0  0  0
 25 26  2  0  0  0
 25  1  1  0  0  0
  1  2  1  0  0  0
  1  7  1  0  0  0
  2  3  1  0  0  0
  2 31  1  0  0  0
  3  4  2  0  0  0
  3  5  1  0  0  0
  5  6  2  0  0  0
  5  7  1  0  0  0
  7  8  2  0  0  0
  8  9  1  0  0  0
  8 10  1  0  0  0
 10 11  2  0  0  0
 10 15  1  0  0  0
 11 12  1  0  0  0
 12 13  2  0  0  0
 12 18  1  0  0  0
 13 14  1  0  0  0
 13 16  1  0  0  0
 14 15  2  0  0  0
 16 17  1  0  0  0
 17 18  1  0  0  0
 17 19  1  0  0  0
 31 32  1  0  0  0
 32 33  1  0  0  0
 33 34  1  0  0  0
 34 35  1  0  0  0
 34 36  1  0  0  0
 29 30  1  0  0  0
 34 37  1  0  0  0
 27 28  1  0  0  0
M  CHG 1   9  -1
M  CHG 1  34   1
M  END
> <minimizedAffinity>
-8.86324

$$$$
26


 29 32  0  0  0  0  0  0  0  0999 V2000
   20.7487   76.9534   16.2161 C   0  0  0  0  0  0  0  0  0  0  0  0
   19.8495   77.8484   16.8168 N   0  0  0  0  0  0  0  0  0  0  0  0
   20.3413   78.8794   17.6492 C   0  0  0  0  0  0  0  0  0  0  0  0
   21.7223   78.6592   18.2049 C   0  0  0  0  0  0  0  0  0  0  0  0
   22.6642   78.1646   17.1728 C   0  0  0  0  0  0  0  0  0  0  0  0
   24.0006   78.3744   16.9652 C   0  0  0  0  0  0  0  0  0  0  0  0
   24.3071   77.6381   15.8342 C   0  0  0  0  0  0  0  0  0  0  0  0
   23.1824   77.0146   15.3923 N   0  0  0  0  0  0  0  0  0  0  0  0
   22.1722   77.3353   16.2116 C   0  0  0  0  0  0  0  0  0  0  0  0
   25.6157   77.6778   15.4024 C   0  0  0  0  0  0  0  0  0  0  0  0
   26.5750   78.4152   16.0633 C   0  0  0  0  0  0  0  0  0  0  0  0
   26.2677   79.1489   17.1906 C   0  0  0  0  0  0  0  0  0  0  0  0
   24.9574   79.1195   17.6387 C   0  0  0  0  0  0  0  0  0  0  0  0
   19.1950   78.2860   16.1064 H   0  0  0  0  0  0  0  0  0  0  0  0
   19.1626   77.2716   17.4011 H   0  0  0  0  0  0  0  0  0  0  0  0
   23.2019   76.4058   14.5455 H   0  0  0  0  0  0  0  0  0  0  0  0
   18.0682   73.8704   12.7959 Br  0  0  0  0  0  0  0  0  0  0  0  0
   19.1552   75.3777   13.1956 C   0  0  0  0  0  0  0  0  0  0  0  0
   19.5486   76.2270   12.1895 C   0  0  0  0  0  0  0  0  0  0  0  0
   20.3366   77.3124   12.5090 C   0  0  0  0  0  0  0  0  0  0  0  0
   20.7601   77.6020   13.7880 C   0  0  0  0  0  0  0  0  0  0  0  0
   20.3611   76.7459   14.7923 C   0  0  0  0  0  0  0  0  0  0  0  0
   19.5737   75.6539   14.5008 C   0  0  0  0  0  0  0  0  0  0  0  0
   20.8707   78.4759   11.0970 Br  0  0  0  0  0  0  0  0  0  0  0  0
   19.1578   76.0000   10.8544 O   0  0  0  0  0  0  0  0  0  0  0  0
   18.5808   75.1925   10.6648 H   0  0  0  0  0  0  0  0  0  0  0  0
   20.3435   80.2095   16.9803 C   0  0  0  0  0  0  0  0  0  0  0  0
   19.5643   81.1272   17.4101 O   0  0  0  0  0  0  0  0  0  0  0  0
   21.1842   80.4352   15.9025 O   0  0  0  0  0  0  0  0  0  0  0  0
 17 18  1  0  0  0
 18 19  2  0  0  0
 18 23  1  0  0  0
 19 20  1  0  0  0
 19 25  1  0  0  0
 20 21  2  0  0  0
 20 24  1  0  0  0
 21 22  1  0  0  0
 22 23  2  0  0  0
 22  1  1  0  0  0
  1  2  1  0  0  0
  1  9  1  0  0  0
  2  3  1  0  0  0
  3  4  1  0  0  0
  3 27  1  0  0  0
  4  5  1  0  0  0
  5  6  1  0  0  0
  5  9  2  0  0  0
  6  7  2  0  0  0
  6 13  1  0  0  0
  7  8  1  0  0  0
  7 10  1  0  0  0
  8  9  1  0  0  0
 10 11  2  0  0  0
 11 12  1  0  0  0
 12 13  2  0  0  0
 27 28  2  0  0  0
 27 29  1  0  0  0
  2 14  1  0  0  0
  2 15  1  0  0  0
  8 16  1  0  0  0
 25 26  1  0  0  0
M  CHG 1   2   1
M  END
> <minimizedAffinity>
-10.23627

$$$$
31


 24 27  0  0  0  0  0  0  0  0999 V2000
   19.0752   77.1989    9.5637 Br  0  0  0  0  0  0  0  0  0  0  0  0
   20.6684   77.9782   10.3011 C   0  0  0  0  0  0  0  0  0  0  0  0
   20.8639   78.0453   11.6346 C   0  0  0  0  0  0  0  0  0  0  0  0
   22.0207   78.6830   12.1704 C   0  0  0  0  0  0  0  0  0  0  0  0
   22.9022   79.2210   11.2979 C   0  0  0  0  0  0  0  0  0  0  0  0
   22.6777   79.1521    9.9369 C   0  0  0  0  0  0  0  0  0  0  0  0
   21.5758   78.5369    9.4268 C   0  0  0  0  0  0  0  0  0  0  0  0
   21.8840   79.0237   13.5999 C   0  0  0  0  0  0  0  0  0  0  0  0
   22.9034   78.7413   14.5251 N   0  0  0  0  0  0  0  0  0  0  0  0
   24.2364   78.8712   14.2114 C   0  0  0  0  0  0  0  0  0  0  0  0
   25.0998   78.6542   15.3700 N   0  0  0  0  0  0  0  0  0  0  0  0
   24.8276   77.3181   15.8736 C   0  0  0  0  0  0  0  0  0  0  0  0
   23.4259   77.1260   16.1831 N   0  0  0  0  0  0  0  0  0  0  0  0
   22.5641   77.3949   15.1011 C   0  0  0  0  0  0  0  0  0  0  0  0
   23.0949   77.9774   17.3069 C   0  0  0  0  0  0  0  0  0  0  0  0
   23.3896   79.3899   16.8684 C   0  0  0  0  0  0  0  0  0  0  0  0
   22.5705   79.6682   15.6629 C   0  0  0  0  0  0  0  0  0  0  0  0
   24.8470   79.5723   16.4532 C   0  0  0  0  0  0  0  0  0  0  0  0
   19.9761   77.5140   12.5006 O   0  0  0  0  0  0  0  0  0  0  0  0
   19.7617   76.0971   12.6612 C   0  0  0  0  0  0  0  0  0  0  0  0
   19.6805   75.5826   14.0255 C   0  0  0  0  0  0  0  0  0  0  0  0
   19.2374   76.1957   14.9862 O   0  0  0  0  0  0  0  0  0  0  0  0
   20.1144   74.2699   14.2421 O   0  0  0  0  0  0  0  0  0  0  0  0
   19.5856   73.1654   13.5580 C   0  0  0  0  0  0  0  0  0  0  0  0
  1  2  1  0  0  0
  2  3  2  0  0  0
  2  7  1  0  0  0
  3  4  1  0  0  0
  3 19  1  0  0  0
  4  5  2  0  0  0
  4  8  1  0  0  0
  5  6  1  0  0  0
  6  7  2  0  0  0
  8  9  1  0  0  0
  9 10  1  0  0  0
  9 14  1  0  0  0
  9 17  1  0  0  0
 10 11  1  0  0  0
 11 12  1  0  0  0
 11 18  1  0  0  0
 12 13  1  0  0  0
 13 14  1  0  0  0
 13 15  1  0  0  0
 15 16  1  0  0  0
 16 17  1  0  0  0
 16 18  1  0  0  0
 19 20  1  0  0  0
 20 21  1  0  0  0
 21 22  2  0  0  0
 21 23  1  0  0  0
 23 24  1  0  0  0
M  CHG 1   9   1
M  END
> <minimizedAffinity>
-7.87487

$$$$
33


 33 36  0  0  0  0  0  0  0  0999 V2000
   20.4884   76.4535   14.3821 C   0  0  0  0  0  0  0  0  0  0  0  0
   19.8752   75.2855   14.2752 N   0  0  0  0  0  0  0  0  0  0  0  0
   19.2282   74.8673   13.1734 C   0  0  0  0  0  0  0  0  0  0  0  0
   19.2183   75.7125   12.1197 N   0  0  0  0  0  0  0  0  0  0  0  0
   19.8309   76.9257   12.1681 C   0  0  0  0  0  0  0  0  0  0  0  0
   20.4643   77.2788   13.3141 N   0  0  0  0  0  0  0  0  0  0  0  0
   19.7991   77.8044   11.0666 N   0  0  0  0  0  0  0  0  0  0  0  0
   20.3636   79.1271   11.1460 C   0  0  0  0  0  0  0  0  0  0  0  0
   21.3274   79.2283    9.9547 C   0  0  0  0  0  0  0  0  0  0  0  0
   20.6502   78.8916    8.8003 O   0  0  0  0  0  0  0  0  0  0  0  0
   20.3531   77.5294    8.7878 C   0  0  0  0  0  0  0  0  0  0  0  0
   19.2149   77.3792    9.8200 C   0  0  0  0  0  0  0  0  0  0  0  0
   18.5724   73.5902   13.1061 N   0  0  0  0  0  0  0  0  0  0  0  0
   17.1657   73.4856   12.8417 C   0  0  0  0  0  0  0  0  0  0  0  0
   16.6440   72.1342   12.5435 C   0  0  0  0  0  0  0  0  0  0  0  0
   17.4889   71.0954   12.9088 O   0  0  0  0  0  0  0  0  0  0  0  0
   18.7892   71.2992   12.4679 C   0  0  0  0  0  0  0  0  0  0  0  0
   19.3636   72.4123   13.3097 C   0  0  0  0  0  0  0  0  0  0  0  0
   21.1202   76.8239   15.6013 N   0  0  0  0  0  0  0  0  0  0  0  0
   22.0055   76.3764   15.8663 H   0  0  0  0  0  0  0  0  0  0  0  0
   21.1972   78.4386   17.3245 C   0  0  0  0  0  0  0  0  0  0  0  0
   20.5495   77.7772   16.4279 N   0  0  0  0  0  0  0  0  0  0  0  0
   20.3547   83.5632   18.6727 Br  0  0  0  0  0  0  0  0  0  0  0  0
   20.0742   81.6933   18.8712 C   0  0  0  0  0  0  0  0  0  0  0  0
   19.2030   81.2635   19.8598 C   0  0  0  0  0  0  0  0  0  0  0  0
   19.0198   79.9000   19.9881 C   0  0  0  0  0  0  0  0  0  0  0  0
   19.6750   79.0156   19.1710 C   0  0  0  0  0  0  0  0  0  0  0  0
   20.5540   79.4244   18.1685 C   0  0  0  0  0  0  0  0  0  0  0  0
   20.7246   80.7868   18.0555 C   0  0  0  0  0  0  0  0  0  0  0  0
   19.4860   77.6363   19.3076 O   0  0  0  0  0  0  0  0  0  0  0  0
   18.5326   82.1533   20.6964 O   0  0  0  0  0  0  0  0  0  0  0  0
   18.8524   77.3074   20.0300 H   0  0  0  0  0  0  0  0  0  0  0  0
   18.6276   83.1561   20.6393 H   0  0  0  0  0  0  0  0  0  0  0  0
 23 24  1  0  0  0
 24 25  2  0  0  0
 24 29  1  0  0  0
 25 26  1  0  0  0
 25 31  1  0  0  0
 26 27  2  0  0  0
 27 28  1  0  0  0
 27 30  1  0  0  0
 28 29  2  0  0  0
 28 21  1  0  0  0
 21 22  2  0  0  0
 22 19  1  0  0  0
 19  1  1  0  0  0
  1  2  2  0  0  0
  1  6  1  0  0  0
  2  3  1  0  0  0
  3  4  2  0  0  0
  3 13  1  0  0  0
  4  5  1  0  0  0
  5  6  2  0  0  0
  5  7  1  0  0  0
  7  8  1  0  0  0
  7 12  1  0  0  0
  8  9  1  0  0  0
  9 10  1  0  0  0
 10 11  1  0  0  0
 11 12  1  0  0  0
 13 14  1  0  0  0
 13 18  1  0  0  0
 14 15  1  0  0  0
 15 16  1  0  0  0
 16 17  1  0  0  0
 17 18  1  0  0  0
 19 20  1  0  0  0
 30 32  1  0  0  0
 31 33  1  0  0  0
M  END
> <minimizedAffinity>
-10.68212

$$$$
35


 33 36  0  0  0  0  0  0  0  0999 V2000
   19.7944   75.4703   13.8158 C   0  0  0  0  0  0  0  0  0  0  0  0
   19.3343   74.2573   13.4958 N   0  0  0  0  0  0  0  0  0  0  0  0
   18.8870   73.9579   12.2471 C   0  0  0  0  0  0  0  0  0  0  0  0
   18.9088   74.9149   11.3060 N   0  0  0  0  0  0  0  0  0  0  0  0
   19.3650   76.1427   11.5954 C   0  0  0  0  0  0  0  0  0  0  0  0
   19.8060   76.4058   12.8615 N   0  0  0  0  0  0  0  0  0  0  0  0
   19.3898   77.1665   10.6012 N   0  0  0  0  0  0  0  0  0  0  0  0
   18.9628   76.9641    9.2375 C   0  0  0  0  0  0  0  0  0  0  0  0
   19.9584   77.5639    8.2676 C   0  0  0  0  0  0  0  0  0  0  0  0
   21.0443   78.1404    8.9090 O   0  0  0  0  0  0  0  0  0  0  0  0
   20.5778   79.1304    9.7954 C   0  0  0  0  0  0  0  0  0  0  0  0
   19.8727   78.4819   10.9703 C   0  0  0  0  0  0  0  0  0  0  0  0
   18.4188   72.6482   12.0172 N   0  0  0  0  0  0  0  0  0  0  0  0
   18.9779   71.5575   12.7694 C   0  0  0  0  0  0  0  0  0  0  0  0
   17.7778   70.8809   13.4505 C   0  0  0  0  0  0  0  0  0  0  0  0
   16.9754   70.4140   12.4090 O   0  0  0  0  0  0  0  0  0  0  0  0
   16.3758   71.4524   11.7043 C   0  0  0  0  0  0  0  0  0  0  0  0
   17.3939   72.3598   11.0436 C   0  0  0  0  0  0  0  0  0  0  0  0
   20.2515   75.7132   15.1274 N   0  0  0  0  0  0  0  0  0  0  0  0
   20.9315   75.0417   15.5407 H   0  0  0  0  0  0  0  0  0  0  0  0
   20.6667   77.6361   16.4279 C   0  0  0  0  0  0  0  0  0  0  0  0
   19.8114   76.8371   15.8801 N   0  0  0  0  0  0  0  0  0  0  0  0
   22.0814   80.1872   15.5041 Br  0  0  0  0  0  0  0  0  0  0  0  0
   20.8506   80.0407   16.9525 C   0  0  0  0  0  0  0  0  0  0  0  0
   20.5197   81.1514   17.7073 C   0  0  0  0  0  0  0  0  0  0  0  0
   19.6218   81.0178   18.7554 C   0  0  0  0  0  0  0  0  0  0  0  0
   19.0755   79.7845   19.0310 C   0  0  0  0  0  0  0  0  0  0  0  0
   19.4325   78.6947   18.2516 C   0  0  0  0  0  0  0  0  0  0  0  0
   20.3188   78.7987   17.2071 C   0  0  0  0  0  0  0  0  0  0  0  0
   18.1835   79.6955   20.0882 O   0  0  0  0  0  0  0  0  0  0  0  0
   21.0715   82.3879   17.4268 O   0  0  0  0  0  0  0  0  0  0  0  0
   17.1843   79.8221   20.0017 H   0  0  0  0  0  0  0  0  0  0  0  0
   21.7230   82.4577   16.6561 H   0  0  0  0  0  0  0  0  0  0  0  0
 23 24  1  0  0  0
 24 25  2  0  0  0
 24 29  1  0  0  0
 25 26  1  0  0  0
 25 31  1  0  0  0
 26 27  2  0  0  0
 27 28  1  0  0  0
 27 30  1  0  0  0
 28 29  2  0  0  0
 29 21  1  0  0  0
 21 22  2  0  0  0
 22 19  1  0  0  0
 19  1  1  0  0  0
  1  2  2  0  0  0
  1  6  1  0  0  0
  2  3  1  0  0  0
  3  4  2  0  0  0
  3 13  1  0  0  0
  4  5  1  0  0  0
  5  6  2  0  0  0
  5  7  1  0  0  0
  7  8  1  0  0  0
  7 12  1  0  0  0
  8  9  1  0  0  0
  9 10  1  0  0  0
 10 11  1  0  0  0
 11 12  1  0  0  0
 13 14  1  0  0  0
 13 18  1  0  0  0
 14 15  1  0  0  0
 15 16  1  0  0  0
 16 17  1  0  0  0
 17 18  1  0  0  0
 19 20  1  0  0  0
 30 32  1  0  0  0
 31 33  1  0  0  0
M  END
> <minimizedAffinity>
-9.74061

$$$$
37


 27 30  0  0  0  0  0  0  0  0999 V2000
   20.3709   80.0430   18.4282 N   0  0  0  0  0  0  0  0  0  0  0  0
   21.0699   79.9025   17.1727 C   0  0  0  0  0  0  0  0  0  0  0  0
   21.8159   78.6020   17.3766 C   0  0  0  0  0  0  0  0  0  0  0  0
   20.7280   77.7312   17.9801 C   0  0  0  0  0  0  0  0  0  0  0  0
   20.0856   78.7300   18.8754 C   0  0  0  0  0  0  0  0  0  0  0  0
   19.3957   78.4385   19.8754 O   0  0  0  0  0  0  0  0  0  0  0  0
   19.0043   85.3939   21.0796 Br  0  0  0  0  0  0  0  0  0  0  0  0
   19.4238   83.7227   20.2647 C   0  0  0  0  0  0  0  0  0  0  0  0
   20.0213   83.7276   19.0098 C   0  0  0  0  0  0  0  0  0  0  0  0
   20.3145   82.5158   18.4467 C   0  0  0  0  0  0  0  0  0  0  0  0
   20.0611   81.2930   19.0294 C   0  0  0  0  0  0  0  0  0  0  0  0
   19.4598   81.3321   20.2901 C   0  0  0  0  0  0  0  0  0  0  0  0
   19.1446   82.5302   20.9004 C   0  0  0  0  0  0  0  0  0  0  0  0
   20.3082   85.0304   18.3501 C   0  0  0  0  0  0  0  0  0  0  0  0
   22.3254   78.0464   16.1056 C   0  0  0  0  0  0  0  0  0  0  0  0
   23.1304   77.0845   16.0920 O   0  0  0  0  0  0  0  0  0  0  0  0
   21.8925   78.6138   14.8891 N   0  0  0  0  0  0  0  0  0  0  0  0
   21.2294   79.4090   14.8909 H   0  0  0  0  0  0  0  0  0  0  0  0
   22.3618   78.1012   13.6252 C   0  0  0  0  0  0  0  0  0  0  0  0
   21.3086   78.2060   12.5767 C   0  0  0  0  0  0  0  0  0  0  0  0
   21.2334   79.1020   11.5606 N   0  0  0  0  0  0  0  0  0  0  0  0
   20.1310   78.8591   10.8320 C   0  0  0  0  0  0  0  0  0  0  0  0
   19.5365   77.7938   11.4271 N   0  0  0  0  0  0  0  0  0  0  0  0
   20.2385   77.4020   12.4709 N   0  0  0  0  0  0  0  0  0  0  0  0
   20.0157   79.8334    9.6977 C   0  0  0  0  0  0  0  0  0  0  0  0
   21.0030   80.9068   10.0982 C   0  0  0  0  0  0  0  0  0  0  0  0
   21.9803   80.2315   11.0373 C   0  0  0  0  0  0  0  0  0  0  0  0
  7  8  1  0  0  0
  8  9  2  0  0  0
  8 13  1  0  0  0
  9 10  1  0  0  0
  9 14  1  0  0  0
 10 11  2  0  0  0
 11 12  1  0  0  0
 11  1  1  0  0  0
 12 13  2  0  0  0
  1  2  1  0  0  0
  1  5  1  0  0  0
  2  3  1  0  0  0
  3  4  1  0  0  0
  3 15  1  0  0  0
  4  5  1  0  0  0
  5  6  2  0  0  0
 15 16  2  0  0  0
 15 17  1  0  0  0
 17 19  1  0  0  0
 19 20  1  0  0  0
 20 21  1  0  0  0
 20 24  2  0  0  0
 21 22  1  0  0  0
 21 27  1  0  0  0
 22 23  2  0  0  0
 22 25  1  0  0  0
 23 24  1  0  0  0
 25 26  1  0  0  0
 26 27  1  0  0  0
 17 18  1  0  0  0
M  END
> <minimizedAffinity>
-10.34798

$$$$
39


 21 23  0  0  0  0  0  0  0  0999 V2000
   20.4166   80.2513   17.4333 N   0  0  0  0  0  0  0  0  0  0  0  0
   21.5207   79.4001   17.3666 C   0  0  0  0  0  0  0  0  0  0  0  0
   22.4556   79.4880   18.1753 O   0  0  0  0  0  0  0  0  0  0  0  0
   19.6663   80.0971   16.6954 H   0  0  0  0  0  0  0  0  0  0  0  0
   19.2938   79.1553   19.9974 Br  0  0  0  0  0  0  0  0  0  0  0  0
   19.6341   81.0095   19.6217 C   0  0  0  0  0  0  0  0  0  0  0  0
   20.1621   81.2939   18.3540 C   0  0  0  0  0  0  0  0  0  0  0  0
   20.3956   82.6307   18.1112 C   0  0  0  0  0  0  0  0  0  0  0  0
   20.1216   83.6111   19.0678 C   0  0  0  0  0  0  0  0  0  0  0  0
   19.6041   83.3080   20.3034 C   0  0  0  0  0  0  0  0  0  0  0  0
   19.3661   81.9787   20.5573 C   0  0  0  0  0  0  0  0  0  0  0  0
   19.3165   84.3713   21.3136 C   0  0  0  0  0  0  0  0  0  0  0  0
   21.5688   78.3743   16.3063 C   0  0  0  0  0  0  0  0  0  0  0  0
   22.2529   78.7442   15.1102 N   0  0  0  0  0  0  0  0  0  0  0  0
   21.7502   77.8832   14.0283 C   0  0  0  0  0  0  0  0  0  0  0  0
   21.9865   78.6158   12.7310 C   0  0  0  0  0  0  0  0  0  0  0  0
   23.2905   79.2639   12.8670 N   0  0  0  0  0  0  0  0  0  0  0  0
   23.0427   80.4811   13.6340 C   0  0  0  0  0  0  0  0  0  0  0  0
   22.0540   80.1432   14.7409 C   0  0  0  0  0  0  0  0  0  0  0  0
   24.1566   78.4254   13.6807 C   0  0  0  0  0  0  0  0  0  0  0  0
   23.6831   78.5161   15.1408 C   0  0  0  0  0  0  0  0  0  0  0  0
  5  6  1  0  0  0
  6  7  2  0  0  0
  6 11  1  0  0  0
  7  8  1  0  0  0
  7  1  1  0  0  0
  8  9  2  0  0  0
  9 10  1  0  0  0
 10 11  2  0  0  0
 10 12  1  0  0  0
  1  2  1  0  0  0
  2  3  2  0  0  0
  2 13  1  0  0  0
 13 14  1  0  0  0
 14 15  1  0  0  0
 14 19  1  0  0  0
 14 21  1  0  0  0
 15 16  1  0  0  0
 16 17  1  0  0  0
 17 18  1  0  0  0
 17 20  1  0  0  0
 18 19  1  0  0  0
 20 21  1  0  0  0
  1  4  1  0  0  0
M  CHG 1  14   1
M  END
> <minimizedAffinity>
-7.68682

$$$$
56


 24 27  0  0  0  0  0  0  0  0999 V2000
   21.3760   78.7184   13.1929 C   0  0  0  0  0  0  0  0  0  0  0  0
   22.0372   77.9826   14.1778 C   0  0  0  0  0  0  0  0  0  0  0  0
   23.2174   78.1532   15.0686 C   0  0  0  0  0  0  0  0  0  0  0  0
   22.4191   78.6408   16.2214 N   0  0  0  0  0  0  0  0  0  0  0  0
   21.4978   79.4276   15.7607 C   0  0  0  0  0  0  0  0  0  0  0  0
   21.6618   79.4875   14.3421 C   0  0  0  0  0  0  0  0  0  0  0  0
   20.4982   80.1090   16.5512 N   0  0  0  0  0  0  0  0  0  0  0  0
   23.7225   76.8833   15.3686 O   0  0  0  0  0  0  0  0  0  0  0  0
   25.0805   76.9186   15.1181 C   0  0  0  0  0  0  0  0  0  0  0  0
   25.3997   78.3961   15.2718 C   0  0  0  0  0  0  0  0  0  0  0  0
   24.2282   78.9415   14.6902 O   0  0  0  0  0  0  0  0  0  0  0  0
   20.7203   80.4756   17.4964 H   0  0  0  0  0  0  0  0  0  0  0  0
   19.5370   80.2446   16.1869 H   0  0  0  0  0  0  0  0  0  0  0  0
   19.7133   80.2119   10.9184 Br  0  0  0  0  0  0  0  0  0  0  0  0
   21.4960   79.5352   10.8311 C   0  0  0  0  0  0  0  0  0  0  0  0
   22.0867   78.9151   11.9029 C   0  0  0  0  0  0  0  0  0  0  0  0
   23.3753   78.4463   11.8055 C   0  0  0  0  0  0  0  0  0  0  0  0
   24.1100   78.5816   10.6355 C   0  0  0  0  0  0  0  0  0  0  0  0
   23.5380   79.1996    9.5497 C   0  0  0  0  0  0  0  0  0  0  0  0
   22.2259   79.6738    9.6582 C   0  0  0  0  0  0  0  0  0  0  0  0
   22.7284   80.4939   14.0570 C   0  0  0  0  0  0  0  0  0  0  0  0
   23.5555   81.3108   13.8357 N   0  0  0  0  0  0  0  0  0  0  0  0
   21.1184   77.0220   14.8870 C   0  0  0  0  0  0  0  0  0  0  0  0
   20.3867   76.2661   15.4244 N   0  0  0  0  0  0  0  0  0  0  0  0
 14 15  1  0  0  0
 15 16  2  0  0  0
 15 20  1  0  0  0
 16 17  1  0  0  0
 16  1  1  0  0  0
 17 18  2  0  0  0
 18 19  1  0  0  0
 19 20  2  0  0  0
  1  2  1  0  0  0
  1  6  1  0  0  0
  2  3  1  0  0  0
  2  6  1  0  0  0
  2 23  1  0  0  0
  3  4  1  0  0  0
  3  8  1  0  0  0
  3 11  1  0  0  0
  4  5  2  0  0  0
  5  6  1  0  0  0
  5  7  1  0  0  0
  6 21  1  0  0  0
 21 22  3  0  0  0
  8  9  1  0  0  0
  9 10  1  0  0  0
 10 11  1  0  0  0
 23 24  3  0  0  0
  7 12  1  0  0  0
  7 13  1  0  0  0
M  END
> <minimizedAffinity>
-7.36403

$$$$
64


 22 25  0  0  0  0  0  0  0  0999 V2000
   19.7899   81.5806   19.5659 N   0  0  0  0  0  0  0  0  0  0  0  0
   19.0433   80.4143   19.2586 C   0  0  0  0  0  0  0  0  0  0  0  0
   18.4213   79.7389   20.0976 O   0  0  0  0  0  0  0  0  0  0  0  0
   19.1024   80.1094   17.8106 C   0  0  0  0  0  0  0  0  0  0  0  0
   19.7968   78.8277   17.5066 C   0  0  0  0  0  0  0  0  0  0  0  0
   20.7883   79.1573   16.5448 O   0  0  0  0  0  0  0  0  0  0  0  0
   21.3739   80.2183   17.2832 C   0  0  0  0  0  0  0  0  0  0  0  0
   20.1402   81.1287   17.3077 C   0  0  0  0  0  0  0  0  0  0  0  0
   20.2512   82.1658   18.3443 C   0  0  0  0  0  0  0  0  0  0  0  0
   20.6612   83.3407   18.2229 O   0  0  0  0  0  0  0  0  0  0  0  0
   21.5938   79.5535   18.5850 C   0  0  0  0  0  0  0  0  0  0  0  0
   20.7183   78.5509   18.6514 C   0  0  0  0  0  0  0  0  0  0  0  0
   18.0700   84.0454   20.2708 Br  0  0  0  0  0  0  0  0  0  0  0  0
   19.4505   83.2473   21.3528 C   0  0  0  0  0  0  0  0  0  0  0  0
   20.0911   82.1452   20.8340 C   0  0  0  0  0  0  0  0  0  0  0  0
   21.0843   81.5912   21.6344 C   0  0  0  0  0  0  0  0  0  0  0  0
   21.4108   82.1094   22.8727 C   0  0  0  0  0  0  0  0  0  0  0  0
   20.7422   83.2241   23.3657 C   0  0  0  0  0  0  0  0  0  0  0  0
   19.7624   83.7770   22.5850 C   0  0  0  0  0  0  0  0  0  0  0  0
   18.9679   77.6808   17.1070 C   0  0  0  0  0  0  0  0  0  0  0  0
   19.7783   76.7880   16.3809 O   0  0  0  0  0  0  0  0  0  0  0  0
   19.9368   77.1572   15.4633 H   0  0  0  0  0  0  0  0  0  0  0  0
 13 14  1  0  0  0
 14 15  2  0  0  0
 14 19  1  0  0  0
 15 16  1  0  0  0
 15  1  1  0  0  0
 16 17  2  0  0  0
 17 18  1  0  0  0
 18 19  2  0  0  0
  1  2  1  0  0  0
  1  9  1  0  0  0
  2  3  2  0  0  0
  2  4  1  0  0  0
  4  5  1  0  0  0
  4  8  1  0  0  0
  5  6  1  0  0  0
  5 12  1  0  0  0
  5 20  1  0  0  0
  6  7  1  0  0  0
  7  8  1  0  0  0
  7 11  1  0  0  0
  8  9  1  0  0  0
  9 10  2  0  0  0
 11 12  2  0  0  0
 20 21  1  0  0  0
 21 22  1  0  0  0
M  END
> <minimizedAffinity>
-9.17402

$$$$
67


 22 25  0  0  0  0  0  0  0  0999 V2000
   22.7091   78.6297   14.2434 N   0  0  0  0  0  0  0  0  0  0  0  0
   24.1598   78.3824   14.1363 C   0  0  0  0  0  0  0  0  0  0  0  0
   24.5967   78.6025   15.5090 C   0  0  0  0  0  0  0  0  0  0  0  0
   24.4895   77.5010   16.3748 O   0  0  0  0  0  0  0  0  0  0  0  0
   24.8114   78.2164   17.5589 C   0  0  0  0  0  0  0  0  0  0  0  0
   23.6078   79.1687   17.5480 C   0  0  0  0  0  0  0  0  0  0  0  0
   23.6790   79.6652   16.1377 C   0  0  0  0  0  0  0  0  0  0  0  0
   22.4796   79.5195   15.3295 C   0  0  0  0  0  0  0  0  0  0  0  0
   21.3874   80.0869   15.5388 O   0  0  0  0  0  0  0  0  0  0  0  0
   26.0664   78.9012   17.1305 C   0  0  0  0  0  0  0  0  0  0  0  0
   25.9650   79.0269   15.7884 C   0  0  0  0  0  0  0  0  0  0  0  0
   22.2814   80.0997   11.4731 Br  0  0  0  0  0  0  0  0  0  0  0  0
   21.3674   78.6122   12.1840 C   0  0  0  0  0  0  0  0  0  0  0  0
   21.6836   78.0882   13.4255 C   0  0  0  0  0  0  0  0  0  0  0  0
   20.9286   76.9910   13.8210 C   0  0  0  0  0  0  0  0  0  0  0  0
   19.9300   76.4422   13.0564 C   0  0  0  0  0  0  0  0  0  0  0  0
   19.6356   76.9710   11.8398 C   0  0  0  0  0  0  0  0  0  0  0  0
   20.3516   78.0540   11.4047 C   0  0  0  0  0  0  0  0  0  0  0  0
   22.4156   78.2802   17.7262 C   0  0  0  0  0  0  0  0  0  0  0  0
   22.3346   77.1523   17.2188 O   0  0  0  0  0  0  0  0  0  0  0  0
   21.3547   78.7441   18.4937 O   0  0  0  0  0  0  0  0  0  0  0  0
   20.1715   77.9411   18.5820 C   0  0  0  0  0  0  0  0  0  0  0  0
 12 13  1  0  0  0
 13 14  2  0  0  0
 13 18  1  0  0  0
 14 15  1  0  0  0
 14  1  1  0  0  0
 15 16  2  0  0  0
 16 17  1  0  0  0
 17 18  2  0  0  0
  1  2  1  0  0  0
  1  8  1  0  0  0
  2  3  1  0  0  0
  3  4  1  0  0  0
  3  7  1  0  0  0
  3 11  1  0  0  0
  4  5  1  0  0  0
  5  6  1  0  0  0
  5 10  1  0  0  0
  6  7  1  0  0  0
  6 19  1  0  0  0
  7  8  1  0  0  0
  8  9  2  0  0  0
 19 20  2  0  0  0
 19 21  1  0  0  0
 21 22  1  0  0  0
 10 11  2  0  0  0
M  END
> <minimizedAffinity>
-8.62996

$$$$
81


 22 25  0  0  0  0  0  0  0  0999 V2000
   21.0192   80.5836   16.9447 C   0  0  0  0  0  0  0  0  0  0  0  0
   20.7049   79.8909   18.0544 N   0  0  0  0  0  0  0  0  0  0  0  0
   20.2772   80.7332   18.9969 N   0  0  0  0  0  0  0  0  0  0  0  0
   20.3088   81.9890   18.5064 C   0  0  0  0  0  0  0  0  0  0  0  0
   20.7677   81.8695   17.2468 N   0  0  0  0  0  0  0  0  0  0  0  0
   19.9069   83.0373   19.3115 C   0  0  0  0  0  0  0  0  0  0  0  0
   19.4704   82.8476   20.6071 C   0  0  0  0  0  0  0  0  0  0  0  0
   19.1406   84.0306   21.1629 N   0  0  0  0  0  0  0  0  0  0  0  0
   19.3565   84.9619   20.2542 N   0  0  0  0  0  0  0  0  0  0  0  0
   19.8273   84.3989   19.1024 C   0  0  0  0  0  0  0  0  0  0  0  0
   18.6382   84.2831   22.5037 C   0  0  0  0  0  0  0  0  0  0  0  0
   19.4546   81.5801   21.0577 N   0  0  0  0  0  0  0  0  0  0  0  0
   19.8515   80.5532   20.2599 C   0  0  0  0  0  0  0  0  0  0  0  0
   21.5401   80.0344   15.6450 C   0  0  0  0  0  0  0  0  0  0  0  0
   25.3651   76.2918   15.3135 Br  0  0  0  0  0  0  0  0  0  0  0  0
   24.3756   77.8613   15.7176 C   0  0  0  0  0  0  0  0  0  0  0  0
   23.0963   78.1492   15.3181 C   0  0  0  0  0  0  0  0  0  0  0  0
   22.8006   79.3530   15.8280 N   0  0  0  0  0  0  0  0  0  0  0  0
   23.8330   79.8042   16.5131 N   0  0  0  0  0  0  0  0  0  0  0  0
   24.8426   78.9052   16.4724 C   0  0  0  0  0  0  0  0  0  0  0  0
   26.1927   79.0449   17.1284 C   0  0  0  0  0  0  0  0  0  0  0  0
   22.2344   77.2602   14.4749 C   0  0  0  0  0  0  0  0  0  0  0  0
 15 16  1  0  0  0
 16 17  2  0  0  0
 16 20  1  0  0  0
 17 18  1  0  0  0
 17 22  1  0  0  0
 18 19  1  0  0  0
 18 14  1  0  0  0
 19 20  2  0  0  0
 20 21  1  0  0  0
 14  1  1  0  0  0
  1  2  2  0  0  0
  1  5  1  0  0  0
  2  3  1  0  0  0
  3  4  1  0  0  0
  3 13  1  0  0  0
  4  5  2  0  0  0
  4  6  1  0  0  0
  6  7  2  0  0  0
  6 10  1  0  0  0
  7  8  1  0  0  0
  7 12  1  0  0  0
  8  9  1  0  0  0
  8 11  1  0  0  0
  9 10  2  0  0  0
 12 13  2  0  0  0
M  END
> <minimizedAffinity>
-8.72931

$$$$
85


 26 29  0  0  0  0  0  0  0  0999 V2000
   19.9545   78.2593   10.1502 C   0  0  0  0  0  0  0  0  0  0  0  0
   20.0294   77.6505   11.4195 C   0  0  0  0  0  0  0  0  0  0  0  0
   19.2970   76.6410   11.9632 N   0  0  0  0  0  0  0  0  0  0  0  0
   19.7529   76.4420   13.1624 O   0  0  0  0  0  0  0  0  0  0  0  0
   20.7275   77.2570   13.4216 N   0  0  0  0  0  0  0  0  0  0  0  0
   20.9459   78.0425   12.3591 C   0  0  0  0  0  0  0  0  0  0  0  0
   21.8542   79.0556   12.1280 C   0  0  0  0  0  0  0  0  0  0  0  0
   21.7776   79.6503   10.8828 C   0  0  0  0  0  0  0  0  0  0  0  0
   20.8495   79.2594    9.9195 C   0  0  0  0  0  0  0  0  0  0  0  0
   22.8004   79.4699   13.0828 N   0  0  0  0  0  0  0  0  0  0  0  0
   23.7179   78.4735   13.6290 C   0  0  0  0  0  0  0  0  0  0  0  0
   24.5415   79.0351   14.7549 C   0  0  0  0  0  0  0  0  0  0  0  0
   23.8969   79.8709   15.6056 O   0  0  0  0  0  0  0  0  0  0  0  0
   22.8730   80.6320   15.1224 C   0  0  0  0  0  0  0  0  0  0  0  0
   23.0074   80.7802   13.6212 C   0  0  0  0  0  0  0  0  0  0  0  0
   19.1719   77.4536    7.9197 C   0  0  0  0  0  0  0  0  0  0  0  0
   20.3414   77.5936    7.4003 O   0  0  0  0  0  0  0  0  0  0  0  0
   18.9659   77.7705    9.2594 N   0  0  0  0  0  0  0  0  0  0  0  0
   17.9764   77.6103    9.6170 H   0  0  0  0  0  0  0  0  0  0  0  0
   16.4645   79.4016    6.8241 Br  0  0  0  0  0  0  0  0  0  0  0  0
   17.0163   77.5948    6.5459 C   0  0  0  0  0  0  0  0  0  0  0  0
   18.1124   76.9512    7.0201 C   0  0  0  0  0  0  0  0  0  0  0  0
   18.0992   75.6616    6.5370 N   0  0  0  0  0  0  0  0  0  0  0  0
   17.0258   75.5480    5.8004 N   0  0  0  0  0  0  0  0  0  0  0  0
   16.3136   76.6679    5.7503 C   0  0  0  0  0  0  0  0  0  0  0  0
   19.0792   74.6399    6.7977 C   0  0  0  0  0  0  0  0  0  0  0  0
 20 21  1  0  0  0
 21 22  2  0  0  0
 21 25  1  0  0  0
 22 23  1  0  0  0
 22 16  1  0  0  0
 23 24  1  0  0  0
 23 26  1  0  0  0
 24 25  2  0  0  0
 16 17  2  0  0  0
 16 18  1  0  0  0
 18  1  1  0  0  0
  1  2  1  0  0  0
  1  9  2  0  0  0
  2  3  2  0  0  0
  2  6  1  0  0  0
  3  4  1  0  0  0
  4  5  1  0  0  0
  5  6  2  0  0  0
  6  7  1  0  0  0
  7  8  2  0  0  0
  7 10  1  0  0  0
  8  9  1  0  0  0
 10 11  1  0  0  0
 10 15  1  0  0  0
 11 12  1  0  0  0
 12 13  1  0  0  0
 13 14  1  0  0  0
 14 15  1  0  0  0
 18 19  1  0  0  0
M  END
> <minimizedAffinity>
-8.41875

$$$$
95


 26 29  0  0  0  0  0  0  0  0999 V2000
   21.0520   77.0055   14.7171 C   0  0  0  0  0  0  0  0  0  0  0  0
   20.9707   75.7879   14.3531 O   0  0  0  0  0  0  0  0  0  0  0  0
   20.6612   77.5162   15.9316 N   0  0  0  0  0  0  0  0  0  0  0  0
   20.2564   76.2806   16.3357 H   0  0  0  0  0  0  0  0  0  0  0  0
   20.4737   79.9455   10.2664 Br  0  0  0  0  0  0  0  0  0  0  0  0
   21.4878   79.2826   11.7209 C   0  0  0  0  0  0  0  0  0  0  0  0
   20.8869   78.4198   12.6453 C   0  0  0  0  0  0  0  0  0  0  0  0
   21.6376   77.9488   13.6920 C   0  0  0  0  0  0  0  0  0  0  0  0
   22.9505   78.3103   13.8400 C   0  0  0  0  0  0  0  0  0  0  0  0
   23.5586   79.1750   12.9140 C   0  0  0  0  0  0  0  0  0  0  0  0
   22.8039   79.6496   11.8604 C   0  0  0  0  0  0  0  0  0  0  0  0
   23.6621   77.7914   14.9489 N   0  0  0  0  0  0  0  0  0  0  0  0
   24.2430   76.6071   14.9575 N   0  0  0  0  0  0  0  0  0  0  0  0
   24.8310   76.3826   16.1132 N   0  0  0  0  0  0  0  0  0  0  0  0
   24.6361   77.4388   16.8858 N   0  0  0  0  0  0  0  0  0  0  0  0
   23.9153   78.3021   16.1631 C   0  0  0  0  0  0  0  0  0  0  0  0
   20.2724   78.0233   17.1393 C   0  0  0  0  0  0  0  0  0  0  0  0
   20.5014   79.5187   17.2844 C   0  0  0  0  0  0  0  0  0  0  0  0
   20.0622   80.2736   18.3151 N   0  0  0  0  0  0  0  0  0  0  0  0
   20.4299   81.5498   18.1433 C   0  0  0  0  0  0  0  0  0  0  0  0
   21.1092   81.5807   16.9861 N   0  0  0  0  0  0  0  0  0  0  0  0
   21.1538   80.3472   16.4618 N   0  0  0  0  0  0  0  0  0  0  0  0
   20.0876   82.5249   19.0896 C   0  0  0  0  0  0  0  0  0  0  0  0
   19.3716   82.1825   20.2028 C   0  0  0  0  0  0  0  0  0  0  0  0
   18.9928   80.8665   20.3796 C   0  0  0  0  0  0  0  0  0  0  0  0
   19.3476   79.9266   19.4229 C   0  0  0  0  0  0  0  0  0  0  0  0
  5  6  1  0  0  0
  6  7  2  0  0  0
  6 11  1  0  0  0
  7  8  1  0  0  0
  8  9  2  0  0  0
  8  1  1  0  0  0
  9 10  1  0  0  0
  9 12  1  0  0  0
 10 11  2  0  0  0
 12 13  1  0  0  0
 12 16  1  0  0  0
 13 14  2  0  0  0
 14 15  1  0  0  0
 15 16  2  0  0  0
  1  2  2  0  0  0
  1  3  1  0  0  0
  3 17  1  0  0  0
 17 18  1  0  0  0
 18 19  1  0  0  0
 18 22  2  0  0  0
 19 20  1  0  0  0
 19 26  1  0  0  0
 20 21  2  0  0  0
 20 23  1  0  0  0
 21 22  1  0  0  0
 23 24  2  0  0  0
 24 25  1  0  0  0
 25 26  2  0  0  0
  3  4  1  0  0  0
M  END
> <minimizedAffinity>
-9.08210

$$$$
106


 29 32  0  0  0  0  0  0  0  0999 V2000
   19.4801   75.5784   14.2086 C   0  0  0  0  0  0  0  0  0  0  0  0
   20.1621   76.5949   14.6590 C   0  0  0  0  0  0  0  0  0  0  0  0
   20.7906   77.5355   13.8580 O   0  0  0  0  0  0  0  0  0  0  0  0
   21.4400   78.4986   14.6075 C   0  0  0  0  0  0  0  0  0  0  0  0
   21.2816   78.2528   15.9524 C   0  0  0  0  0  0  0  0  0  0  0  0
   21.8523   79.0958   16.8825 C   0  0  0  0  0  0  0  0  0  0  0  0
   22.5825   80.1836   16.4530 C   0  0  0  0  0  0  0  0  0  0  0  0
   22.7301   80.4125   15.0707 C   0  0  0  0  0  0  0  0  0  0  0  0
   22.1748   79.5952   14.1347 C   0  0  0  0  0  0  0  0  0  0  0  0
   23.4977   81.5524   14.7835 O   0  0  0  0  0  0  0  0  0  0  0  0
   20.4646   77.0367   16.0238 C   0  0  0  0  0  0  0  0  0  0  0  0
   20.0824   76.4606   17.0662 O   0  0  0  0  0  0  0  0  0  0  0  0
   19.4105   77.0854    9.0330 Br  0  0  0  0  0  0  0  0  0  0  0  0
   19.1964   75.8573   10.4733 C   0  0  0  0  0  0  0  0  0  0  0  0
   19.4168   76.1482   11.7887 C   0  0  0  0  0  0  0  0  0  0  0  0
   19.2543   75.2417   12.8132 C   0  0  0  0  0  0  0  0  0  0  0  0
   18.8375   73.9550   12.4588 C   0  0  0  0  0  0  0  0  0  0  0  0
   18.6024   73.6065   11.1572 C   0  0  0  0  0  0  0  0  0  0  0  0
   18.7836   74.5640   10.1662 C   0  0  0  0  0  0  0  0  0  0  0  0
   18.6621   73.0281   13.4678 O   0  0  0  0  0  0  0  0  0  0  0  0
   18.0882   71.7777   13.1909 C   0  0  0  0  0  0  0  0  0  0  0  0
   22.2757   79.7903   12.7145 C   0  0  0  0  0  0  0  0  0  0  0  0
   21.4585   79.1157   11.7913 N   0  0  0  0  0  0  0  0  0  0  0  0
   20.3770   79.8819   11.2345 C   0  0  0  0  0  0  0  0  0  0  0  0
   20.7788   80.7673   10.0809 C   0  0  0  0  0  0  0  0  0  0  0  0
   22.1457   80.7787    9.8397 O   0  0  0  0  0  0  0  0  0  0  0  0
   22.5069   79.4624    9.5731 C   0  0  0  0  0  0  0  0  0  0  0  0
   22.2329   78.5117   10.6918 C   0  0  0  0  0  0  0  0  0  0  0  0
   21.0418   78.2803   12.2514 H   0  0  0  0  0  0  0  0  0  0  0  0
 13 14  1  0  0  0
 14 15  2  0  0  0
 14 19  1  0  0  0
 15 16  1  0  0  0
 16 17  2  0  0  0
 16  1  1  0  0  0
 17 18  1  0  0  0
 17 20  1  0  0  0
 18 19  2  0  0  0
 20 21  1  0  0  0
  1  2  2  0  0  0
  2  3  1  0  0  0
  2 11  1  0  0  0
  3  4  1  0  0  0
  4  5  2  0  0  0
  4  9  1  0  0  0
  5  6  1  0  0  0
  5 11  1  0  0  0
  6  7  2  0  0  0
  7  8  1  0  0  0
  8  9  2  0  0  0
  8 10  1  0  0  0
  9 22  1  0  0  0
 22 23  1  0  0  0
 23 24  1  0  0  0
 23 28  1  0  0  0
 24 25  1  0  0  0
 25 26  1  0  0  0
 26 27  1  0  0  0
 27 28  1  0  0  0
 11 12  2  0  0  0
 23 29  1  0  0  0
M  CHG 1  10  -1
M  CHG 1  23   1
M  END
> <minimizedAffinity>
-9.75834

$$$$
107


 31 34  0  0  0  0  0  0  0  0999 V2000
   19.9015   77.0955   11.6147 C   0  0  0  0  0  0  0  0  0  0  0  0
   19.7989   77.0177   10.2703 N   0  0  0  0  0  0  0  0  0  0  0  0
   19.2878   75.9387    9.6664 C   0  0  0  0  0  0  0  0  0  0  0  0
   18.8713   74.9162   10.4296 N   0  0  0  0  0  0  0  0  0  0  0  0
   18.9439   74.9267   11.7875 C   0  0  0  0  0  0  0  0  0  0  0  0
   19.4749   76.0559   12.3322 N   0  0  0  0  0  0  0  0  0  0  0  0
   19.1809   75.8563    8.2520 N   0  0  0  0  0  0  0  0  0  0  0  0
   18.5974   76.9135    7.4561 C   0  0  0  0  0  0  0  0  0  0  0  0
   17.6967   76.3504    6.3672 C   0  0  0  0  0  0  0  0  0  0  0  0
   18.3179   75.2732    5.7253 O   0  0  0  0  0  0  0  0  0  0  0  0
   18.5764   74.2420    6.5963 C   0  0  0  0  0  0  0  0  0  0  0  0
   19.6629   74.6873    7.5510 C   0  0  0  0  0  0  0  0  0  0  0  0
   18.5058   73.8517   12.5817 N   0  0  0  0  0  0  0  0  0  0  0  0
   19.4328   72.9259   13.1610 C   0  0  0  0  0  0  0  0  0  0  0  0
   18.9783   71.5258   12.7540 C   0  0  0  0  0  0  0  0  0  0  0  0
   17.6676   71.3869   13.1764 O   0  0  0  0  0  0  0  0  0  0  0  0
   16.7940   72.2029   12.4971 C   0  0  0  0  0  0  0  0  0  0  0  0
   17.1054   73.6637   12.8237 C   0  0  0  0  0  0  0  0  0  0  0  0
   20.4389   78.2269   12.2888 N   0  0  0  0  0  0  0  0  0  0  0  0
   20.2722   79.2049   11.9268 H   0  0  0  0  0  0  0  0  0  0  0  0
   21.6412   79.1223   14.1146 C   0  0  0  0  0  0  0  0  0  0  0  0
   21.2063   78.1193   13.4497 N   0  0  0  0  0  0  0  0  0  0  0  0
   26.4602   79.0851   16.4042 Br  0  0  0  0  0  0  0  0  0  0  0  0
   24.5590   78.9575   16.4469 C   0  0  0  0  0  0  0  0  0  0  0  0
   23.8128   79.0836   15.2963 C   0  0  0  0  0  0  0  0  0  0  0  0
   22.4424   78.9909   15.3263 C   0  0  0  0  0  0  0  0  0  0  0  0
   21.8338   78.7674   16.5422 C   0  0  0  0  0  0  0  0  0  0  0  0
   22.5788   78.6383   17.7170 C   0  0  0  0  0  0  0  0  0  0  0  0
   23.9606   78.7323   17.6802 C   0  0  0  0  0  0  0  0  0  0  0  0
   20.4467   78.6786   16.5442 O   0  0  0  0  0  0  0  0  0  0  0  0
   19.7322   77.5798   17.0603 C   0  0  0  0  0  0  0  0  0  0  0  0
 23 24  1  0  0  0
 24 25  2  0  0  0
 24 29  1  0  0  0
 25 26  1  0  0  0
 26 27  2  0  0  0
 26 21  1  0  0  0
 27 28  1  0  0  0
 27 30  1  0  0  0
 28 29  2  0  0  0
 30 31  1  0  0  0
 21 22  2  0  0  0
 22 19  1  0  0  0
 19  1  1  0  0  0
  1  2  2  0  0  0
  1  6  1  0  0  0
  2  3  1  0  0  0
  3  4  2  0  0  0
  3  7  1  0  0  0
  4  5  1  0  0  0
  5  6  2  0  0  0
  5 13  1  0  0  0
 13 14  1  0  0  0
 13 18  1  0  0  0
 14 15  1  0  0  0
 15 16  1  0  0  0
 16 17  1  0  0  0
 17 18  1  0  0  0
  7  8  1  0  0  0
  7 12  1  0  0  0
  8  9  1  0  0  0
  9 10  1  0  0  0
 10 11  1  0  0  0
 11 12  1  0  0  0
 19 20  1  0  0  0
M  END
> <minimizedAffinity>
-9.67457

$$$$
111


 29 32  0  0  0  0  0  0  0  0999 V2000
   20.7220   77.1085   14.8996 C   0  0  0  0  0  0  0  0  0  0  0  0
   20.4996   77.1945   13.6060 N   0  0  0  0  0  0  0  0  0  0  0  0
   19.7828   76.1110   13.1690 C   0  0  0  0  0  0  0  0  0  0  0  0
   19.5705   75.3321   14.2541 N   0  0  0  0  0  0  0  0  0  0  0  0
   20.1151   75.9019   15.2747 N   0  0  0  0  0  0  0  0  0  0  0  0
   19.5668   76.2139   11.8557 N   0  0  0  0  0  0  0  0  0  0  0  0
   20.1465   77.3555   11.4507 C   0  0  0  0  0  0  0  0  0  0  0  0
   20.7446   77.9900   12.5336 C   0  0  0  0  0  0  0  0  0  0  0  0
   21.4083   79.1242   12.4184 N   0  0  0  0  0  0  0  0  0  0  0  0
   21.4818   79.6710   11.1644 C   0  0  0  0  0  0  0  0  0  0  0  0
   22.0869   80.7500   10.9411 O   0  0  0  0  0  0  0  0  0  0  0  0
   20.9100   79.0859   10.0910 N   0  0  0  0  0  0  0  0  0  0  0  0
   20.2454   77.9419   10.2033 C   0  0  0  0  0  0  0  0  0  0  0  0
   19.6921   77.3482    9.2432 O   0  0  0  0  0  0  0  0  0  0  0  0
   22.1365   79.8479   13.4162 C   0  0  0  0  0  0  0  0  0  0  0  0
   20.9737   79.5152    9.1441 H   0  0  0  0  0  0  0  0  0  0  0  0
   20.5215   80.5633   18.9844 Br  0  0  0  0  0  0  0  0  0  0  0  0
   21.4856   79.4065   17.8139 C   0  0  0  0  0  0  0  0  0  0  0  0
   20.8172   78.7115   16.8483 C   0  0  0  0  0  0  0  0  0  0  0  0
   21.3654   77.8533   15.9441 C   0  0  0  0  0  0  0  0  0  0  0  0
   22.7664   77.7256   16.0863 C   0  0  0  0  0  0  0  0  0  0  0  0
   23.4806   78.4060   17.0433 C   0  0  0  0  0  0  0  0  0  0  0  0
   22.8369   79.2615   17.9238 C   0  0  0  0  0  0  0  0  0  0  0  0
   23.4478   76.8819   15.2263 O   0  0  0  0  0  0  0  0  0  0  0  0
   24.8337   76.7388   15.1956 C   0  0  0  0  0  0  0  0  0  0  0  0
   18.8556   75.2976   11.0134 C   0  0  0  0  0  0  0  0  0  0  0  0
   18.7006   73.9718   11.7288 C   0  0  0  0  0  0  0  0  0  0  0  0
   17.3794   73.8359   12.1069 O   0  0  0  0  0  0  0  0  0  0  0  0
   17.1661   72.6476   12.8267 C   0  0  0  0  0  0  0  0  0  0  0  0
 17 18  1  0  0  0
 18 19  2  0  0  0
 18 23  1  0  0  0
 19 20  1  0  0  0
 20 21  2  0  0  0
 20  1  1  0  0  0
 21 22  1  0  0  0
 21 24  1  0  0  0
 22 23  2  0  0  0
 24 25  1  0  0  0
  1  2  1  0  0  0
  1  5  2  0  0  0
  2  3  1  0  0  0
  2  8  1  0  0  0
  3  4  2  0  0  0
  3  6  1  0  0  0
  4  5  1  0  0  0
  6  7  1  0  0  0
  6 26  1  0  0  0
  7  8  2  0  0  0
  7 13  1  0  0  0
  8  9  1  0  0  0
  9 10  1  0  0  0
  9 15  1  0  0  0
 10 11  2  0  0  0
 10 12  1  0  0  0
 12 13  1  0  0  0
 13 14  2  0  0  0
 26 27  1  0  0  0
 27 28  1  0  0  0
 28 29  1  0  0  0
 12 16  1  0  0  0
M  END
> <minimizedAffinity>
-9.12947

$$$$
127


 29 32  0  0  0  0  0  0  0  0999 V2000
   21.1514   78.9177   10.9283 N   0  0  0  0  0  0  0  0  0  0  0  0
   21.1621   79.6035    9.6900 C   0  0  0  0  0  0  0  0  0  0  0  0
   20.5780   78.8785    8.5388 C   0  0  0  0  0  0  0  0  0  0  0  0
   19.2689   78.3960    8.8421 N   0  0  0  0  0  0  0  0  0  0  0  0
   18.9026   78.2297   10.2192 C   0  0  0  0  0  0  0  0  0  0  0  0
   20.0774   78.0122   11.1444 C   0  0  0  0  0  0  0  0  0  0  0  0
   18.3332   78.0519    7.8310 C   0  0  0  0  0  0  0  0  0  0  0  0
   18.3952   76.8266    7.3132 C   0  0  0  0  0  0  0  0  0  0  0  0
   19.2127   75.6886    7.5210 N   0  0  0  0  0  0  0  0  0  0  0  0
   18.7242   74.7131    6.6222 N   0  0  0  0  0  0  0  0  0  0  0  0
   17.6407   75.2595    5.8952 C   0  0  0  0  0  0  0  0  0  0  0  0
   17.4018   76.5087    6.2641 C   0  0  0  0  0  0  0  0  0  0  0  0
   16.4523   77.4905    5.8633 N   0  0  0  0  0  0  0  0  0  0  0  0
   16.4346   78.6616    6.3967 C   0  0  0  0  0  0  0  0  0  0  0  0
   17.3553   79.0209    7.3996 N   0  0  0  0  0  0  0  0  0  0  0  0
   16.8375   74.5749    4.8474 C   0  0  0  0  0  0  0  0  0  0  0  0
   20.3077   75.5590    8.4515 C   0  0  0  0  0  0  0  0  0  0  0  0
   19.1470   73.7634    6.5606 H   0  0  0  0  0  0  0  0  0  0  0  0
   17.3807   79.9483    7.8571 H   0  0  0  0  0  0  0  0  0  0  0  0
   21.6062   79.6344   12.0546 C   0  0  0  0  0  0  0  0  0  0  0  0
   22.8622   79.1348   12.6170 C   0  0  0  0  0  0  0  0  0  0  0  0
   23.7060   78.6022   11.8511 O   0  0  0  0  0  0  0  0  0  0  0  0
   26.3616   78.9738   16.6478 Br  0  0  0  0  0  0  0  0  0  0  0  0
   24.6163   79.2138   15.9294 C   0  0  0  0  0  0  0  0  0  0  0  0
   24.3554   79.0948   14.5702 C   0  0  0  0  0  0  0  0  0  0  0  0
   23.0994   79.2683   14.0506 C   0  0  0  0  0  0  0  0  0  0  0  0
   22.0615   79.5699   14.9016 C   0  0  0  0  0  0  0  0  0  0  0  0
   22.3127   79.6888   16.2451 C   0  0  0  0  0  0  0  0  0  0  0  0
   23.5802   79.5154   16.7859 C   0  0  0  0  0  0  0  0  0  0  0  0
 23 24  1  0  0  0
 24 25  2  0  0  0
 24 29  1  0  0  0
 25 26  1  0  0  0
 26 27  2  0  0  0
 26 21  1  0  0  0
 27 28  1  0  0  0
 28 29  2  0  0  0
 21 22  2  0  0  0
 21 20  1  0  0  0
 20  1  1  0  0  0
  1  2  1  0  0  0
  1  6  1  0  0  0
  2  3  1  0  0  0
  3  4  1  0  0  0
  4  5  1  0  0  0
  4  7  1  0  0  0
  5  6  1  0  0  0
  7  8  2  0  0  0
  7 15  1  0  0  0
  8  9  1  0  0  0
  8 12  1  0  0  0
  9 10  1  0  0  0
  9 17  1  0  0  0
 10 11  1  0  0  0
 11 12  2  0  0  0
 11 16  1  0  0  0
 12 13  1  0  0  0
 13 14  2  0  0  0
 14 15  1  0  0  0
 10 18  1  0  0  0
 15 19  1  0  0  0
M  END
> <minimizedAffinity>
-8.86352

$$$$
129


 31 34  0  0  0  0  0  0  0  0999 V2000
   22.5153   78.2565   15.7964 C   0  0  0  0  0  0  0  0  0  0  0  0
   22.4933   77.0717   16.2552 O   0  0  0  0  0  0  0  0  0  0  0  0
   21.8970   78.5607   14.5496 N   0  0  0  0  0  0  0  0  0  0  0  0
   22.0344   79.8431   13.9074 C   0  0  0  0  0  0  0  0  0  0  0  0
   22.8304   79.5021   12.6249 C   0  0  0  0  0  0  0  0  0  0  0  0
   21.8352   78.8105   11.7324 C   0  0  0  0  0  0  0  0  0  0  0  0
   22.6103   78.1477   10.6850 N   0  0  0  0  0  0  0  0  0  0  0  0
   23.4397   79.0328    9.9561 C   0  0  0  0  0  0  0  0  0  0  0  0
   22.6600   80.0768    9.1777 C   0  0  0  0  0  0  0  0  0  0  0  0
   21.4294   80.4809    9.8832 C   0  0  0  0  0  0  0  0  0  0  0  0
   20.5254   81.4162    9.5472 N   0  0  0  0  0  0  0  0  0  0  0  0
   19.5698   81.4132   10.5026 C   0  0  0  0  0  0  0  0  0  0  0  0
   19.8975   80.4716   11.4234 N   0  0  0  0  0  0  0  0  0  0  0  0
   21.0521   79.8761   11.0666 C   0  0  0  0  0  0  0  0  0  0  0  0
   20.9849   77.7861   12.3972 C   0  0  0  0  0  0  0  0  0  0  0  0
   21.1190   77.5886   13.8687 C   0  0  0  0  0  0  0  0  0  0  0  0
   22.0066   77.5490   10.0656 H   0  0  0  0  0  0  0  0  0  0  0  0
   19.2689   80.3242   12.2384 H   0  0  0  0  0  0  0  0  0  0  0  0
   23.2092   79.2547   16.5971 C   0  0  0  0  0  0  0  0  0  0  0  0
   24.3361   78.5951   17.3761 C   0  0  0  0  0  0  0  0  0  0  0  0
   21.3948   79.6266   18.2663 C   0  0  0  0  0  0  0  0  0  0  0  0
   21.1074   78.4941   18.6128 O   0  0  0  0  0  0  0  0  0  0  0  0
   22.3553   80.0822   17.3682 N   0  0  0  0  0  0  0  0  0  0  0  0
   22.5189   81.1291   17.2683 H   0  0  0  0  0  0  0  0  0  0  0  0
   20.3104   84.8339   18.2378 Br  0  0  0  0  0  0  0  0  0  0  0  0
   20.0736   83.0575   18.9449 C   0  0  0  0  0  0  0  0  0  0  0  0
   20.7621   82.0073   18.3855 C   0  0  0  0  0  0  0  0  0  0  0  0
   20.5811   80.7371   18.8886 C   0  0  0  0  0  0  0  0  0  0  0  0
   19.7359   80.5174   19.9287 C   0  0  0  0  0  0  0  0  0  0  0  0
   19.0624   81.5761   20.4734 C   0  0  0  0  0  0  0  0  0  0  0  0
   19.2044   82.8829   20.0019 C   0  0  0  0  0  0  0  0  0  0  0  0
 25 26  1  0  0  0
 26 27  2  0  0  0
 26 31  1  0  0  0
 27 28  1  0  0  0
 28 29  2  0  0  0
 28 21  1  0  0  0
 29 30  1  0  0  0
 30 31  2  0  0  0
 21 22  2  0  0  0
 21 23  1  0  0  0
 23 19  1  0  0  0
 19 20  1  0  0  0
 19  1  1  0  0  0
  1  2  2  0  0  0
  1  3  1  0  0  0
  3  4  1  0  0  0
  3 16  1  0  0  0
  4  5  1  0  0  0
  5  6  1  0  0  0
  6  7  1  0  0  0
  6 14  1  0  0  0
  6 15  1  0  0  0
  7  8  1  0  0  0
  8  9  1  0  0  0
  9 10  1  0  0  0
 10 11  1  0  0  0
 10 14  2  0  0  0
 11 12  2  0  0  0
 12 13  1  0  0  0
 13 14  1  0  0  0
 15 16  1  0  0  0
 23 24  1  0  0  0
  7 17  1  0  0  0
 13 18  1  0  0  0
M  END
> <minimizedAffinity>
-9.33123

$$$$
130


 30 33  0  0  0  0  0  0  0  0999 V2000
   20.1520   79.3443   18.5861 C   0  0  0  0  0  0  0  0  0  0  0  0
   20.6277   79.5887   19.7506 O   0  0  0  0  0  0  0  0  0  0  0  0
   20.5958   78.2507   17.8305 N   0  0  0  0  0  0  0  0  0  0  0  0
   20.0921   77.9502   16.5286 C   0  0  0  0  0  0  0  0  0  0  0  0
   21.1461   77.3978   15.6114 C   0  0  0  0  0  0  0  0  0  0  0  0
   22.5687   77.7301   16.0050 C   0  0  0  0  0  0  0  0  0  0  0  0
   23.3740   76.8571   15.1618 N   0  0  0  0  0  0  0  0  0  0  0  0
   24.7659   77.0992   15.1647 C   0  0  0  0  0  0  0  0  0  0  0  0
   25.2427   78.4129   15.6656 C   0  0  0  0  0  0  0  0  0  0  0  0
   24.2137   79.4831   15.4804 C   0  0  0  0  0  0  0  0  0  0  0  0
   24.3199   80.7743   15.1695 N   0  0  0  0  0  0  0  0  0  0  0  0
   23.0574   81.2501   15.1389 C   0  0  0  0  0  0  0  0  0  0  0  0
   22.1787   80.2656   15.4286 N   0  0  0  0  0  0  0  0  0  0  0  0
   22.8995   79.1285   15.6507 C   0  0  0  0  0  0  0  0  0  0  0  0
   22.8735   77.4826   17.4601 C   0  0  0  0  0  0  0  0  0  0  0  0
   21.6320   77.3503   18.3232 C   0  0  0  0  0  0  0  0  0  0  0  0
   23.1443   75.8835   15.5139 H   0  0  0  0  0  0  0  0  0  0  0  0
   21.1508   80.3675   15.4721 H   0  0  0  0  0  0  0  0  0  0  0  0
   19.1004   80.3199   18.1232 C   0  0  0  0  0  0  0  0  0  0  0  0
   19.7410   82.8655   18.7918 C   0  0  0  0  0  0  0  0  0  0  0  0
   20.2491   83.7819   18.0543 O   0  0  0  0  0  0  0  0  0  0  0  0
   19.4283   81.6223   18.4655 N   0  0  0  0  0  0  0  0  0  0  0  0
   19.8780   81.8338   17.1742 H   0  0  0  0  0  0  0  0  0  0  0  0
   20.9408   82.4670   23.9784 Br  0  0  0  0  0  0  0  0  0  0  0  0
   19.9328   83.1970   22.5601 C   0  0  0  0  0  0  0  0  0  0  0  0
   20.1980   82.8000   21.2583 C   0  0  0  0  0  0  0  0  0  0  0  0
   19.4875   83.3147   20.2065 C   0  0  0  0  0  0  0  0  0  0  0  0
   18.4948   84.2321   20.3779 C   0  0  0  0  0  0  0  0  0  0  0  0
   18.2204   84.6373   21.6878 C   0  0  0  0  0  0  0  0  0  0  0  0
   18.9346   84.1198   22.7522 C   0  0  0  0  0  0  0  0  0  0  0  0
 24 25  1  0  0  0
 25 26  2  0  0  0
 25 30  1  0  0  0
 26 27  1  0  0  0
 27 28  2  0  0  0
 27 20  1  0  0  0
 28 29  1  0  0  0
 29 30  2  0  0  0
 20 21  2  0  0  0
 20 22  1  0  0  0
 22 19  1  0  0  0
 19  1  1  0  0  0
  1  2  2  0  0  0
  1  3  1  0  0  0
  3  4  1  0  0  0
  3 16  1  0  0  0
  4  5  1  0  0  0
  5  6  1  0  0  0
  6  7  1  0  0  0
  6 14  1  0  0  0
  6 15  1  0  0  0
  7  8  1  0  0  0
  8  9  1  0  0  0
  9 10  1  0  0  0
 10 11  1  0  0  0
 10 14  2  0  0  0
 11 12  2  0  0  0
 12 13  1  0  0  0
 13 14  1  0  0  0
 15 16  1  0  0  0
 22 23  1  0  0  0
  7 17  1  0  0  0
 13 18  1  0  0  0
M  END
> <minimizedAffinity>
-10.12234

$$$$
131


 30 33  0  0  0  0  0  0  0  0999 V2000
   20.2875   77.8057   18.1734 C   0  0  0  0  0  0  0  0  0  0  0  0
   19.9676   77.0303   19.1078 O   0  0  0  0  0  0  0  0  0  0  0  0
   19.8212   79.1294   18.1887 N   0  0  0  0  0  0  0  0  0  0  0  0
   20.1458   80.0771   17.1517 C   0  0  0  0  0  0  0  0  0  0  0  0
   20.9685   81.1702   17.7983 C   0  0  0  0  0  0  0  0  0  0  0  0
   20.2604   81.6782   19.0316 C   0  0  0  0  0  0  0  0  0  0  0  0
   21.0997   81.3969   20.1770 N   0  0  0  0  0  0  0  0  0  0  0  0
   20.6297   81.9274   21.4087 C   0  0  0  0  0  0  0  0  0  0  0  0
   20.0235   83.2823   21.3754 C   0  0  0  0  0  0  0  0  0  0  0  0
   20.0801   83.9517   20.0589 C   0  0  0  0  0  0  0  0  0  0  0  0
   20.0401   85.2688   19.6900 N   0  0  0  0  0  0  0  0  0  0  0  0
   20.1256   85.2952   18.3545 C   0  0  0  0  0  0  0  0  0  0  0  0
   20.2176   84.0375   17.8926 N   0  0  0  0  0  0  0  0  0  0  0  0
   20.1918   83.1672   18.9332 C   0  0  0  0  0  0  0  0  0  0  0  0
   18.8890   81.1184   19.2314 C   0  0  0  0  0  0  0  0  0  0  0  0
   18.9844   79.5899   19.2666 C   0  0  0  0  0  0  0  0  0  0  0  0
   21.1762   80.3508   20.2798 H   0  0  0  0  0  0  0  0  0  0  0  0
   19.9556   86.0783   20.3718 H   0  0  0  0  0  0  0  0  0  0  0  0
   21.1541   77.2481   17.1016 C   0  0  0  0  0  0  0  0  0  0  0  0
   20.8285   76.4085   14.7676 C   0  0  0  0  0  0  0  0  0  0  0  0
   21.9372   76.9242   14.4730 O   0  0  0  0  0  0  0  0  0  0  0  0
   20.3803   76.5449   16.1011 N   0  0  0  0  0  0  0  0  0  0  0  0
   19.4672   76.1274   16.3684 H   0  0  0  0  0  0  0  0  0  0  0  0
   18.3665   71.9674   13.1580 Br  0  0  0  0  0  0  0  0  0  0  0  0
   18.9181   73.7587   12.8870 C   0  0  0  0  0  0  0  0  0  0  0  0
   19.6385   74.4005   13.8782 C   0  0  0  0  0  0  0  0  0  0  0  0
   20.0695   75.7069   13.7424 C   0  0  0  0  0  0  0  0  0  0  0  0
   19.7586   76.3727   12.5654 C   0  0  0  0  0  0  0  0  0  0  0  0
   19.0422   75.7288   11.5844 C   0  0  0  0  0  0  0  0  0  0  0  0
   18.6048   74.4283   11.7031 C   0  0  0  0  0  0  0  0  0  0  0  0
 24 25  1  0  0  0
 25 26  2  0  0  0
 25 30  1  0  0  0
 26 27  1  0  0  0
 27 28  2  0  0  0
 27 20  1  0  0  0
 28 29  1  0  0  0
 29 30  2  0  0  0
 20 21  2  0  0  0
 20 22  1  0  0  0
 22 19  1  0  0  0
 19  1  1  0  0  0
  1  2  2  0  0  0
  1  3  1  0  0  0
  3  4  1  0  0  0
  3 16  1  0  0  0
  4  5  1  0  0  0
  5  6  1  0  0  0
  6  7  1  0  0  0
  6 14  1  0  0  0
  6 15  1  0  0  0
  7  8  1  0  0  0
  8  9  1  0  0  0
  9 10  1  0  0  0
 10 11  1  0  0  0
 10 14  2  0  0  0
 11 12  1  0  0  0
 12 13  2  0  0  0
 13 14  1  0  0  0
 15 16  1  0  0  0
 22 23  1  0  0  0
  7 17  1  0  0  0
 11 18  1  0  0  0
M  END
> <minimizedAffinity>
-10.39273

$$$$
136


 30 33  0  0  0  0  0  0  0  0999 V2000
   19.9341   77.1265   16.6201 C   0  0  0  0  0  0  0  0  0  0  0  0
   18.9000   77.8682   17.4449 C   0  0  0  0  0  0  0  0  0  0  0  0
   19.6308   79.0307   17.9105 N   0  0  0  0  0  0  0  0  0  0  0  0
   20.9227   79.1260   17.2617 C   0  0  0  0  0  0  0  0  0  0  0  0
   20.7091   78.2611   16.0122 C   0  0  0  0  0  0  0  0  0  0  0  0
   21.1691   80.5252   16.9168 C   0  0  0  0  0  0  0  0  0  0  0  0
   21.4718   80.8655   15.7638 O   0  0  0  0  0  0  0  0  0  0  0  0
   21.0521   81.4926   17.9479 N   0  0  0  0  0  0  0  0  0  0  0  0
   20.1801   81.2333   19.0712 C   0  0  0  0  0  0  0  0  0  0  0  0
   19.3082   80.0557   18.8615 C   0  0  0  0  0  0  0  0  0  0  0  0
   18.2482   79.9375   19.5306 O   0  0  0  0  0  0  0  0  0  0  0  0
   21.5739   82.3978   17.9313 H   0  0  0  0  0  0  0  0  0  0  0  0
   20.0681   75.9421   14.4842 C   0  0  0  0  0  0  0  0  0  0  0  0
   21.2654   76.3964   14.3671 O   0  0  0  0  0  0  0  0  0  0  0  0
   19.3089   76.2748   15.6242 N   0  0  0  0  0  0  0  0  0  0  0  0
   18.3482   75.9188   15.7214 H   0  0  0  0  0  0  0  0  0  0  0  0
   18.6054   71.0665   12.9525 Br  0  0  0  0  0  0  0  0  0  0  0  0
   18.8594   72.9382   12.6459 C   0  0  0  0  0  0  0  0  0  0  0  0
   19.3564   73.7367   13.6384 C   0  0  0  0  0  0  0  0  0  0  0  0
   19.5445   75.0968   13.4246 C   0  0  0  0  0  0  0  0  0  0  0  0
   19.2187   75.6043   12.2059 C   0  0  0  0  0  0  0  0  0  0  0  0
   18.7152   74.7864   11.2065 C   0  0  0  0  0  0  0  0  0  0  0  0
   18.5314   73.4425   11.4200 C   0  0  0  0  0  0  0  0  0  0  0  0
   20.9308   81.1586   20.3838 C   0  0  0  0  0  0  0  0  0  0  0  0
   20.4107   82.0838   21.4040 C   0  0  0  0  0  0  0  0  0  0  0  0
   19.3426   82.9095   21.1032 C   0  0  0  0  0  0  0  0  0  0  0  0
   18.8509   83.7770   22.0511 C   0  0  0  0  0  0  0  0  0  0  0  0
   19.3822   83.8707   23.3235 C   0  0  0  0  0  0  0  0  0  0  0  0
   20.4470   83.0492   23.6264 C   0  0  0  0  0  0  0  0  0  0  0  0
   20.9539   82.1719   22.6873 C   0  0  0  0  0  0  0  0  0  0  0  0
 17 18  1  0  0  0
 18 19  2  0  0  0
 18 23  1  0  0  0
 19 20  1  0  0  0
 20 21  2  0  0  0
 20 13  1  0  0  0
 21 22  1  0  0  0
 22 23  2  0  0  0
 13 14  2  0  0  0
 13 15  1  0  0  0
 15  1  1  0  0  0
  1  2  1  0  0  0
  1  5  1  0  0  0
  2  3  1  0  0  0
  3  4  1  0  0  0
  3 10  1  0  0  0
  4  5  1  0  0  0
  4  6  1  0  0  0
  6  7  2  0  0  0
  6  8  1  0  0  0
  8  9  1  0  0  0
  9 10  1  0  0  0
  9 24  1  0  0  0
 10 11  2  0  0  0
 24 25  1  0  0  0
 25 26  2  0  0  0
 25 30  1  0  0  0
 26 27  1  0  0  0
 27 28  2  0  0  0
 28 29  1  0  0  0
 29 30  2  0  0  0
 15 16  1  0  0  0
  8 12  1  0  0  0
M  END
> <minimizedAffinity>
-11.38213

$$$$
137


 25 28  0  0  0  0  0  0  0  0999 V2000
   22.5593   78.5518   14.4813 C   0  0  0  0  0  0  0  0  0  0  0  0
   21.9663   79.8055   13.7385 C   0  0  0  0  0  0  0  0  0  0  0  0
   21.5306   79.2784   12.4903 N   0  0  0  0  0  0  0  0  0  0  0  0
   21.3509   77.8393   12.6162 C   0  0  0  0  0  0  0  0  0  0  0  0
   21.4136   77.5788   14.0653 C   0  0  0  0  0  0  0  0  0  0  0  0
   20.1363   77.4136   11.9028 C   0  0  0  0  0  0  0  0  0  0  0  0
   19.4021   76.5470   12.4091 O   0  0  0  0  0  0  0  0  0  0  0  0
   19.8062   77.9830   10.6525 N   0  0  0  0  0  0  0  0  0  0  0  0
   20.1641   79.3565   10.3754 C   0  0  0  0  0  0  0  0  0  0  0  0
   20.4500   79.4104    8.8882 C   0  0  0  0  0  0  0  0  0  0  0  0
   20.1164   78.0506    8.3829 C   0  0  0  0  0  0  0  0  0  0  0  0
   19.1412   77.5135    9.4414 C   0  0  0  0  0  0  0  0  0  0  0  0
   21.2493   79.8488   11.2173 C   0  0  0  0  0  0  0  0  0  0  0  0
   21.9795   80.8208   10.8146 O   0  0  0  0  0  0  0  0  0  0  0  0
   22.9576   78.9635   17.1208 C   0  0  0  0  0  0  0  0  0  0  0  0
   24.0357   79.1770   17.7567 O   0  0  0  0  0  0  0  0  0  0  0  0
   22.7520   78.7547   15.7795 N   0  0  0  0  0  0  0  0  0  0  0  0
   24.1078   78.8821   15.5727 H   0  0  0  0  0  0  0  0  0  0  0  0
   19.3355   81.7715   19.9480 Br  0  0  0  0  0  0  0  0  0  0  0  0
   20.1300   80.1509   19.3529 C   0  0  0  0  0  0  0  0  0  0  0  0
   21.2096   80.1262   18.5046 C   0  0  0  0  0  0  0  0  0  0  0  0
   21.7700   78.9543   18.0582 C   0  0  0  0  0  0  0  0  0  0  0  0
   21.2369   77.7604   18.4716 C   0  0  0  0  0  0  0  0  0  0  0  0
   20.1444   77.7395   19.3296 C   0  0  0  0  0  0  0  0  0  0  0  0
   19.6111   78.9235   19.7556 C   0  0  0  0  0  0  0  0  0  0  0  0
 19 20  1  0  0  0
 20 21  2  0  0  0
 20 25  1  0  0  0
 21 22  1  0  0  0
 22 23  2  0  0  0
 22 15  1  0  0  0
 23 24  1  0  0  0
 24 25  2  0  0  0
 15 16  2  0  0  0
 15 17  1  0  0  0
 17  1  1  0  0  0
  1  2  1  0  0  0
  1  5  1  0  0  0
  2  3  1  0  0  0
  3  4  1  0  0  0
  3 13  1  0  0  0
  4  5  1  0  0  0
  4  6  1  0  0  0
  6  7  2  0  0  0
  6  8  1  0  0  0
  8  9  1  0  0  0
  8 12  1  0  0  0
  9 10  1  0  0  0
  9 13  1  0  0  0
 10 11  1  0  0  0
 11 12  1  0  0  0
 13 14  2  0  0  0
 17 18  1  0  0  0
M  END
> <minimizedAffinity>
-9.26465

$$$$
138


 25 28  0  0  0  0  0  0  0  0999 V2000
   19.8082   77.2312   16.7243 C   0  0  0  0  0  0  0  0  0  0  0  0
   18.8321   77.8620   17.6605 C   0  0  0  0  0  0  0  0  0  0  0  0
   19.5986   78.9872   18.2236 N   0  0  0  0  0  0  0  0  0  0  0  0
   20.8006   79.1922   17.4287 C   0  0  0  0  0  0  0  0  0  0  0  0
   20.4978   78.4769   16.1478 C   0  0  0  0  0  0  0  0  0  0  0  0
   21.0037   80.6309   17.2830 C   0  0  0  0  0  0  0  0  0  0  0  0
   21.4592   81.1095   16.2375 O   0  0  0  0  0  0  0  0  0  0  0  0
   20.6702   81.5069   18.3688 N   0  0  0  0  0  0  0  0  0  0  0  0
   20.3944   80.8723   19.6348 C   0  0  0  0  0  0  0  0  0  0  0  0
   19.9709   81.8723   20.6302 C   0  0  0  0  0  0  0  0  0  0  0  0
   20.4317   83.1722   20.0010 C   0  0  0  0  0  0  0  0  0  0  0  0
   20.5320   82.9210   18.5347 C   0  0  0  0  0  0  0  0  0  0  0  0
   19.3477   79.8326   19.3425 C   0  0  0  0  0  0  0  0  0  0  0  0
   18.3173   79.7192   20.0434 O   0  0  0  0  0  0  0  0  0  0  0  0
   20.0090   76.0159   14.6032 C   0  0  0  0  0  0  0  0  0  0  0  0
   21.2211   76.4170   14.5027 O   0  0  0  0  0  0  0  0  0  0  0  0
   19.2422   76.4059   15.7229 N   0  0  0  0  0  0  0  0  0  0  0  0
   18.2622   76.0791   15.8011 H   0  0  0  0  0  0  0  0  0  0  0  0
   18.6551   71.1432   12.8509 Br  0  0  0  0  0  0  0  0  0  0  0  0
   18.9062   73.0147   12.6314 C   0  0  0  0  0  0  0  0  0  0  0  0
   19.3488   73.8213   13.6481 C   0  0  0  0  0  0  0  0  0  0  0  0
   19.5388   75.1740   13.5169 C   0  0  0  0  0  0  0  0  0  0  0  0
   19.2622   75.7238   12.2881 C   0  0  0  0  0  0  0  0  0  0  0  0
   18.8071   74.9346   11.2212 C   0  0  0  0  0  0  0  0  0  0  0  0
   18.6311   73.5720   11.4016 C   0  0  0  0  0  0  0  0  0  0  0  0
 19 20  1  0  0  0
 20 21  2  0  0  0
 20 25  1  0  0  0
 21 22  1  0  0  0
 22 23  2  0  0  0
 22 15  1  0  0  0
 23 24  1  0  0  0
 24 25  2  0  0  0
 15 16  2  0  0  0
 15 17  1  0  0  0
 17  1  1  0  0  0
  1  2  1  0  0  0
  1  5  1  0  0  0
  2  3  1  0  0  0
  3  4  1  0  0  0
  3 13  1  0  0  0
  4  5  1  0  0  0
  4  6  1  0  0  0
  6  7  2  0  0  0
  6  8  1  0  0  0
  8  9  1  0  0  0
  8 12  1  0  0  0
  9 10  1  0  0  0
  9 13  1  0  0  0
 10 11  1  0  0  0
 11 12  1  0  0  0
 13 14  2  0  0  0
 17 18  1  0  0  0
M  END
> <minimizedAffinity>
-10.46214

$$$$
141


 23 26  0  0  0  0  0  0  0  0999 V2000
   20.4528   76.8113   16.1175 N   0  0  0  0  0  0  0  0  0  0  0  0
   19.5578   77.4004   17.0805 C   0  0  0  0  0  0  0  0  0  0  0  0
   18.3008   77.2374   17.1817 O   0  0  0  0  0  0  0  0  0  0  0  0
   20.3331   78.2498   17.9643 C   0  0  0  0  0  0  0  0  0  0  0  0
   21.8002   77.8005   17.8169 C   0  0  0  0  0  0  0  0  0  0  0  0
   22.6136   79.0536   17.8330 C   0  0  0  0  0  0  0  0  0  0  0  0
   21.6312   80.0629   18.4602 C   0  0  0  0  0  0  0  0  0  0  0  0
   20.4933   79.6861   17.4872 C   0  0  0  0  0  0  0  0  0  0  0  0
   21.2566   79.7328   16.2072 C   0  0  0  0  0  0  0  0  0  0  0  0
   22.5717   79.6140   16.4334 C   0  0  0  0  0  0  0  0  0  0  0  0
   21.7420   77.2846   16.3929 C   0  0  0  0  0  0  0  0  0  0  0  0
   22.7153   77.2952   15.6060 O   0  0  0  0  0  0  0  0  0  0  0  0
   19.8543   76.2334   13.7568 C   0  0  0  0  0  0  0  0  0  0  0  0
   20.1791   77.3480   13.3117 O   0  0  0  0  0  0  0  0  0  0  0  0
   19.9747   75.9335   15.1247 N   0  0  0  0  0  0  0  0  0  0  0  0
   19.6669   74.9478   15.4022 H   0  0  0  0  0  0  0  0  0  0  0  0
   18.0705   71.3212   13.1113 Br  0  0  0  0  0  0  0  0  0  0  0  0
   18.5132   73.0368   12.4150 C   0  0  0  0  0  0  0  0  0  0  0  0
   19.0033   73.9897   13.2732 C   0  0  0  0  0  0  0  0  0  0  0  0
   19.3457   75.2585   12.8124 C   0  0  0  0  0  0  0  0  0  0  0  0
   19.1804   75.5277   11.4893 C   0  0  0  0  0  0  0  0  0  0  0  0
   18.6882   74.5677   10.6330 C   0  0  0  0  0  0  0  0  0  0  0  0
   18.3433   73.3097   11.0630 C   0  0  0  0  0  0  0  0  0  0  0  0
 17 18  1  0  0  0
 18 19  2  0  0  0
 18 23  1  0  0  0
 19 20  1  0  0  0
 20 21  2  0  0  0
 20 13  1  0  0  0
 21 22  1  0  0  0
 22 23  2  0  0  0
 13 14  2  0  0  0
 13 15  1  0  0  0
 15  1  1  0  0  0
  1  2  1  0  0  0
  1 11  1  0  0  0
  2  3  2  0  0  0
  2  4  1  0  0  0
  4  5  1  0  0  0
  4  8  1  0  0  0
  5  6  1  0  0  0
  5 11  1  0  0  0
  6  7  1  0  0  0
  6 10  1  0  0  0
  7  8  1  0  0  0
  8  9  1  0  0  0
  9 10  2  0  0  0
 11 12  2  0  0  0
 15 16  1  0  0  0
M  END
> <minimizedAffinity>
-9.73017

$$$$
152


 27 30  0  0  0  0  0  0  0  0999 V2000
   19.2480   75.1190   13.8003 C   0  0  0  0  0  0  0  0  0  0  0  0
   19.1851   75.3174   12.4787 C   0  0  0  0  0  0  0  0  0  0  0  0
   19.4275   76.4614   11.8398 O   0  0  0  0  0  0  0  0  0  0  0  0
   19.2908   76.2715   10.4413 C   0  0  0  0  0  0  0  0  0  0  0  0
   18.9584   74.9901   10.1571 C   0  0  0  0  0  0  0  0  0  0  0  0
   18.8601   74.6206    8.8179 C   0  0  0  0  0  0  0  0  0  0  0  0
   19.0699   75.5333    7.8320 C   0  0  0  0  0  0  0  0  0  0  0  0
   19.3766   76.8400    8.1550 C   0  0  0  0  0  0  0  0  0  0  0  0
   19.4968   77.2737    9.4535 C   0  0  0  0  0  0  0  0  0  0  0  0
   19.5724   77.7435    7.1078 O   0  0  0  0  0  0  0  0  0  0  0  0
   18.8609   74.3032   11.4667 C   0  0  0  0  0  0  0  0  0  0  0  0
   18.5598   73.1115   11.6637 O   0  0  0  0  0  0  0  0  0  0  0  0
   23.1755   78.3953   15.2095 Br  0  0  0  0  0  0  0  0  0  0  0  0
   21.4560   77.6376   15.5436 C   0  0  0  0  0  0  0  0  0  0  0  0
   20.8828   76.8496   14.5365 C   0  0  0  0  0  0  0  0  0  0  0  0
   19.6310   76.2384   14.7028 C   0  0  0  0  0  0  0  0  0  0  0  0
   18.9886   76.4534   15.8883 C   0  0  0  0  0  0  0  0  0  0  0  0
   19.5438   77.2421   16.9192 C   0  0  0  0  0  0  0  0  0  0  0  0
   20.8150   77.8387   16.7108 C   0  0  0  0  0  0  0  0  0  0  0  0
   19.3489   78.6218    9.9637 C   0  0  0  0  0  0  0  0  0  0  0  0
   20.0089   79.5727   10.6536 N   0  0  0  0  0  0  0  0  0  0  0  0
   20.7368   79.4121   11.8352 C   0  0  0  0  0  0  0  0  0  0  0  0
   22.2532   79.2176   11.6153 C   0  0  0  0  0  0  0  0  0  0  0  0
   22.8742   80.3230   11.0847 O   0  0  0  0  0  0  0  0  0  0  0  0
   22.0420   80.9126   10.1264 C   0  0  0  0  0  0  0  0  0  0  0  0
   21.0589   80.0101    9.5926 C   0  0  0  0  0  0  0  0  0  0  0  0
   19.3811   80.4581   10.7413 H   0  0  0  0  0  0  0  0  0  0  0  0
 13 14  1  0  0  0
 14 15  2  0  0  0
 14 19  1  0  0  0
 15 16  1  0  0  0
 16 17  2  0  0  0
 16  1  1  0  0  0
 17 18  1  0  0  0
 18 19  2  0  0  0
  1  2  2  0  0  0
  2  3  1  0  0  0
  2 11  1  0  0  0
  3  4  1  0  0  0
  4  5  2  0  0  0
  4  9  1  0  0  0
  5  6  1  0  0  0
  5 11  1  0  0  0
  6  7  2  0  0  0
  7  8  1  0  0  0
  8  9  2  0  0  0
  8 10  1  0  0  0
  9 20  1  0  0  0
 20 21  1  0  0  0
 21 22  1  0  0  0
 21 26  1  0  0  0
 22 23  1  0  0  0
 23 24  1  0  0  0
 24 25  1  0  0  0
 25 26  1  0  0  0
 11 12  2  0  0  0
 21 27  1  0  0  0
M  CHG 1  10  -1
M  CHG 1  21   1
M  END
> <minimizedAffinity>
-9.61679

$$$$
153


 34 37  0  0  0  0  0  0  0  0999 V2000
   19.4623   78.8972   18.6044 C   0  0  0  0  0  0  0  0  0  0  0  0
   18.8010   79.2169   19.6636 N   0  0  0  0  0  0  0  0  0  0  0  0
   18.8287   80.5347   19.8358 N   0  0  0  0  0  0  0  0  0  0  0  0
   19.5589   81.0885   18.8324 N   0  0  0  0  0  0  0  0  0  0  0  0
   19.9440   80.1432   18.0406 C   0  0  0  0  0  0  0  0  0  0  0  0
   20.1078   82.4139   19.0782 C   0  0  0  0  0  0  0  0  0  0  0  0
   20.3686   83.1608   17.8711 N   0  0  0  0  0  0  0  0  0  0  0  0
   20.8427   84.2847   18.1330 O   0  0  0  0  0  0  0  0  0  0  0  0
   20.9525   84.4111   19.4199 N   0  0  0  0  0  0  0  0  0  0  0  0
   20.4856   83.2314   19.9985 C   0  0  0  0  0  0  0  0  0  0  0  0
   20.4877   83.1037   21.4023 N   0  0  0  0  0  0  0  0  0  0  0  0
   19.9441   83.8980   21.8924 H   0  0  0  0  0  0  0  0  0  0  0  0
   20.8934   82.4254   22.0174 H   0  0  0  0  0  0  0  0  0  0  0  0
   19.3538   77.2023   16.8579 N   0  0  0  0  0  0  0  0  0  0  0  0
   19.9025   77.5461   18.0594 C   0  0  0  0  0  0  0  0  0  0  0  0
   20.7234   76.9019   18.7486 O   0  0  0  0  0  0  0  0  0  0  0  0
   18.7452   78.2136   16.5357 H   0  0  0  0  0  0  0  0  0  0  0  0
   20.0037   76.0701   14.8992 C   0  0  0  0  0  0  0  0  0  0  0  0
   19.1519   76.4168   15.8231 N   0  0  0  0  0  0  0  0  0  0  0  0
   18.7616   71.2214   12.7823 Br  0  0  0  0  0  0  0  0  0  0  0  0
   19.0227   73.1206   12.7369 C   0  0  0  0  0  0  0  0  0  0  0  0
   19.5033   73.8189   13.8438 C   0  0  0  0  0  0  0  0  0  0  0  0
   19.6415   75.1914   13.7703 C   0  0  0  0  0  0  0  0  0  0  0  0
   19.3000   75.8165   12.5845 C   0  0  0  0  0  0  0  0  0  0  0  0
   18.8365   75.0929   11.5248 C   0  0  0  0  0  0  0  0  0  0  0  0
   18.6661   73.7334   11.5408 C   0  0  0  0  0  0  0  0  0  0  0  0
   20.6796   80.0658   16.7826 C   0  0  0  0  0  0  0  0  0  0  0  0
   22.0596   79.9059   16.7094 N   0  0  0  0  0  0  0  0  0  0  0  0
   22.9240   78.8869   16.8390 C   0  0  0  0  0  0  0  0  0  0  0  0
   23.4980   78.5490   15.4359 C   0  0  0  0  0  0  0  0  0  0  0  0
   22.5453   78.9795   14.4762 N   0  0  0  0  0  0  0  0  0  0  0  0
   22.4958   80.4087   14.4054 C   0  0  0  0  0  0  0  0  0  0  0  0
   22.6654   80.9504   15.8305 C   0  0  0  0  0  0  0  0  0  0  0  0
   22.4136   78.2838   13.2665 C   0  0  0  0  0  0  0  0  0  0  0  0
 20 21  1  0  0  0
 21 22  2  0  0  0
 21 26  1  0  0  0
 22 23  1  0  0  0
 23 24  2  0  0  0
 23 18  1  0  0  0
 24 25  1  0  0  0
 25 26  2  0  0  0
 18 19  2  0  0  0
 19 14  1  0  0  0
 14 15  1  0  0  0
 15 16  2  0  0  0
 15  1  1  0  0  0
  1  2  1  0  0  0
  1  5  2  0  0  0
  2  3  2  0  0  0
  3  4  1  0  0  0
  4  5  1  0  0  0
  4  6  1  0  0  0
  5 27  1  0  0  0
 27 28  1  0  0  0
 28 29  1  0  0  0
 28 33  1  0  0  0
 29 30  1  0  0  0
 30 31  1  0  0  0
 31 32  1  0  0  0
 31 34  1  0  0  0
 32 33  1  0  0  0
  6  7  2  0  0  0
  6 10  1  0  0  0
  7  8  1  0  0  0
  8  9  1  0  0  0
  9 10  2  0  0  0
 10 11  1  0  0  0
 14 17  1  0  0  0
 11 12  1  0  0  0
 11 13  1  0  0  0
M  END
> <minimizedAffinity>
-10.92994

$$$$
156


 29 32  0  0  0  0  0  0  0  0999 V2000
   20.7904   76.8249   14.3151 C   0  0  0  0  0  0  0  0  0  0  0  0
   20.1899   75.6306   14.3035 N   0  0  0  0  0  0  0  0  0  0  0  0
   19.4889   75.1618   13.2336 C   0  0  0  0  0  0  0  0  0  0  0  0
   19.4339   75.9871   12.1661 N   0  0  0  0  0  0  0  0  0  0  0  0
   20.0160   77.1975   12.1172 C   0  0  0  0  0  0  0  0  0  0  0  0
   20.6939   77.5845   13.2258 N   0  0  0  0  0  0  0  0  0  0  0  0
   19.9434   78.0372   10.9932 N   0  0  0  0  0  0  0  0  0  0  0  0
   19.3293   77.6158    9.7628 C   0  0  0  0  0  0  0  0  0  0  0  0
   18.5992   78.8497    9.2152 C   0  0  0  0  0  0  0  0  0  0  0  0
   18.2478   79.7048   10.2568 O   0  0  0  0  0  0  0  0  0  0  0  0
   19.3133   80.3258   10.8577 C   0  0  0  0  0  0  0  0  0  0  0  0
   20.4926   79.3619   11.0490 C   0  0  0  0  0  0  0  0  0  0  0  0
   18.8626   73.8965   13.2452 N   0  0  0  0  0  0  0  0  0  0  0  0
   17.5030   73.7459   12.8065 C   0  0  0  0  0  0  0  0  0  0  0  0
   17.5009   72.6599   11.7364 C   0  0  0  0  0  0  0  0  0  0  0  0
   17.9851   71.5074   12.3499 O   0  0  0  0  0  0  0  0  0  0  0  0
   19.3238   71.6113   12.6819 C   0  0  0  0  0  0  0  0  0  0  0  0
   19.5643   72.7258   13.6952 C   0  0  0  0  0  0  0  0  0  0  0  0
   21.5077   77.2525   15.4670 N   0  0  0  0  0  0  0  0  0  0  0  0
   22.5119   77.0048   15.5848 H   0  0  0  0  0  0  0  0  0  0  0  0
   21.0750   79.2575   16.6528 C   0  0  0  0  0  0  0  0  0  0  0  0
   20.8941   78.0093   16.4689 N   0  0  0  0  0  0  0  0  0  0  0  0
   20.3151   84.0167   18.9823 Br  0  0  0  0  0  0  0  0  0  0  0  0
   20.0113   82.1313   18.8378 C   0  0  0  0  0  0  0  0  0  0  0  0
   20.6115   81.3846   17.8533 C   0  0  0  0  0  0  0  0  0  0  0  0
   20.4222   80.0212   17.7083 C   0  0  0  0  0  0  0  0  0  0  0  0
   19.5822   79.4179   18.6192 C   0  0  0  0  0  0  0  0  0  0  0  0
   18.9551   80.1400   19.6316 C   0  0  0  0  0  0  0  0  0  0  0  0
   19.1750   81.4975   19.7337 C   0  0  0  0  0  0  0  0  0  0  0  0
 23 24  1  0  0  0
 24 25  2  0  0  0
 24 29  1  0  0  0
 25 26  1  0  0  0
 26 27  2  0  0  0
 26 21  1  0  0  0
 27 28  1  0  0  0
 28 29  2  0  0  0
 21 22  2  0  0  0
 22 19  1  0  0  0
 19  1  1  0  0  0
  1  2  2  0  0  0
  1  6  1  0  0  0
  2  3  1  0  0  0
  3  4  2  0  0  0
  3 13  1  0  0  0
  4  5  1  0  0  0
  5  6  2  0  0  0
  5  7  1  0  0  0
  7  8  1  0  0  0
  7 12  1  0  0  0
  8  9  1  0  0  0
  9 10  1  0  0  0
 10 11  1  0  0  0
 11 12  1  0  0  0
 13 14  1  0  0  0
 13 18  1  0  0  0
 14 15  1  0  0  0
 15 16  1  0  0  0
 16 17  1  0  0  0
 17 18  1  0  0  0
 19 20  1  0  0  0
M  END
> <minimizedAffinity>
-10.02137

$$$$
167


 35 38  0  0  0  0  0  0  0  0999 V2000
   19.8468   78.4207    8.7045 C   0  0  0  0  0  0  0  0  0  0  0  0
   18.5859   79.0335    8.5123 N   0  0  0  0  0  0  0  0  0  0  0  0
   18.2465   79.7987    9.6570 C   0  0  0  0  0  0  0  0  0  0  0  0
   17.1377   80.3932    9.8331 O   0  0  0  0  0  0  0  0  0  0  0  0
   19.3705   79.7871   10.5679 C   0  0  0  0  0  0  0  0  0  0  0  0
   19.3336   80.3922   11.6733 O   0  0  0  0  0  0  0  0  0  0  0  0
   20.4153   78.9901    9.9542 C   0  0  0  0  0  0  0  0  0  0  0  0
   21.6058   78.7934   10.4736 C   0  0  0  0  0  0  0  0  0  0  0  0
   22.4896   77.9604    9.8270 O   0  0  0  0  0  0  0  0  0  0  0  0
   18.5163   74.3335   11.8451 Br  0  0  0  0  0  0  0  0  0  0  0  0
   19.1045   75.0635   10.1819 C   0  0  0  0  0  0  0  0  0  0  0  0
   19.2935   76.3936    9.9615 C   0  0  0  0  0  0  0  0  0  0  0  0
   19.7173   76.9615    8.7723 C   0  0  0  0  0  0  0  0  0  0  0  0
   19.9730   76.0983    7.7103 C   0  0  0  0  0  0  0  0  0  0  0  0
   19.7926   74.7416    7.8995 C   0  0  0  0  0  0  0  0  0  0  0  0
   19.3665   74.2049    9.1019 C   0  0  0  0  0  0  0  0  0  0  0  0
   22.0028   79.4390   11.7000 C   0  0  0  0  0  0  0  0  0  0  0  0
   21.7836   78.8974   12.9790 C   0  0  0  0  0  0  0  0  0  0  0  0
   22.3016   79.7213   13.8982 N   0  0  0  0  0  0  0  0  0  0  0  0
   22.8284   80.7431   13.2489 N   0  0  0  0  0  0  0  0  0  0  0  0
   22.6713   80.6105   11.9234 C   0  0  0  0  0  0  0  0  0  0  0  0
   21.0822   77.6038   13.2238 C   0  0  0  0  0  0  0  0  0  0  0  0
   22.3081   79.5429   15.3074 C   0  0  0  0  0  0  0  0  0  0  0  0
   23.4469   79.0253   15.9101 C   0  0  0  0  0  0  0  0  0  0  0  0
   23.5271   78.8353   17.2753 C   0  0  0  0  0  0  0  0  0  0  0  0
   22.4565   79.1598   18.1096 C   0  0  0  0  0  0  0  0  0  0  0  0
   21.3218   79.6754   17.5091 C   0  0  0  0  0  0  0  0  0  0  0  0
   21.2671   79.8543   16.1509 C   0  0  0  0  0  0  0  0  0  0  0  0
   17.7222   78.9409    7.3017 C   0  0  0  0  0  0  0  0  0  0  0  0
   16.8331   77.7286    7.4064 C   0  0  0  0  0  0  0  0  0  0  0  0
   15.6841   77.7468    6.4488 C   0  0  0  0  0  0  0  0  0  0  0  0
   14.6058   76.8611    6.7401 N   0  0  0  0  0  0  0  0  0  0  0  0
   13.3077   77.4458    6.8201 C   0  0  0  0  0  0  0  0  0  0  0  0
   14.5480   75.7861    5.7364 C   0  0  0  0  0  0  0  0  0  0  0  0
   14.8012   76.3517    7.6546 H   0  0  0  0  0  0  0  0  0  0  0  0
 10 11  1  0  0  0
 11 12  2  0  0  0
 11 16  1  0  0  0
 12 13  1  0  0  0
 13 14  2  0  0  0
 13  1  1  0  0  0
 14 15  1  0  0  0
 15 16  2  0  0  0
  1  2  1  0  0  0
  1  7  1  0  0  0
  2  3  1  0  0  0
  2 29  1  0  0  0
  3  4  2  0  0  0
  3  5  1  0  0  0
  5  6  2  0  0  0
  5  7  1  0  0  0
  7  8  2  0  0  0
  8  9  1  0  0  0
  8 17  1  0  0  0
 17 18  2  0  0  0
 17 21  1  0  0  0
 18 19  1  0  0  0
 18 22  1  0  0  0
 19 20  1  0  0  0
 19 23  1  0  0  0
 20 21  2  0  0  0
 23 24  2  0  0  0
 23 28  1  0  0  0
 24 25  1  0  0  0
 25 26  2  0  0  0
 26 27  1  0  0  0
 27 28  2  0  0  0
 29 30  1  0  0  0
 30 31  1  0  0  0
 31 32  1  0  0  0
 32 33  1  0  0  0
 32 34  1  0  0  0
 32 35  1  0  0  0
M  CHG 1   9  -1
M  CHG 1  32   1
M  END
> <minimizedAffinity>
-8.80444

$$$$
169


 37 40  0  0  0  0  0  0  0  0999 V2000
   22.4388   79.9791   15.0343 C   0  0  0  0  0  0  0  0  0  0  0  0
   21.2476   79.5621   15.7484 N   0  0  0  0  0  0  0  0  0  0  0  0
   20.9394   78.2577   15.2788 C   0  0  0  0  0  0  0  0  0  0  0  0
   20.3050   77.3628   15.8802 O   0  0  0  0  0  0  0  0  0  0  0  0
   21.5185   78.1438   13.9219 C   0  0  0  0  0  0  0  0  0  0  0  0
   21.4677   77.1571   13.1554 O   0  0  0  0  0  0  0  0  0  0  0  0
   22.1574   79.4270   13.6626 C   0  0  0  0  0  0  0  0  0  0  0  0
   22.3680   79.9496   12.4935 C   0  0  0  0  0  0  0  0  0  0  0  0
   22.9444   81.2358   12.4361 O   0  0  0  0  0  0  0  0  0  0  0  0
   22.0648   79.3225   11.2151 C   0  0  0  0  0  0  0  0  0  0  0  0
   22.7933   78.5936   10.3367 C   0  0  0  0  0  0  0  0  0  0  0  0
   21.9816   78.2150    9.3276 N   0  0  0  0  0  0  0  0  0  0  0  0
   20.7365   78.6726    9.5084 C   0  0  0  0  0  0  0  0  0  0  0  0
   20.7594   79.3715   10.6858 C   0  0  0  0  0  0  0  0  0  0  0  0
   19.5889   80.0682   11.2996 C   0  0  0  0  0  0  0  0  0  0  0  0
   24.2596   78.2755   10.3954 C   0  0  0  0  0  0  0  0  0  0  0  0
   22.2991   77.6313    8.5001 H   0  0  0  0  0  0  0  0  0  0  0  0
   19.5747   78.4665    8.6205 C   0  0  0  0  0  0  0  0  0  0  0  0
   18.5132   79.0586    8.8656 O   0  0  0  0  0  0  0  0  0  0  0  0
   19.6624   77.6254    7.5276 O   0  0  0  0  0  0  0  0  0  0  0  0
   19.4129   76.2397    7.5837 C   0  0  0  0  0  0  0  0  0  0  0  0
   25.7346   75.7640   14.9864 Br  0  0  0  0  0  0  0  0  0  0  0  0
   25.1517   77.4311   15.7067 C   0  0  0  0  0  0  0  0  0  0  0  0
   24.0706   78.0783   15.1472 C   0  0  0  0  0  0  0  0  0  0  0  0
   23.6079   79.2934   15.6351 C   0  0  0  0  0  0  0  0  0  0  0  0
   24.3036   79.8090   16.7183 C   0  0  0  0  0  0  0  0  0  0  0  0
   25.3854   79.1694   17.2850 C   0  0  0  0  0  0  0  0  0  0  0  0
   25.8262   77.9648   16.7828 C   0  0  0  0  0  0  0  0  0  0  0  0
   20.5001   80.3237   16.7523 C   0  0  0  0  0  0  0  0  0  0  0  0
   21.0527   80.0858   18.1403 C   0  0  0  0  0  0  0  0  0  0  0  0
   20.9114   81.2004   19.0193 N   0  0  0  0  0  0  0  0  0  0  0  0
   20.1163   80.9168   20.2083 C   0  0  0  0  0  0  0  0  0  0  0  0
   20.4273   81.9813   21.2253 C   0  0  0  0  0  0  0  0  0  0  0  0
   20.8950   83.1012   20.5841 O   0  0  0  0  0  0  0  0  0  0  0  0
   20.1969   83.4368   19.4373 C   0  0  0  0  0  0  0  0  0  0  0  0
   20.2558   82.3348   18.3806 C   0  0  0  0  0  0  0  0  0  0  0  0
   21.8499   81.5419   19.2943 H   0  0  0  0  0  0  0  0  0  0  0  0
 22 23  1  0  0  0
 23 24  2  0  0  0
 23 28  1  0  0  0
 24 25  1  0  0  0
 25 26  2  0  0  0
 25  1  1  0  0  0
 26 27  1  0  0  0
 27 28  2  0  0  0
  1  2  1  0  0  0
  1  7  1  0  0  0
  2  3  1  0  0  0
  2 29  1  0  0  0
  3  4  2  0  0  0
  3  5  1  0  0  0
  5  6  2  0  0  0
  5  7  1  0  0  0
  7  8  2  0  0  0
  8  9  1  0  0  0
  8 10  1  0  0  0
 10 11  2  0  0  0
 10 14  1  0  0  0
 11 12  1  0  0  0
 11 16  1  0  0  0
 12 13  1  0  0  0
 13 14  2  0  0  0
 13 18  1  0  0  0
 14 15  1  0  0  0
 18 19  2  0  0  0
 18 20  1  0  0  0
 20 21  1  0  0  0
 29 30  1  0  0  0
 30 31  1  0  0  0
 31 32  1  0  0  0
 31 36  1  0  0  0
 32 33  1  0  0  0
 33 34  1  0  0  0
 34 35  1  0  0  0
 35 36  1  0  0  0
 12 17  1  0  0  0
 31 37  1  0  0  0
M  CHG 1   9  -1
M  CHG 1  31   1
M  END
> <minimizedAffinity>
-8.97098

$$$$
170


 35 38  0  0  0  0  0  0  0  0999 V2000
   22.0758   79.0267   15.4452 C   0  0  0  0  0  0  0  0  0  0  0  0
   21.2366   77.8787   15.1634 N   0  0  0  0  0  0  0  0  0  0  0  0
   20.6374   77.3946   16.3456 C   0  0  0  0  0  0  0  0  0  0  0  0
   20.1076   76.2848   16.6096 O   0  0  0  0  0  0  0  0  0  0  0  0
   20.7374   78.5028   17.3284 C   0  0  0  0  0  0  0  0  0  0  0  0
   20.3020   78.4314   18.4950 O   0  0  0  0  0  0  0  0  0  0  0  0
   21.4076   79.6048   16.6625 C   0  0  0  0  0  0  0  0  0  0  0  0
   21.3779   80.8584   17.0351 C   0  0  0  0  0  0  0  0  0  0  0  0
   22.0216   81.8248   16.2428 O   0  0  0  0  0  0  0  0  0  0  0  0
   26.0695   75.4844   14.9855 Br  0  0  0  0  0  0  0  0  0  0  0  0
   25.3459   77.1499   15.5617 C   0  0  0  0  0  0  0  0  0  0  0  0
   24.0183   77.4693   15.3005 C   0  0  0  0  0  0  0  0  0  0  0  0
   23.4800   78.6676   15.7115 C   0  0  0  0  0  0  0  0  0  0  0  0
   24.2824   79.5568   16.3909 C   0  0  0  0  0  0  0  0  0  0  0  0
   25.6014   79.2448   16.6536 C   0  0  0  0  0  0  0  0  0  0  0  0
   26.1495   78.0472   16.2468 C   0  0  0  0  0  0  0  0  0  0  0  0
   20.7137   81.2898   18.2357 C   0  0  0  0  0  0  0  0  0  0  0  0
   20.2905   82.6265   18.2774 C   0  0  0  0  0  0  0  0  0  0  0  0
   19.6869   83.1337   19.3943 C   0  0  0  0  0  0  0  0  0  0  0  0
   19.4673   82.3593   20.5267 C   0  0  0  0  0  0  0  0  0  0  0  0
   19.8863   81.0669   20.4643 C   0  0  0  0  0  0  0  0  0  0  0  0
   20.4980   80.5388   19.3456 C   0  0  0  0  0  0  0  0  0  0  0  0
   19.2416   84.5638   19.4219 C   0  0  0  0  0  0  0  0  0  0  0  0
   18.8512   82.9460   21.6131 O   0  0  0  0  0  0  0  0  0  0  0  0
   19.6000   83.3259   22.7579 C   0  0  0  0  0  0  0  0  0  0  0  0
   21.0110   77.2801   13.8381 C   0  0  0  0  0  0  0  0  0  0  0  0
   21.3854   78.2630   12.7636 C   0  0  0  0  0  0  0  0  0  0  0  0
   20.4534   78.3142   11.6013 C   0  0  0  0  0  0  0  0  0  0  0  0
   21.0296   78.9188   10.4200 N   0  0  0  0  0  0  0  0  0  0  0  0
   20.8148   80.3519   10.3892 C   0  0  0  0  0  0  0  0  0  0  0  0
   22.1228   81.0912   10.4749 C   0  0  0  0  0  0  0  0  0  0  0  0
   22.8931   80.7296    9.3509 O   0  0  0  0  0  0  0  0  0  0  0  0
   23.2113   79.3740    9.3925 C   0  0  0  0  0  0  0  0  0  0  0  0
   22.4622   78.6077   10.4351 C   0  0  0  0  0  0  0  0  0  0  0  0
   20.6743   78.5099    9.5303 H   0  0  0  0  0  0  0  0  0  0  0  0
 10 11  1  0  0  0
 11 12  2  0  0  0
 11 16  1  0  0  0
 12 13  1  0  0  0
 13 14  2  0  0  0
 13  1  1  0  0  0
 14 15  1  0  0  0
 15 16  2  0  0  0
  1  2  1  0  0  0
  1  7  1  0  0  0
  2  3  1  0  0  0
  2 26  1  0  0  0
  3  4  2  0  0  0
  3  5  1  0  0  0
  5  6  2  0  0  0
  5  7  1  0  0  0
  7  8  2  0  0  0
  8  9  1  0  0  0
  8 17  1  0  0  0
 17 18  2  0  0  0
 17 22  1  0  0  0
 18 19  1  0  0  0
 19 20  2  0  0  0
 19 23  1  0  0  0
 20 21  1  0  0  0
 20 24  1  0  0  0
 21 22  2  0  0  0
 24 25  1  0  0  0
 26 27  1  0  0  0
 27 28  1  0  0  0
 28 29  1  0  0  0
 29 30  1  0  0  0
 29 34  1  0  0  0
 30 31  1  0  0  0
 31 32  1  0  0  0
 32 33  1  0  0  0
 33 34  1  0  0  0
 29 35  1  0  0  0
M  CHG 1   9  -1
M  CHG 1  29   1
M  END
> <minimizedAffinity>
-10.78980

$$$$
175


 32 35  0  0  0  0  0  0  0  0999 V2000
   22.4844   79.5789   15.7609 C   0  0  0  0  0  0  0  0  0  0  0  0
   21.4883   79.0811   16.6620 N   0  0  0  0  0  0  0  0  0  0  0  0
   20.9203   77.9400   16.0375 C   0  0  0  0  0  0  0  0  0  0  0  0
   20.2679   77.0347   16.6144 O   0  0  0  0  0  0  0  0  0  0  0  0
   21.2156   77.9810   14.5858 C   0  0  0  0  0  0  0  0  0  0  0  0
   20.8811   77.1580   13.7171 O   0  0  0  0  0  0  0  0  0  0  0  0
   21.9845   79.1957   14.3923 C   0  0  0  0  0  0  0  0  0  0  0  0
   22.1726   79.8656   13.2766 C   0  0  0  0  0  0  0  0  0  0  0  0
   22.8833   81.0468   13.2968 O   0  0  0  0  0  0  0  0  0  0  0  0
   25.9349   75.5170   14.9487 Br  0  0  0  0  0  0  0  0  0  0  0  0
   25.4588   77.2088   15.6963 C   0  0  0  0  0  0  0  0  0  0  0  0
   24.2037   77.7660   15.4742 C   0  0  0  0  0  0  0  0  0  0  0  0
   23.8297   78.9850   16.0001 C   0  0  0  0  0  0  0  0  0  0  0  0
   24.7785   79.6411   16.7717 C   0  0  0  0  0  0  0  0  0  0  0  0
   26.0281   79.1072   17.0035 C   0  0  0  0  0  0  0  0  0  0  0  0
   26.3537   77.8910   16.4594 C   0  0  0  0  0  0  0  0  0  0  0  0
   21.6590   79.3957   12.0154 C   0  0  0  0  0  0  0  0  0  0  0  0
   20.3796   79.5259   11.5584 C   0  0  0  0  0  0  0  0  0  0  0  0
   20.0339   79.0607   10.3032 C   0  0  0  0  0  0  0  0  0  0  0  0
   20.9224   78.4504    9.4475 C   0  0  0  0  0  0  0  0  0  0  0  0
   22.2146   78.3186    9.9108 C   0  0  0  0  0  0  0  0  0  0  0  0
   22.5784   78.7735   11.1543 C   0  0  0  0  0  0  0  0  0  0  0  0
   20.5237   77.9573    8.0995 C   0  0  0  0  0  0  0  0  0  0  0  0
   21.1025   79.6145   17.9835 C   0  0  0  0  0  0  0  0  0  0  0  0
   20.7846   81.0722   17.8009 C   0  0  0  0  0  0  0  0  0  0  0  0
   19.8195   81.5984   18.6969 N   0  0  0  0  0  0  0  0  0  0  0  0
   19.8955   81.1324   20.0507 C   0  0  0  0  0  0  0  0  0  0  0  0
   20.7515   81.9808   20.9507 C   0  0  0  0  0  0  0  0  0  0  0  0
   20.5901   83.3347   20.7566 O   0  0  0  0  0  0  0  0  0  0  0  0
   20.8258   83.7077   19.4541 C   0  0  0  0  0  0  0  0  0  0  0  0
   19.7941   83.0352   18.5884 C   0  0  0  0  0  0  0  0  0  0  0  0
   18.8692   81.2909   18.3296 H   0  0  0  0  0  0  0  0  0  0  0  0
 10 11  1  0  0  0
 11 12  2  0  0  0
 11 16  1  0  0  0
 12 13  1  0  0  0
 13 14  2  0  0  0
 13  1  1  0  0  0
 14 15  1  0  0  0
 15 16  2  0  0  0
  1  2  1  0  0  0
  1  7  1  0  0  0
  2  3  1  0  0  0
  2 24  1  0  0  0
  3  4  2  0  0  0
  3  5  1  0  0  0
  5  6  2  0  0  0
  5  7  1  0  0  0
  7  8  2  0  0  0
  8  9  1  0  0  0
  8 17  1  0  0  0
 17 18  2  0  0  0
 17 22  1  0  0  0
 18 19  1  0  0  0
 19 20  2  0  0  0
 20 21  1  0  0  0
 20 23  1  0  0  0
 21 22  2  0  0  0
 24 25  1  0  0  0
 25 26  1  0  0  0
 26 27  1  0  0  0
 26 31  1  0  0  0
 27 28  1  0  0  0
 28 29  1  0  0  0
 29 30  1  0  0  0
 30 31  1  0  0  0
 26 32  1  0  0  0
M  CHG 1   9  -1
M  CHG 1  26   1
M  END
> <minimizedAffinity>
-10.19634

$$$$
176


 33 36  0  0  0  0  0  0  0  0999 V2000
   20.4559   79.5579   17.1386 C   0  0  0  0  0  0  0  0  0  0  0  0
   19.7962   78.2805   17.3544 N   0  0  0  0  0  0  0  0  0  0  0  0
   19.8858   77.9957   18.7659 C   0  0  0  0  0  0  0  0  0  0  0  0
   19.7301   76.8597   19.2778 O   0  0  0  0  0  0  0  0  0  0  0  0
   20.1802   79.2465   19.4325 C   0  0  0  0  0  0  0  0  0  0  0  0
   20.3460   79.4543   20.6753 O   0  0  0  0  0  0  0  0  0  0  0  0
   20.2630   80.2803   18.4098 C   0  0  0  0  0  0  0  0  0  0  0  0
   20.2108   81.5855   18.6322 C   0  0  0  0  0  0  0  0  0  0  0  0
   20.3708   82.3738   17.4733 O   0  0  0  0  0  0  0  0  0  0  0  0
   24.1440   78.9488   13.2883 Br  0  0  0  0  0  0  0  0  0  0  0  0
   23.5969   79.0749   15.1036 C   0  0  0  0  0  0  0  0  0  0  0  0
   22.2732   79.2641   15.4759 C   0  0  0  0  0  0  0  0  0  0  0  0
   21.8860   79.3582   16.7933 C   0  0  0  0  0  0  0  0  0  0  0  0
   22.8499   79.2609   17.7518 C   0  0  0  0  0  0  0  0  0  0  0  0
   24.1900   79.0685   17.3883 C   0  0  0  0  0  0  0  0  0  0  0  0
   24.5751   78.9751   16.0703 C   0  0  0  0  0  0  0  0  0  0  0  0
   20.0048   82.1990   19.9338 C   0  0  0  0  0  0  0  0  0  0  0  0
   20.9205   82.2176   20.9590 C   0  0  0  0  0  0  0  0  0  0  0  0
   20.6813   82.8468   22.1641 C   0  0  0  0  0  0  0  0  0  0  0  0
   19.4875   83.4933   22.3914 C   0  0  0  0  0  0  0  0  0  0  0  0
   18.5553   83.4845   21.3730 C   0  0  0  0  0  0  0  0  0  0  0  0
   18.8041   82.8526   20.1704 C   0  0  0  0  0  0  0  0  0  0  0  0
   19.1578   84.3062   23.9249 Cl  0  0  0  0  0  0  0  0  0  0  0  0
   19.2648   77.4345   16.3351 C   0  0  0  0  0  0  0  0  0  0  0  0
   20.1371   76.4282   15.7045 C   0  0  0  0  0  0  0  0  0  0  0  0
   19.8349   75.9282   14.3413 C   0  0  0  0  0  0  0  0  0  0  0  0
   19.1007   74.7148   14.2138 N   0  0  0  0  0  0  0  0  0  0  0  0
   18.1444   74.8030   13.1396 C   0  0  0  0  0  0  0  0  0  0  0  0
   18.6785   74.2909   11.8183 C   0  0  0  0  0  0  0  0  0  0  0  0
   18.9250   72.9186   11.9009 O   0  0  0  0  0  0  0  0  0  0  0  0
   19.1679   72.5355   13.2212 C   0  0  0  0  0  0  0  0  0  0  0  0
   20.0279   73.6022   13.8401 C   0  0  0  0  0  0  0  0  0  0  0  0
   18.6998   74.3966   15.0925 H   0  0  0  0  0  0  0  0  0  0  0  0
 10 11  1  0  0  0
 11 12  2  0  0  0
 11 16  1  0  0  0
 12 13  1  0  0  0
 13 14  2  0  0  0
 13  1  1  0  0  0
 14 15  1  0  0  0
 15 16  2  0  0  0
  1  2  1  0  0  0
  1  7  1  0  0  0
  2  3  1  0  0  0
  2 24  1  0  0  0
  3  4  2  0  0  0
  3  5  1  0  0  0
  5  6  2  0  0  0
  5  7  1  0  0  0
  7  8  2  0  0  0
  8  9  1  0  0  0
  8 17  1  0  0  0
 17 18  2  0  0  0
 17 22  1  0  0  0
 18 19  1  0  0  0
 19 20  2  0  0  0
 20 21  1  0  0  0
 20 23  1  0  0  0
 21 22  2  0  0  0
 24 25  1  0  0  0
 25 26  1  0  0  0
 26 27  1  0  0  0
 27 28  1  0  0  0
 27 32  1  0  0  0
 28 29  1  0  0  0
 29 30  1  0  0  0
 30 31  1  0  0  0
 31 32  1  0  0  0
 27 33  1  0  0  0
M  CHG 1   9  -1
M  CHG 1  27   1
M  END
> <minimizedAffinity>
-10.03165

$$$$
182


 36 40  0  0  0  0  0  0  0  0999 V2000
   21.4951   77.5705   13.0838 C   0  0  0  0  0  0  0  0  0  0  0  0
   20.2951   76.8119   13.0181 N   0  0  0  0  0  0  0  0  0  0  0  0
   20.2946   76.0705   14.2828 C   0  0  0  0  0  0  0  0  0  0  0  0
   19.7524   74.9731   14.4895 O   0  0  0  0  0  0  0  0  0  0  0  0
   21.0587   76.8890   15.2387 C   0  0  0  0  0  0  0  0  0  0  0  0
   21.3066   76.6440   16.4413 O   0  0  0  0  0  0  0  0  0  0  0  0
   21.4762   78.0718   14.4896 C   0  0  0  0  0  0  0  0  0  0  0  0
   21.7157   79.2637   14.9721 C   0  0  0  0  0  0  0  0  0  0  0  0
   22.0456   80.2769   14.0458 O   0  0  0  0  0  0  0  0  0  0  0  0
   21.6634   79.5699   16.3939 C   0  0  0  0  0  0  0  0  0  0  0  0
   20.6387   79.8541   17.2105 N   0  0  0  0  0  0  0  0  0  0  0  0
   21.0995   80.1098   18.4379 C   0  0  0  0  0  0  0  0  0  0  0  0
   22.4519   79.9827   18.3957 N   0  0  0  0  0  0  0  0  0  0  0  0
   22.8389   79.6504   17.1572 C   0  0  0  0  0  0  0  0  0  0  0  0
   24.2325   79.4157   16.6844 C   0  0  0  0  0  0  0  0  0  0  0  0
   20.2429   80.4215   19.4915 C   0  0  0  0  0  0  0  0  0  0  0  0
   18.8899   80.4525   19.2155 C   0  0  0  0  0  0  0  0  0  0  0  0
   18.4459   80.1813   17.9345 C   0  0  0  0  0  0  0  0  0  0  0  0
   19.3102   79.8778   16.9109 C   0  0  0  0  0  0  0  0  0  0  0  0
   20.8110   80.6983   20.8337 C   0  0  0  0  0  0  0  0  0  0  0  0
   19.7204   81.6382   10.1727 Br  0  0  0  0  0  0  0  0  0  0  0  0
   21.0846   80.3906   10.6757 C   0  0  0  0  0  0  0  0  0  0  0  0
   20.8583   79.4574   11.6532 C   0  0  0  0  0  0  0  0  0  0  0  0
   21.8260   78.5178   12.0621 C   0  0  0  0  0  0  0  0  0  0  0  0
   23.0173   78.6317   11.3803 C   0  0  0  0  0  0  0  0  0  0  0  0
   23.2672   79.5624   10.3948 C   0  0  0  0  0  0  0  0  0  0  0  0
   22.2897   80.4600   10.0302 C   0  0  0  0  0  0  0  0  0  0  0  0
   19.2511   76.6383   12.0233 C   0  0  0  0  0  0  0  0  0  0  0  0
   19.6896   76.0123   10.7447 C   0  0  0  0  0  0  0  0  0  0  0  0
   18.7592   76.2388    9.6564 N   0  0  0  0  0  0  0  0  0  0  0  0
   18.8985   77.5698    9.1089 C   0  0  0  0  0  0  0  0  0  0  0  0
   20.1948   77.6589    8.2973 C   0  0  0  0  0  0  0  0  0  0  0  0
   20.0194   76.7998    7.2068 O   0  0  0  0  0  0  0  0  0  0  0  0
   20.0681   75.4954    7.7403 C   0  0  0  0  0  0  0  0  0  0  0  0
   18.8803   75.2204    8.6319 C   0  0  0  0  0  0  0  0  0  0  0  0
   17.7798   76.1719   10.0277 H   0  0  0  0  0  0  0  0  0  0  0  0
 21 22  1  0  0  0
 22 23  2  0  0  0
 22 27  1  0  0  0
 23 24  1  0  0  0
 24 25  2  0  0  0
 24  1  1  0  0  0
 25 26  1  0  0  0
 26 27  2  0  0  0
  1  2  1  0  0  0
  1  7  1  0  0  0
  2  3  1  0  0  0
  2 28  1  0  0  0
  3  4  2  0  0  0
  3  5  1  0  0  0
  5  6  2  0  0  0
  5  7  1  0  0  0
  7  8  2  0  0  0
  8  9  1  0  0  0
  8 10  1  0  0  0
 10 11  1  0  0  0
 10 14  2  0  0  0
 11 12  1  0  0  0
 11 19  1  0  0  0
 12 13  2  0  0  0
 12 16  1  0  0  0
 13 14  1  0  0  0
 14 15  1  0  0  0
 16 17  2  0  0  0
 16 20  1  0  0  0
 17 18  1  0  0  0
 18 19  2  0  0  0
 28 29  1  0  0  0
 29 30  1  0  0  0
 30 31  1  0  0  0
 30 35  1  0  0  0
 31 32  1  0  0  0
 32 33  1  0  0  0
 33 34  1  0  0  0
 34 35  1  0  0  0
 30 36  1  0  0  0
M  CHG 1   9  -1
M  CHG 1  30   1
M  END
> <minimizedAffinity>
-7.09071

$$$$
184


 33 36  0  0  0  0  0  0  0  0999 V2000
   21.3780   77.5211   12.9616 C   0  0  0  0  0  0  0  0  0  0  0  0
   20.2252   76.6431   13.0112 N   0  0  0  0  0  0  0  0  0  0  0  0
   20.3396   75.9466   14.2593 C   0  0  0  0  0  0  0  0  0  0  0  0
   19.8670   74.8346   14.5544 O   0  0  0  0  0  0  0  0  0  0  0  0
   21.1275   76.7935   15.1468 C   0  0  0  0  0  0  0  0  0  0  0  0
   21.4968   76.6113   16.3452 O   0  0  0  0  0  0  0  0  0  0  0  0
   21.4584   77.9861   14.3815 C   0  0  0  0  0  0  0  0  0  0  0  0
   21.7896   79.1600   14.8818 C   0  0  0  0  0  0  0  0  0  0  0  0
   22.1323   80.1506   13.9507 O   0  0  0  0  0  0  0  0  0  0  0  0
   21.8162   79.4913   16.2986 C   0  0  0  0  0  0  0  0  0  0  0  0
   20.7696   79.7226   17.1048 N   0  0  0  0  0  0  0  0  0  0  0  0
   21.1820   79.9586   18.3768 C   0  0  0  0  0  0  0  0  0  0  0  0
   22.5400   79.8657   18.3289 N   0  0  0  0  0  0  0  0  0  0  0  0
   22.9595   79.5881   17.1064 C   0  0  0  0  0  0  0  0  0  0  0  0
   24.3210   79.3929   16.5608 C   0  0  0  0  0  0  0  0  0  0  0  0
   20.3052   80.2398   19.4127 C   0  0  0  0  0  0  0  0  0  0  0  0
   18.9486   80.2891   19.1676 C   0  0  0  0  0  0  0  0  0  0  0  0
   18.5351   80.0481   17.8625 C   0  0  0  0  0  0  0  0  0  0  0  0
   19.4248   79.7749   16.8701 C   0  0  0  0  0  0  0  0  0  0  0  0
   18.4709   81.4083   10.7215 Br  0  0  0  0  0  0  0  0  0  0  0  0
   20.0813   80.4252   10.9430 C   0  0  0  0  0  0  0  0  0  0  0  0
   20.1180   79.3690   11.8539 C   0  0  0  0  0  0  0  0  0  0  0  0
   21.2522   78.6506   12.0325 C   0  0  0  0  0  0  0  0  0  0  0  0
   22.3785   79.0003   11.2797 C   0  0  0  0  0  0  0  0  0  0  0  0
   22.3383   80.0327   10.3906 C   0  0  0  0  0  0  0  0  0  0  0  0
   21.1949   80.7758   10.1933 C   0  0  0  0  0  0  0  0  0  0  0  0
   19.1675   76.4708   12.0126 C   0  0  0  0  0  0  0  0  0  0  0  0
   19.3696   75.2949   11.1292 C   0  0  0  0  0  0  0  0  0  0  0  0
   18.4472   74.1533   11.2539 C   0  0  0  0  0  0  0  0  0  0  0  0
   18.3793   73.5231   12.5258 N   0  0  0  0  0  0  0  0  0  0  0  0
   18.9549   72.2015   12.4561 C   0  0  0  0  0  0  0  0  0  0  0  0
   16.9649   73.3243   12.8944 C   0  0  0  0  0  0  0  0  0  0  0  0
   18.7637   74.0917   13.3116 H   0  0  0  0  0  0  0  0  0  0  0  0
 20 21  1  0  0  0
 21 22  2  0  0  0
 21 26  1  0  0  0
 22 23  1  0  0  0
 23 24  2  0  0  0
 23  1  1  0  0  0
 24 25  1  0  0  0
 25 26  2  0  0  0
  1  2  1  0  0  0
  1  7  1  0  0  0
  2  3  1  0  0  0
  2 27  1  0  0  0
  3  4  2  0  0  0
  3  5  1  0  0  0
  5  6  2  0  0  0
  5  7  1  0  0  0
  7  8  2  0  0  0
  8  9  1  0  0  0
  8 10  1  0  0  0
 10 11  1  0  0  0
 10 14  2  0  0  0
 11 12  1  0  0  0
 11 19  1  0  0  0
 12 13  2  0  0  0
 12 16  1  0  0  0
 13 14  1  0  0  0
 14 15  1  0  0  0
 16 17  2  0  0  0
 17 18  1  0  0  0
 18 19  2  0  0  0
 27 28  1  0  0  0
 28 29  1  0  0  0
 29 30  1  0  0  0
 30 31  1  0  0  0
 30 32  1  0  0  0
 30 33  1  0  0  0
M  CHG 1   9  -1
M  CHG 1  30   1
M  END
> <minimizedAffinity>
-7.36660

$$$$
188


 31 34  0  0  0  0  0  0  0  0999 V2000
   21.2045   78.8703   15.7414 C   0  0  0  0  0  0  0  0  0  0  0  0
   20.3833   79.2459   16.8826 N   0  0  0  0  0  0  0  0  0  0  0  0
   20.2305   77.9988   17.6010 C   0  0  0  0  0  0  0  0  0  0  0  0
   19.9899   77.8666   18.8202 O   0  0  0  0  0  0  0  0  0  0  0  0
   20.4058   76.8957   16.6658 C   0  0  0  0  0  0  0  0  0  0  0  0
   20.3646   75.6503   16.8378 O   0  0  0  0  0  0  0  0  0  0  0  0
   20.6662   77.5123   15.3656 C   0  0  0  0  0  0  0  0  0  0  0  0
   20.5067   77.0235   14.1695 C   0  0  0  0  0  0  0  0  0  0  0  0
   20.8741   77.8283   13.0699 O   0  0  0  0  0  0  0  0  0  0  0  0
   25.6600   75.9307   15.1312 Br  0  0  0  0  0  0  0  0  0  0  0  0
   24.6773   77.3704   15.9311 C   0  0  0  0  0  0  0  0  0  0  0  0
   23.3568   77.6217   15.5915 C   0  0  0  0  0  0  0  0  0  0  0  0
   22.6243   78.6480   16.1458 C   0  0  0  0  0  0  0  0  0  0  0  0
   23.2551   79.4485   17.0785 C   0  0  0  0  0  0  0  0  0  0  0  0
   24.5854   79.2097   17.4319 C   0  0  0  0  0  0  0  0  0  0  0  0
   25.3021   78.1738   16.8630 C   0  0  0  0  0  0  0  0  0  0  0  0
   19.9639   75.6909   13.9792 C   0  0  0  0  0  0  0  0  0  0  0  0
   20.6701   74.6004   14.1159 O   0  0  0  0  0  0  0  0  0  0  0  0
   19.9487   73.5377   13.8870 C   0  0  0  0  0  0  0  0  0  0  0  0
   18.6850   73.9415   13.5793 C   0  0  0  0  0  0  0  0  0  0  0  0
   18.6876   75.3400   13.6356 C   0  0  0  0  0  0  0  0  0  0  0  0
   19.8344   80.5128   17.2874 C   0  0  0  0  0  0  0  0  0  0  0  0
   20.5722   81.1604   18.4365 C   0  0  0  0  0  0  0  0  0  0  0  0
   19.6098   81.5518   19.4866 C   0  0  0  0  0  0  0  0  0  0  0  0
   20.0268   82.6556   20.3215 N   0  0  0  0  0  0  0  0  0  0  0  0
   20.7317   83.6750   19.5805 C   0  0  0  0  0  0  0  0  0  0  0  0
   19.8916   84.8168   19.1311 C   0  0  0  0  0  0  0  0  0  0  0  0
   18.9720   85.2766   20.0499 O   0  0  0  0  0  0  0  0  0  0  0  0
   18.1944   84.2727   20.6116 C   0  0  0  0  0  0  0  0  0  0  0  0
   19.0338   83.1695   21.2026 C   0  0  0  0  0  0  0  0  0  0  0  0
   20.7763   82.2275   20.9528 H   0  0  0  0  0  0  0  0  0  0  0  0
 10 11  1  0  0  0
 11 12  2  0  0  0
 11 16  1  0  0  0
 12 13  1  0  0  0
 13 14  2  0  0  0
 13  1  1  0  0  0
 14 15  1  0  0  0
 15 16  2  0  0  0
  1  2  1  0  0  0
  1  7  1  0  0  0
  2  3  1  0  0  0
  2 22  1  0  0  0
  3  4  2  0  0  0
  3  5  1  0  0  0
  5  6  2  0  0  0
  5  7  1  0  0  0
  7  8  2  0  0  0
  8  9  1  0  0  0
  8 17  1  0  0  0
 17 18  1  0  0  0
 17 21  2  0  0  0
 18 19  1  0  0  0
 19 20  2  0  0  0
 20 21  1  0  0  0
 22 23  1  0  0  0
 23 24  1  0  0  0
 24 25  1  0  0  0
 25 26  1  0  0  0
 25 30  1  0  0  0
 26 27  1  0  0  0
 27 28  1  0  0  0
 28 29  1  0  0  0
 29 30  1  0  0  0
 25 31  1  0  0  0
M  CHG 1   9  -1
M  CHG 1  25   1
M  END
> <minimizedAffinity>
-9.85977

$$$$
191


 34 37  0  0  0  0  0  0  0  0999 V2000
   22.6951   79.6938   15.8773 C   0  0  0  0  0  0  0  0  0  0  0  0
   21.6582   79.1982   16.7596 N   0  0  0  0  0  0  0  0  0  0  0  0
   21.1449   78.0054   16.1276 C   0  0  0  0  0  0  0  0  0  0  0  0
   20.5443   77.0720   16.7129 O   0  0  0  0  0  0  0  0  0  0  0  0
   21.4645   78.1156   14.7011 C   0  0  0  0  0  0  0  0  0  0  0  0
   21.2052   77.3032   13.7764 O   0  0  0  0  0  0  0  0  0  0  0  0
   22.1681   79.3767   14.4977 C   0  0  0  0  0  0  0  0  0  0  0  0
   22.3101   80.0517   13.3699 C   0  0  0  0  0  0  0  0  0  0  0  0
   23.0298   81.2199   13.3720 O   0  0  0  0  0  0  0  0  0  0  0  0
   21.7088   79.5768   12.1096 C   0  0  0  0  0  0  0  0  0  0  0  0
   20.4709   79.7665   11.7413 O   0  0  0  0  0  0  0  0  0  0  0  0
   20.1875   79.2513   10.5919 C   0  0  0  0  0  0  0  0  0  0  0  0
   21.3362   78.6543   10.1314 C   0  0  0  0  0  0  0  0  0  0  0  0
   22.3001   78.8614   11.0957 C   0  0  0  0  0  0  0  0  0  0  0  0
   21.2967   78.0226    8.9077 C   0  0  0  0  0  0  0  0  0  0  0  0
   20.1442   77.9792    8.1493 C   0  0  0  0  0  0  0  0  0  0  0  0
   18.9988   78.6009    8.6568 C   0  0  0  0  0  0  0  0  0  0  0  0
   19.0005   79.2393    9.8711 C   0  0  0  0  0  0  0  0  0  0  0  0
   17.8559   79.8383   10.3315 O   0  0  0  0  0  0  0  0  0  0  0  0
   17.7457   81.1049   10.8975 C   0  0  0  0  0  0  0  0  0  0  0  0
   25.8421   75.4600   14.9007 Br  0  0  0  0  0  0  0  0  0  0  0  0
   25.5144   77.1738   15.7141 C   0  0  0  0  0  0  0  0  0  0  0  0
   24.3175   77.8049   15.5359 C   0  0  0  0  0  0  0  0  0  0  0  0
   24.0144   79.0479   16.0957 C   0  0  0  0  0  0  0  0  0  0  0  0
   25.0185   79.6098   16.8527 C   0  0  0  0  0  0  0  0  0  0  0  0
   26.2439   78.9756   17.0413 C   0  0  0  0  0  0  0  0  0  0  0  0
   26.4865   77.7593   16.4698 C   0  0  0  0  0  0  0  0  0  0  0  0
   21.2176   79.7380   18.0227 C   0  0  0  0  0  0  0  0  0  0  0  0
   20.3880   80.9849   17.8339 C   0  0  0  0  0  0  0  0  0  0  0  0
   19.5775   81.3893   19.0117 C   0  0  0  0  0  0  0  0  0  0  0  0
   20.0542   82.5437   19.7073 N   0  0  0  0  0  0  0  0  0  0  0  0
   19.1383   82.9099   20.7913 C   0  0  0  0  0  0  0  0  0  0  0  0
   20.2504   83.6700   18.8476 C   0  0  0  0  0  0  0  0  0  0  0  0
   20.9752   82.3653   20.2014 H   0  0  0  0  0  0  0  0  0  0  0  0
 21 22  1  0  0  0
 22 23  2  0  0  0
 22 27  1  0  0  0
 23 24  1  0  0  0
 24 25  2  0  0  0
 24  1  1  0  0  0
 25 26  1  0  0  0
 26 27  2  0  0  0
  1  2  1  0  0  0
  1  7  1  0  0  0
  2  3  1  0  0  0
  2 28  1  0  0  0
  3  4  2  0  0  0
  3  5  1  0  0  0
  5  6  2  0  0  0
  5  7  1  0  0  0
  7  8  2  0  0  0
  8  9  1  0  0  0
  8 10  1  0  0  0
 10 11  1  0  0  0
 10 14  2  0  0  0
 11 12  1  0  0  0
 12 13  2  0  0  0
 12 18  1  0  0  0
 13 14  1  0  0  0
 13 15  1  0  0  0
 15 16  2  0  0  0
 16 17  1  0  0  0
 17 18  2  0  0  0
 18 19  1  0  0  0
 19 20  1  0  0  0
 28 29  1  0  0  0
 29 30  1  0  0  0
 30 31  1  0  0  0
 31 32  1  0  0  0
 31 33  1  0  0  0
 31 34  1  0  0  0
M  CHG 1   9  -1
M  CHG 1  31   1
M  END
> <minimizedAffinity>
-9.86194

$$$$
199


 25 28  0  0  0  0  0  0  0  0999 V2000
   19.8069   78.0439   19.4056 C   0  0  0  0  0  0  0  0  0  0  0  0
   21.1458   77.8786   18.7348 C   0  0  0  0  0  0  0  0  0  0  0  0
   20.5040   77.7651   17.4167 N   0  0  0  0  0  0  0  0  0  0  0  0
   19.2748   77.4648   18.1274 C   0  0  0  0  0  0  0  0  0  0  0  0
   20.9701   77.9053   16.0807 C   0  0  0  0  0  0  0  0  0  0  0  0
   20.8313   76.9165   15.1597 N   0  0  0  0  0  0  0  0  0  0  0  0
   21.2871   77.0765   13.8827 C   0  0  0  0  0  0  0  0  0  0  0  0
   21.8838   78.2087   13.4972 N   0  0  0  0  0  0  0  0  0  0  0  0
   22.0535   79.2206   14.3499 C   0  0  0  0  0  0  0  0  0  0  0  0
   22.6130   80.4390   14.2103 N   0  0  0  0  0  0  0  0  0  0  0  0
   22.5088   81.0313   15.3800 N   0  0  0  0  0  0  0  0  0  0  0  0
   21.9006   80.2276   16.2598 N   0  0  0  0  0  0  0  0  0  0  0  0
   21.5921   79.0567   15.6402 C   0  0  0  0  0  0  0  0  0  0  0  0
   23.2215   81.0196   13.0160 C   0  0  0  0  0  0  0  0  0  0  0  0
   20.3691   80.4875   19.4274 N   0  0  0  0  0  0  0  0  0  0  0  0
   19.4208   79.4772   19.6503 C   0  0  0  0  0  0  0  0  0  0  0  0
   18.2576   79.6489   20.0429 O   0  0  0  0  0  0  0  0  0  0  0  0
   21.3584   80.2038   19.0824 H   0  0  0  0  0  0  0  0  0  0  0  0
   18.9087   84.2334   22.8587 Br  0  0  0  0  0  0  0  0  0  0  0  0
   19.4868   83.6534   21.1382 C   0  0  0  0  0  0  0  0  0  0  0  0
   19.7242   82.3257   20.8697 C   0  0  0  0  0  0  0  0  0  0  0  0
   20.1500   81.8661   19.6144 C   0  0  0  0  0  0  0  0  0  0  0  0
   20.3221   82.8194   18.6504 C   0  0  0  0  0  0  0  0  0  0  0  0
   20.0777   84.1656   18.9325 C   0  0  0  0  0  0  0  0  0  0  0  0
   19.6659   84.5833   20.1576 C   0  0  0  0  0  0  0  0  0  0  0  0
 19 20  1  0  0  0
 20 21  2  0  0  0
 20 25  1  0  0  0
 21 22  1  0  0  0
 22 23  2  0  0  0
 22 15  1  0  0  0
 23 24  1  0  0  0
 24 25  2  0  0  0
 15 16  1  0  0  0
 16 17  2  0  0  0
 16  1  1  0  0  0
  1  2  1  0  0  0
  1  4  1  0  0  0
  2  3  1  0  0  0
  3  4  1  0  0  0
  3  5  1  0  0  0
  5  6  2  0  0  0
  5 13  1  0  0  0
  6  7  1  0  0  0
  7  8  2  0  0  0
  8  9  1  0  0  0
  9 10  1  0  0  0
  9 13  2  0  0  0
 10 11  1  0  0  0
 10 14  1  0  0  0
 11 12  2  0  0  0
 12 13  1  0  0  0
 15 18  1  0  0  0
M  END
> <minimizedAffinity>
-9.57150

$$$$
200


 21 24  0  0  0  0  0  0  0  0999 V2000
   21.0009   79.1288   18.1837 C   0  0  0  0  0  0  0  0  0  0  0  0
   22.3157   79.3189   18.1653 N   0  0  0  0  0  0  0  0  0  0  0  0
   23.1850   78.6481   17.3910 C   0  0  0  0  0  0  0  0  0  0  0  0
   24.5145   78.6526   17.1910 N   0  0  0  0  0  0  0  0  0  0  0  0
   24.8598   77.7763   16.3011 O   0  0  0  0  0  0  0  0  0  0  0  0
   23.7888   77.1873   15.9021 N   0  0  0  0  0  0  0  0  0  0  0  0
   22.7048   77.6712   16.5302 C   0  0  0  0  0  0  0  0  0  0  0  0
   21.3832   77.4423   16.5139 N   0  0  0  0  0  0  0  0  0  0  0  0
   20.6922   76.5690   15.7855 N   0  0  0  0  0  0  0  0  0  0  0  0
   19.4004   76.7104   16.1195 N   0  0  0  0  0  0  0  0  0  0  0  0
   19.3169   77.6673   17.0458 N   0  0  0  0  0  0  0  0  0  0  0  0
   20.5427   78.1314   17.3011 C   0  0  0  0  0  0  0  0  0  0  0  0
   20.0494   79.8088   18.9800 N   0  0  0  0  0  0  0  0  0  0  0  0
   19.1542   79.3159   19.2610 H   0  0  0  0  0  0  0  0  0  0  0  0
   20.2450   85.0897   18.0626 Br  0  0  0  0  0  0  0  0  0  0  0  0
   20.3061   83.5587   19.1975 C   0  0  0  0  0  0  0  0  0  0  0  0
   20.1600   82.2753   18.6969 C   0  0  0  0  0  0  0  0  0  0  0  0
   20.1931   81.1317   19.4482 C   0  0  0  0  0  0  0  0  0  0  0  0
   20.3944   81.3520   20.8274 C   0  0  0  0  0  0  0  0  0  0  0  0
   20.5429   82.6098   21.3577 C   0  0  0  0  0  0  0  0  0  0  0  0
   20.5001   83.7204   20.5448 C   0  0  0  0  0  0  0  0  0  0  0  0
 15 16  1  0  0  0
 16 17  2  0  0  0
 16 21  1  0  0  0
 17 18  1  0  0  0
 18 19  2  0  0  0
 18 13  1  0  0  0
 19 20  1  0  0  0
 20 21  2  0  0  0
 13  1  1  0  0  0
  1  2  2  0  0  0
  1 12  1  0  0  0
  2  3  1  0  0  0
  3  4  2  0  0  0
  3  7  1  0  0  0
  4  5  1  0  0  0
  5  6  1  0  0  0
  6  7  2  0  0  0
  7  8  1  0  0  0
  8  9  1  0  0  0
  8 12  1  0  0  0
  9 10  2  0  0  0
 10 11  1  0  0  0
 11 12  2  0  0  0
 13 14  1  0  0  0
M  END
> <minimizedAffinity>
-9.11903

$$$$
201


 25 28  0  0  0  0  0  0  0  0999 V2000
   19.9963   77.9125   17.5635 C   0  0  0  0  0  0  0  0  0  0  0  0
   19.5133   77.2243   18.4967 O   0  0  0  0  0  0  0  0  0  0  0  0
   20.1953   79.2931   17.7679 N   0  0  0  0  0  0  0  0  0  0  0  0
   20.5979   79.8491   16.9804 H   0  0  0  0  0  0  0  0  0  0  0  0
   20.1705   76.0298   14.4718 N   0  0  0  0  0  0  0  0  0  0  0  0
   21.3826   76.5093   14.5632 N   0  0  0  0  0  0  0  0  0  0  0  0
   21.5141   77.2419   15.6571 N   0  0  0  0  0  0  0  0  0  0  0  0
   20.3280   77.2415   16.3128 C   0  0  0  0  0  0  0  0  0  0  0  0
   19.4895   76.4671   15.5438 C   0  0  0  0  0  0  0  0  0  0  0  0
   18.3502   71.2476   12.9159 Br  0  0  0  0  0  0  0  0  0  0  0  0
   18.7493   73.0909   12.6390 C   0  0  0  0  0  0  0  0  0  0  0  0
   19.3097   73.8653   13.6601 C   0  0  0  0  0  0  0  0  0  0  0  0
   19.5967   75.1933   13.4580 C   0  0  0  0  0  0  0  0  0  0  0  0
   19.3156   75.7348   12.2225 C   0  0  0  0  0  0  0  0  0  0  0  0
   18.7553   74.9708   11.1928 C   0  0  0  0  0  0  0  0  0  0  0  0
   18.4724   73.6410   11.4065 C   0  0  0  0  0  0  0  0  0  0  0  0
   19.8789   79.9930   18.9922 C   0  0  0  0  0  0  0  0  0  0  0  0
   19.9918   81.4820   18.8099 C   0  0  0  0  0  0  0  0  0  0  0  0
   19.6307   82.4620   19.6727 N   0  0  0  0  0  0  0  0  0  0  0  0
   19.8995   83.6546   19.1312 C   0  0  0  0  0  0  0  0  0  0  0  0
   20.4341   83.3981   17.9132 N   0  0  0  0  0  0  0  0  0  0  0  0
   20.4898   82.0952   17.7211 N   0  0  0  0  0  0  0  0  0  0  0  0
   19.5096   84.7739   20.0639 C   0  0  0  0  0  0  0  0  0  0  0  0
   18.5756   84.0463   21.0078 C   0  0  0  0  0  0  0  0  0  0  0  0
   19.0418   82.6029   20.9933 C   0  0  0  0  0  0  0  0  0  0  0  0
 10 11  1  0  0  0
 11 12  2  0  0  0
 11 16  1  0  0  0
 12 13  1  0  0  0
 13 14  2  0  0  0
 13  5  1  0  0  0
 14 15  1  0  0  0
 15 16  2  0  0  0
  5  6  1  0  0  0
  5  9  1  0  0  0
  6  7  2  0  0  0
  7  8  1  0  0  0
  8  9  2  0  0  0
  8  1  1  0  0  0
  1  2  2  0  0  0
  1  3  1  0  0  0
  3 17  1  0  0  0
 17 18  1  0  0  0
 18 19  1  0  0  0
 18 22  2  0  0  0
 19 20  1  0  0  0
 19 25  1  0  0  0
 20 21  2  0  0  0
 20 23  1  0  0  0
 21 22  1  0  0  0
 23 24  1  0  0  0
 24 25  1  0  0  0
  3  4  1  0  0  0
M  END
> <minimizedAffinity>
-10.24283

$$$$
205


 25 28  0  0  0  0  0  0  0  0999 V2000
   19.7414   81.0433   18.5892 N   0  0  0  0  0  0  0  0  0  0  0  0
   19.0048   79.8512   18.9285 C   0  0  0  0  0  0  0  0  0  0  0  0
   18.4885   79.6464   20.0632 O   0  0  0  0  0  0  0  0  0  0  0  0
   18.9663   78.9638   17.7677 C   0  0  0  0  0  0  0  0  0  0  0  0
   19.0285   77.6157   17.9859 O   0  0  0  0  0  0  0  0  0  0  0  0
   19.7452   77.1720   16.8769 N   0  0  0  0  0  0  0  0  0  0  0  0
   20.7596   78.1100   16.6075 C   0  0  0  0  0  0  0  0  0  0  0  0
   20.3171   79.2506   17.1552 C   0  0  0  0  0  0  0  0  0  0  0  0
   20.5611   80.6527   17.4737 C   0  0  0  0  0  0  0  0  0  0  0  0
   21.3607   81.3992   16.8710 O   0  0  0  0  0  0  0  0  0  0  0  0
   19.5651   76.3090   16.3486 H   0  0  0  0  0  0  0  0  0  0  0  0
   18.8636   83.9125   22.9985 Br  0  0  0  0  0  0  0  0  0  0  0  0
   19.3278   83.7140   21.1596 C   0  0  0  0  0  0  0  0  0  0  0  0
   19.3730   82.4937   20.5342 C   0  0  0  0  0  0  0  0  0  0  0  0
   19.7062   82.3204   19.1926 C   0  0  0  0  0  0  0  0  0  0  0  0
   19.9997   83.4839   18.4984 C   0  0  0  0  0  0  0  0  0  0  0  0
   19.9583   84.7112   19.1149 C   0  0  0  0  0  0  0  0  0  0  0  0
   19.6222   84.8644   20.4568 C   0  0  0  0  0  0  0  0  0  0  0  0
   21.9961   77.9410   15.8601 C   0  0  0  0  0  0  0  0  0  0  0  0
   23.2752   78.1529   16.3829 C   0  0  0  0  0  0  0  0  0  0  0  0
   24.1589   77.8823   15.4428 N   0  0  0  0  0  0  0  0  0  0  0  0
   23.5047   77.5090   14.3456 N   0  0  0  0  0  0  0  0  0  0  0  0
   22.2021   77.5376   14.5706 C   0  0  0  0  0  0  0  0  0  0  0  0
   25.6136   77.9745   15.5548 C   0  0  0  0  0  0  0  0  0  0  0  0
   23.5926   78.6286   17.7499 C   0  0  0  0  0  0  0  0  0  0  0  0
 12 13  1  0  0  0
 13 14  2  0  0  0
 13 18  1  0  0  0
 14 15  1  0  0  0
 15 16  2  0  0  0
 15  1  1  0  0  0
 16 17  1  0  0  0
 17 18  2  0  0  0
  1  2  1  0  0  0
  1  9  1  0  0  0
  2  3  2  0  0  0
  2  4  1  0  0  0
  4  5  1  0  0  0
  4  8  1  0  0  0
  5  6  1  0  0  0
  6  7  1  0  0  0
  7  8  2  0  0  0
  7 19  1  0  0  0
  8  9  1  0  0  0
  9 10  2  0  0  0
 19 20  2  0  0  0
 19 23  1  0  0  0
 20 21  1  0  0  0
 20 25  1  0  0  0
 21 22  1  0  0  0
 21 24  1  0  0  0
 22 23  2  0  0  0
  6 11  1  0  0  0
M  END
> <minimizedAffinity>
-10.44827

$$$$
211


 22 25  0  0  0  0  0  0  0  0999 V2000
   22.0949   79.0404   16.5556 N   0  0  0  0  0  0  0  0  0  0  0  0
   21.0029   78.1890   16.8721 C   0  0  0  0  0  0  0  0  0  0  0  0
   21.0111   76.9092   16.7429 O   0  0  0  0  0  0  0  0  0  0  0  0
   19.8853   79.0076   17.3638 C   0  0  0  0  0  0  0  0  0  0  0  0
   19.9712   79.0738   18.8574 C   0  0  0  0  0  0  0  0  0  0  0  0
   21.1188   79.8964   18.9936 O   0  0  0  0  0  0  0  0  0  0  0  0
   20.5800   81.0261   18.3224 C   0  0  0  0  0  0  0  0  0  0  0  0
   20.2615   80.4094   16.9729 C   0  0  0  0  0  0  0  0  0  0  0  0
   21.5423   80.3082   16.2450 C   0  0  0  0  0  0  0  0  0  0  0  0
   22.0351   81.1913   15.4952 O   0  0  0  0  0  0  0  0  0  0  0  0
   19.3441   81.2251   19.1132 C   0  0  0  0  0  0  0  0  0  0  0  0
   18.9668   79.9836   19.4724 C   0  0  0  0  0  0  0  0  0  0  0  0
   25.7560   75.5847   14.8994 Br  0  0  0  0  0  0  0  0  0  0  0  0
   25.2633   77.1667   15.8486 C   0  0  0  0  0  0  0  0  0  0  0  0
   23.9621   77.5536   15.8904 C   0  0  0  0  0  0  0  0  0  0  0  0
   23.4960   78.6810   16.5493 C   0  0  0  0  0  0  0  0  0  0  0  0
   24.4432   79.4412   17.1962 C   0  0  0  0  0  0  0  0  0  0  0  0
   25.7903   79.0716   17.1721 C   0  0  0  0  0  0  0  0  0  0  0  0
   26.2036   77.9389   16.5024 C   0  0  0  0  0  0  0  0  0  0  0  0
   20.1009   77.7687   19.5462 C   0  0  0  0  0  0  0  0  0  0  0  0
   19.5951   77.8939   20.8412 O   0  0  0  0  0  0  0  0  0  0  0  0
   20.2272   77.5043   21.4956 H   0  0  0  0  0  0  0  0  0  0  0  0
 13 14  1  0  0  0
 14 15  2  0  0  0
 14 19  1  0  0  0
 15 16  1  0  0  0
 16 17  2  0  0  0
 16  1  1  0  0  0
 17 18  1  0  0  0
 18 19  2  0  0  0
  1  2  1  0  0  0
  1  9  1  0  0  0
  2  3  2  0  0  0
  2  4  1  0  0  0
  4  5  1  0  0  0
  4  8  1  0  0  0
  5  6  1  0  0  0
  5 12  1  0  0  0
  5 20  1  0  0  0
  6  7  1  0  0  0
  7  8  1  0  0  0
  7 11  1  0  0  0
  8  9  1  0  0  0
  9 10  2  0  0  0
 11 12  2  0  0  0
 20 21  1  0  0  0
 21 22  1  0  0  0
M  END
> <minimizedAffinity>
-9.27951

$$$$
213


 25 28  0  0  0  0  0  0  0  0999 V2000
   20.0711   80.8566   18.8138 N   0  0  0  0  0  0  0  0  0  0  0  0
   19.4798   79.6608   19.3679 C   0  0  0  0  0  0  0  0  0  0  0  0
   18.4597   79.5640   20.0590 O   0  0  0  0  0  0  0  0  0  0  0  0
   20.3310   78.5073   18.9552 C   0  0  0  0  0  0  0  0  0  0  0  0
   19.6276   77.3466   18.6905 O   0  0  0  0  0  0  0  0  0  0  0  0
   20.4135   76.7612   17.7261 N   0  0  0  0  0  0  0  0  0  0  0  0
   20.7461   77.8401   16.8340 C   0  0  0  0  0  0  0  0  0  0  0  0
   20.7061   78.9370   17.5511 C   0  0  0  0  0  0  0  0  0  0  0  0
   20.8364   80.3935   17.6789 C   0  0  0  0  0  0  0  0  0  0  0  0
   21.5141   81.0725   16.9002 O   0  0  0  0  0  0  0  0  0  0  0  0
   20.7109   75.7838   17.6360 H   0  0  0  0  0  0  0  0  0  0  0  0
   18.9629   83.9208   22.9769 Br  0  0  0  0  0  0  0  0  0  0  0  0
   19.4123   83.6657   21.1455 C   0  0  0  0  0  0  0  0  0  0  0  0
   19.5846   82.3766   20.6312 C   0  0  0  0  0  0  0  0  0  0  0  0
   19.9087   82.1704   19.3095 C   0  0  0  0  0  0  0  0  0  0  0  0
   20.0579   83.2779   18.5122 C   0  0  0  0  0  0  0  0  0  0  0  0
   19.8862   84.5721   19.0239 C   0  0  0  0  0  0  0  0  0  0  0  0
   19.5616   84.7761   20.3480 C   0  0  0  0  0  0  0  0  0  0  0  0
   21.0559   77.7810   15.4311 C   0  0  0  0  0  0  0  0  0  0  0  0
   21.9914   78.6241   14.8351 C   0  0  0  0  0  0  0  0  0  0  0  0
   22.0856   78.3355   13.5245 N   0  0  0  0  0  0  0  0  0  0  0  0
   21.2360   77.3450   13.3129 N   0  0  0  0  0  0  0  0  0  0  0  0
   20.5935   76.9731   14.4180 C   0  0  0  0  0  0  0  0  0  0  0  0
   19.5677   75.8871   14.5743 C   0  0  0  0  0  0  0  0  0  0  0  0
   22.9581   78.9970   12.5406 C   0  0  0  0  0  0  0  0  0  0  0  0
 12 13  1  0  0  0
 13 14  2  0  0  0
 13 18  1  0  0  0
 14 15  1  0  0  0
 15 16  2  0  0  0
 15  1  1  0  0  0
 16 17  1  0  0  0
 17 18  2  0  0  0
  1  2  1  0  0  0
  1  9  1  0  0  0
  2  3  2  0  0  0
  2  4  1  0  0  0
  4  5  1  0  0  0
  4  8  1  0  0  0
  5  6  1  0  0  0
  6  7  1  0  0  0
  7  8  2  0  0  0
  7 19  1  0  0  0
  8  9  1  0  0  0
  9 10  2  0  0  0
 19 20  2  0  0  0
 19 23  1  0  0  0
 20 21  1  0  0  0
 21 22  1  0  0  0
 21 25  1  0  0  0
 22 23  2  0  0  0
 23 24  1  0  0  0
  6 11  1  0  0  0
M  END
> <minimizedAffinity>
-10.98642

$$$$
216


 28 31  0  0  0  0  0  0  0  0999 V2000
   21.7106   77.8092   17.2902 C   0  0  0  0  0  0  0  0  0  0  0  0
   21.0762   76.8107   16.8671 O   0  0  0  0  0  0  0  0  0  0  0  0
   23.0195   78.0997   16.8507 N   0  0  0  0  0  0  0  0  0  0  0  0
   23.7837   79.2482   17.3174 C   0  0  0  0  0  0  0  0  0  0  0  0
   24.7653   79.6602   16.2277 C   0  0  0  0  0  0  0  0  0  0  0  0
   24.3084   79.3080   14.8978 N   0  0  0  0  0  0  0  0  0  0  0  0
   24.3198   77.8942   14.7583 C   0  0  0  0  0  0  0  0  0  0  0  0
   23.6239   77.1875   15.8715 C   0  0  0  0  0  0  0  0  0  0  0  0
   19.8140   80.4571   18.8029 N   0  0  0  0  0  0  0  0  0  0  0  0
   20.3803   79.8890   17.5886 C   0  0  0  0  0  0  0  0  0  0  0  0
   21.0627   78.6758   18.2546 C   0  0  0  0  0  0  0  0  0  0  0  0
   19.8021   78.0748   18.8865 C   0  0  0  0  0  0  0  0  0  0  0  0
   19.2265   79.3303   19.4438 C   0  0  0  0  0  0  0  0  0  0  0  0
   18.3555   79.3874   20.3418 O   0  0  0  0  0  0  0  0  0  0  0  0
   18.9922   83.9844   22.5977 Br  0  0  0  0  0  0  0  0  0  0  0  0
   19.5506   83.5448   20.8477 C   0  0  0  0  0  0  0  0  0  0  0  0
   19.5025   82.2190   20.4319 C   0  0  0  0  0  0  0  0  0  0  0  0
   19.8940   81.8203   19.1673 C   0  0  0  0  0  0  0  0  0  0  0  0
   20.3383   82.8227   18.3334 C   0  0  0  0  0  0  0  0  0  0  0  0
   20.4116   84.1562   18.6794 C   0  0  0  0  0  0  0  0  0  0  0  0
   20.0112   84.5072   19.9504 C   0  0  0  0  0  0  0  0  0  0  0  0
   23.1169   79.9888   14.5342 C   0  0  0  0  0  0  0  0  0  0  0  0
   23.1488   80.5901   13.1522 C   0  0  0  0  0  0  0  0  0  0  0  0
   22.2538   79.9650   12.2212 N   0  0  0  0  0  0  0  0  0  0  0  0
   21.9700   80.3289   10.9693 C   0  0  0  0  0  0  0  0  0  0  0  0
   21.0689   79.4714   10.4436 N   0  0  0  0  0  0  0  0  0  0  0  0
   20.7767   78.5525   11.3715 C   0  0  0  0  0  0  0  0  0  0  0  0
   21.5241   78.8714   12.4812 C   0  0  0  0  0  0  0  0  0  0  0  0
 15 16  1  0  0  0
 16 17  2  0  0  0
 16 21  1  0  0  0
 17 18  1  0  0  0
 18 19  2  0  0  0
 18  9  1  0  0  0
 19 20  1  0  0  0
 20 21  2  0  0  0
  9 10  1  0  0  0
  9 13  1  0  0  0
 10 11  1  0  0  0
 11 12  1  0  0  0
 11  1  1  0  0  0
 12 13  1  0  0  0
 13 14  2  0  0  0
  1  2  2  0  0  0
  1  3  1  0  0  0
  3  4  1  0  0  0
  3  8  1  0  0  0
  4  5  1  0  0  0
  5  6  1  0  0  0
  6  7  1  0  0  0
  6 22  1  0  0  0
  7  8  1  0  0  0
 22 23  1  0  0  0
 23 24  1  0  0  0
 24 25  1  0  0  0
 24 28  1  0  0  0
 25 26  2  0  0  0
 26 27  1  0  0  0
 27 28  2  0  0  0
M  END
> <minimizedAffinity>
-10.04926

$$$$
219


 27 30  0  0  0  0  0  0  0  0999 V2000
   20.1211   76.2514   14.1494 N   0  0  0  0  0  0  0  0  0  0  0  0
   20.3050   76.8655   15.4188 C   0  0  0  0  0  0  0  0  0  0  0  0
   20.1274   76.0927   16.4240 O   0  0  0  0  0  0  0  0  0  0  0  0
   20.2577   76.8325   13.2957 H   0  0  0  0  0  0  0  0  0  0  0  0
   20.6717   78.2807   15.6313 C   0  0  0  0  0  0  0  0  0  0  0  0
   22.0798   78.5185   15.7954 N   0  0  0  0  0  0  0  0  0  0  0  0
   22.9665   78.6522   14.6719 C   0  0  0  0  0  0  0  0  0  0  0  0
   22.7592   78.3058   13.4821 O   0  0  0  0  0  0  0  0  0  0  0  0
   24.1979   79.2791   15.1518 C   0  0  0  0  0  0  0  0  0  0  0  0
   24.0125   79.5342   16.6610 C   0  0  0  0  0  0  0  0  0  0  0  0
   25.2229   78.9814   17.3269 C   0  0  0  0  0  0  0  0  0  0  0  0
   26.2677   79.1367   16.2017 C   0  0  0  0  0  0  0  0  0  0  0  0
   25.4010   78.3766   15.1779 C   0  0  0  0  0  0  0  0  0  0  0  0
   25.0678   77.1753   16.0159 C   0  0  0  0  0  0  0  0  0  0  0  0
   25.1074   77.5019   17.3035 C   0  0  0  0  0  0  0  0  0  0  0  0
   22.8440   78.6798   16.9980 C   0  0  0  0  0  0  0  0  0  0  0  0
   22.5553   78.1820   18.0999 O   0  0  0  0  0  0  0  0  0  0  0  0
   19.7579   74.8748   14.0002 C   0  0  0  0  0  0  0  0  0  0  0  0
   18.5734   74.7339   13.0314 C   0  0  0  0  0  0  0  0  0  0  0  0
   18.8676   75.1545   11.8444 O   0  0  0  0  0  0  0  0  0  0  0  0
   20.5989   79.3719    9.3370 Br  0  0  0  0  0  0  0  0  0  0  0  0
   20.0248   77.5532    9.4318 C   0  0  0  0  0  0  0  0  0  0  0  0
   19.6414   76.9743   10.6105 C   0  0  0  0  0  0  0  0  0  0  0  0
   19.2145   75.6376   10.7090 C   0  0  0  0  0  0  0  0  0  0  0  0
   19.2095   74.9296    9.4902 C   0  0  0  0  0  0  0  0  0  0  0  0
   19.5934   75.5082    8.3054 C   0  0  0  0  0  0  0  0  0  0  0  0
   20.0036   76.8260    8.2726 C   0  0  0  0  0  0  0  0  0  0  0  0
 21 22  1  0  0  0
 22 23  2  0  0  0
 22 27  1  0  0  0
 23 24  1  0  0  0
 24 25  2  0  0  0
 24 20  1  0  0  0
 25 26  1  0  0  0
 26 27  2  0  0  0
 20 19  1  0  0  0
 19 18  1  0  0  0
 18  1  1  0  0  0
  1  2  1  0  0  0
  2  3  2  0  0  0
  2  5  1  0  0  0
  5  6  1  0  0  0
  6  7  1  0  0  0
  6 16  1  0  0  0
  7  8  2  0  0  0
  7  9  1  0  0  0
  9 10  1  0  0  0
  9 13  1  0  0  0
 10 11  1  0  0  0
 10 16  1  0  0  0
 11 12  1  0  0  0
 11 15  1  0  0  0
 12 13  1  0  0  0
 13 14  1  0  0  0
 14 15  2  0  0  0
 16 17  2  0  0  0
  1  4  1  0  0  0
M  END
> <minimizedAffinity>
-9.44360

$$$$
226


 30 33  0  0  0  0  0  0  0  0999 V2000
   19.9358   76.6388   13.1929 N   0  0  0  0  0  0  0  0  0  0  0  0
   19.9985   76.8500   11.8677 C   0  0  0  0  0  0  0  0  0  0  0  0
   20.9154   77.8478   11.5973 C   0  0  0  0  0  0  0  0  0  0  0  0
   21.3898   78.2157   12.7938 N   0  0  0  0  0  0  0  0  0  0  0  0
   20.8151   77.5010   13.7776 C   0  0  0  0  0  0  0  0  0  0  0  0
   21.1464   78.2274   10.3275 N   0  0  0  0  0  0  0  0  0  0  0  0
   20.4913   77.6457    9.3075 C   0  0  0  0  0  0  0  0  0  0  0  0
   20.6764   77.9694    8.1081 O   0  0  0  0  0  0  0  0  0  0  0  0
   19.5856   76.6608    9.5596 N   0  0  0  0  0  0  0  0  0  0  0  0
   19.3199   76.2468   10.8114 C   0  0  0  0  0  0  0  0  0  0  0  0
   18.4638   75.3237   11.0065 O   0  0  0  0  0  0  0  0  0  0  0  0
   22.1003   79.2707   10.0114 C   0  0  0  0  0  0  0  0  0  0  0  0
   19.0985   76.2335    8.7378 H   0  0  0  0  0  0  0  0  0  0  0  0
   21.0373   77.5719   15.1739 N   0  0  0  0  0  0  0  0  0  0  0  0
   20.0646   77.0180   16.0593 C   0  0  0  0  0  0  0  0  0  0  0  0
   20.4795   76.7905   17.4651 C   0  0  0  0  0  0  0  0  0  0  0  0
   21.5523   77.6133   17.9403 N   0  0  0  0  0  0  0  0  0  0  0  0
   22.6440   77.5185   16.9908 C   0  0  0  0  0  0  0  0  0  0  0  0
   22.2253   78.1874   15.6803 C   0  0  0  0  0  0  0  0  0  0  0  0
   21.1637   78.9681   18.2108 C   0  0  0  0  0  0  0  0  0  0  0  0
   19.1151   75.6854   13.8845 C   0  0  0  0  0  0  0  0  0  0  0  0
   19.6243   74.2828   13.7753 C   0  0  0  0  0  0  0  0  0  0  0  0
   20.7657   73.9899   14.1671 O   0  0  0  0  0  0  0  0  0  0  0  0
   16.0704   69.8167   11.3751 Br  0  0  0  0  0  0  0  0  0  0  0  0
   17.1883   71.1692   12.1083 C   0  0  0  0  0  0  0  0  0  0  0  0
   16.6445   72.3761   12.5233 C   0  0  0  0  0  0  0  0  0  0  0  0
   17.4328   73.3800   13.0608 C   0  0  0  0  0  0  0  0  0  0  0  0
   18.7898   73.2269   13.2061 C   0  0  0  0  0  0  0  0  0  0  0  0
   19.3201   72.0191   12.7887 C   0  0  0  0  0  0  0  0  0  0  0  0
   18.5489   71.0127   12.2535 C   0  0  0  0  0  0  0  0  0  0  0  0
 24 25  1  0  0  0
 25 26  2  0  0  0
 25 30  1  0  0  0
 26 27  1  0  0  0
 27 28  2  0  0  0
 28 29  1  0  0  0
 28 22  1  0  0  0
 29 30  2  0  0  0
 22 23  2  0  0  0
 22 21  1  0  0  0
 21  1  1  0  0  0
  1  2  1  0  0  0
  1  5  1  0  0  0
  2  3  2  0  0  0
  2 10  1  0  0  0
  3  4  1  0  0  0
  3  6  1  0  0  0
  4  5  2  0  0  0
  5 14  1  0  0  0
 14 15  1  0  0  0
 14 19  1  0  0  0
 15 16  1  0  0  0
 16 17  1  0  0  0
 17 18  1  0  0  0
 17 20  1  0  0  0
 18 19  1  0  0  0
  6  7  1  0  0  0
  6 12  1  0  0  0
  7  8  2  0  0  0
  7  9  1  0  0  0
  9 10  1  0  0  0
 10 11  2  0  0  0
  9 13  1  0  0  0
M  END
> <minimizedAffinity>
-10.31597

$$$$
231


 34 37  0  0  0  0  0  0  0  0999 V2000
   19.7390   78.0008   17.3000 C   0  0  0  0  0  0  0  0  0  0  0  0
   20.4231   79.2934   16.9273 C   0  0  0  0  0  0  0  0  0  0  0  0
   19.9353   80.1994   17.9417 N   0  0  0  0  0  0  0  0  0  0  0  0
   19.7858   79.4275   19.1289 C   0  0  0  0  0  0  0  0  0  0  0  0
   19.5148   79.8842   20.2824 O   0  0  0  0  0  0  0  0  0  0  0  0
   20.0024   78.0087   18.7861 C   0  0  0  0  0  0  0  0  0  0  0  0
   20.3188   77.0862   19.5539 O   0  0  0  0  0  0  0  0  0  0  0  0
   21.8730   79.2067   16.8464 C   0  0  0  0  0  0  0  0  0  0  0  0
   22.5546   79.2665   15.6224 C   0  0  0  0  0  0  0  0  0  0  0  0
   23.9302   79.1878   15.5538 C   0  0  0  0  0  0  0  0  0  0  0  0
   24.6944   79.0481   16.6976 C   0  0  0  0  0  0  0  0  0  0  0  0
   24.0446   78.9884   17.9120 C   0  0  0  0  0  0  0  0  0  0  0  0
   22.6618   79.0679   17.9644 C   0  0  0  0  0  0  0  0  0  0  0  0
   26.0806   78.9661   16.6567 O   0  0  0  0  0  0  0  0  0  0  0  0
   24.6089   79.2455   14.3493 O   0  0  0  0  0  0  0  0  0  0  0  0
   24.0346   78.8989   13.1150 C   0  0  0  0  0  0  0  0  0  0  0  0
   20.2677   76.8134   16.6546 C   0  0  0  0  0  0  0  0  0  0  0  0
   20.9429   75.9776   17.2902 O   0  0  0  0  0  0  0  0  0  0  0  0
   19.1428   75.7370   10.7217 Br  0  0  0  0  0  0  0  0  0  0  0  0
   19.5055   76.0887   12.5509 C   0  0  0  0  0  0  0  0  0  0  0  0
   18.8291   75.3748   13.5107 C   0  0  0  0  0  0  0  0  0  0  0  0
   19.0812   75.6189   14.8356 C   0  0  0  0  0  0  0  0  0  0  0  0
   20.0142   76.5786   15.2449 C   0  0  0  0  0  0  0  0  0  0  0  0
   20.6587   77.2600   14.2325 C   0  0  0  0  0  0  0  0  0  0  0  0
   20.4304   77.0414   12.8864 C   0  0  0  0  0  0  0  0  0  0  0  0
   19.6333   81.6066   17.8583 C   0  0  0  0  0  0  0  0  0  0  0  0
   19.3931   82.2478   19.1913 C   0  0  0  0  0  0  0  0  0  0  0  0
   20.2525   83.3197   19.5163 N   0  0  0  0  0  0  0  0  0  0  0  0
   20.8047   83.0709   20.8520 C   0  0  0  0  0  0  0  0  0  0  0  0
   19.7846   83.2236   21.9313 C   0  0  0  0  0  0  0  0  0  0  0  0
   18.6275   83.8549   21.5456 O   0  0  0  0  0  0  0  0  0  0  0  0
   18.8941   84.9507   20.7624 C   0  0  0  0  0  0  0  0  0  0  0  0
   19.6807   84.6192   19.5232 C   0  0  0  0  0  0  0  0  0  0  0  0
   21.0971   83.3376   18.8794 H   0  0  0  0  0  0  0  0  0  0  0  0
 19 20  1  0  0  0
 20 21  2  0  0  0
 20 25  1  0  0  0
 21 22  1  0  0  0
 22 23  2  0  0  0
 23 24  1  0  0  0
 23 17  1  0  0  0
 24 25  2  0  0  0
 17 18  2  0  0  0
 17  1  1  0  0  0
  1  2  1  0  0  0
  1  6  1  0  0  0
  2  3  1  0  0  0
  2  8  1  0  0  0
  3  4  1  0  0  0
  3 26  1  0  0  0
  4  5  2  0  0  0
  4  6  1  0  0  0
  6  7  2  0  0  0
 26 27  1  0  0  0
 27 28  1  0  0  0
 28 29  1  0  0  0
 28 33  1  0  0  0
 29 30  1  0  0  0
 30 31  1  0  0  0
 31 32  1  0  0  0
 32 33  1  0  0  0
  8  9  2  0  0  0
  8 13  1  0  0  0
  9 10  1  0  0  0
 10 11  2  0  0  0
 10 15  1  0  0  0
 11 12  1  0  0  0
 11 14  1  0  0  0
 12 13  2  0  0  0
 15 16  1  0  0  0
 28 34  1  0  0  0
M  CHG 1  14  -1
M  CHG 1  28   1
M  END
> <minimizedAffinity>
-9.55501

$$$$
235


 25 28  0  0  0  0  0  0  0  0999 V2000
   21.8342   80.4571   16.8805 C   0  0  0  0  0  0  0  0  0  0  0  0
   23.0785   79.7238   16.7087 N   0  0  0  0  0  0  0  0  0  0  0  0
   23.9628   79.0314   17.5101 N   0  0  0  0  0  0  0  0  0  0  0  0
   24.9621   78.3613   17.0549 C   0  0  0  0  0  0  0  0  0  0  0  0
   25.2063   78.3206   15.6315 C   0  0  0  0  0  0  0  0  0  0  0  0
   24.4249   78.9770   14.8057 C   0  0  0  0  0  0  0  0  0  0  0  0
   23.3031   79.7737   15.2663 C   0  0  0  0  0  0  0  0  0  0  0  0
   21.9622   79.3859   14.7514 C   0  0  0  0  0  0  0  0  0  0  0  0
   20.9651   79.7685   15.8513 C   0  0  0  0  0  0  0  0  0  0  0  0
   20.4389   78.4856   16.3124 C   0  0  0  0  0  0  0  0  0  0  0  0
   19.7903   78.2997   17.3790 O   0  0  0  0  0  0  0  0  0  0  0  0
   20.7764   77.4864   15.3700 N   0  0  0  0  0  0  0  0  0  0  0  0
   21.8113   77.9458   14.5102 C   0  0  0  0  0  0  0  0  0  0  0  0
   22.4752   77.2587   13.6966 O   0  0  0  0  0  0  0  0  0  0  0  0
   21.3164   80.3220   18.2490 C   0  0  0  0  0  0  0  0  0  0  0  0
   21.5672   79.2240   18.8443 O   0  0  0  0  0  0  0  0  0  0  0  0
   18.1079   84.6758   21.2269 Br  0  0  0  0  0  0  0  0  0  0  0  0
   19.1029   83.3411   20.2923 C   0  0  0  0  0  0  0  0  0  0  0  0
   19.2091   82.0572   20.7808 C   0  0  0  0  0  0  0  0  0  0  0  0
   19.9146   81.0619   20.1435 C   0  0  0  0  0  0  0  0  0  0  0  0
   20.5569   81.3248   18.9611 C   0  0  0  0  0  0  0  0  0  0  0  0
   20.4571   82.6128   18.4597 C   0  0  0  0  0  0  0  0  0  0  0  0
   19.7494   83.6014   19.1039 C   0  0  0  0  0  0  0  0  0  0  0  0
   20.1707   76.1790   15.2727 C   0  0  0  0  0  0  0  0  0  0  0  0
   19.5467   75.9056   13.9381 C   0  0  0  0  0  0  0  0  0  0  0  0
 17 18  1  0  0  0
 18 19  2  0  0  0
 18 23  1  0  0  0
 19 20  1  0  0  0
 20 21  2  0  0  0
 21 22  1  0  0  0
 21 15  1  0  0  0
 22 23  2  0  0  0
 15 16  2  0  0  0
 15  1  1  0  0  0
  1  2  1  0  0  0
  1  9  1  0  0  0
  2  3  1  0  0  0
  2  7  1  0  0  0
  3  4  2  0  0  0
  4  5  1  0  0  0
  5  6  2  0  0  0
  6  7  1  0  0  0
  7  8  1  0  0  0
  8  9  1  0  0  0
  8 13  1  0  0  0
  9 10  1  0  0  0
 10 11  2  0  0  0
 10 12  1  0  0  0
 12 13  1  0  0  0
 12 24  1  0  0  0
 13 14  2  0  0  0
 24 25  1  0  0  0
M  END
> <minimizedAffinity>
-8.54382

$$$$
243


 30 33  0  0  0  0  0  0  0  0999 V2000
   20.3373   76.8489   16.9866 C   0  0  0  0  0  0  0  0  0  0  0  0
   19.2649   77.4642   17.8520 C   0  0  0  0  0  0  0  0  0  0  0  0
   19.9173   78.5928   18.4804 N   0  0  0  0  0  0  0  0  0  0  0  0
   21.3604   78.4378   18.4043 C   0  0  0  0  0  0  0  0  0  0  0  0
   21.6596   77.2241   17.5961 C   0  0  0  0  0  0  0  0  0  0  0  0
   21.8749   79.6897   17.8043 C   0  0  0  0  0  0  0  0  0  0  0  0
   22.6867   79.6272   16.8544 O   0  0  0  0  0  0  0  0  0  0  0  0
   21.4210   80.9208   18.3367 N   0  0  0  0  0  0  0  0  0  0  0  0
   20.2304   81.0555   19.1438 C   0  0  0  0  0  0  0  0  0  0  0  0
   19.4680   79.7743   19.1312 C   0  0  0  0  0  0  0  0  0  0  0  0
   18.3364   79.7038   19.7323 O   0  0  0  0  0  0  0  0  0  0  0  0
   22.0076   81.7672   18.1122 H   0  0  0  0  0  0  0  0  0  0  0  0
   20.3200   76.4793   14.5455 C   0  0  0  0  0  0  0  0  0  0  0  0
   20.3528   75.2142   14.7198 O   0  0  0  0  0  0  0  0  0  0  0  0
   20.3104   77.3514   15.6370 N   0  0  0  0  0  0  0  0  0  0  0  0
   20.2836   78.3745   15.4926 H   0  0  0  0  0  0  0  0  0  0  0  0
   20.1828   78.3486    8.6316 Br  0  0  0  0  0  0  0  0  0  0  0  0
   20.2449   77.8013   10.4502 C   0  0  0  0  0  0  0  0  0  0  0  0
   20.9891   78.4536   11.4121 C   0  0  0  0  0  0  0  0  0  0  0  0
   21.0125   78.0300   12.7253 C   0  0  0  0  0  0  0  0  0  0  0  0
   20.2942   76.9303   13.1467 C   0  0  0  0  0  0  0  0  0  0  0  0
   19.5526   76.2799   12.1877 C   0  0  0  0  0  0  0  0  0  0  0  0
   19.5217   76.6933   10.8773 C   0  0  0  0  0  0  0  0  0  0  0  0
   20.5656   81.5125   20.5431 C   0  0  0  0  0  0  0  0  0  0  0  0
   19.7399   82.6859   20.9452 C   0  0  0  0  0  0  0  0  0  0  0  0
   19.6426   83.0574   22.2868 C   0  0  0  0  0  0  0  0  0  0  0  0
   18.8657   84.1505   22.6005 C   0  0  0  0  0  0  0  0  0  0  0  0
   18.1844   84.8900   21.6494 C   0  0  0  0  0  0  0  0  0  0  0  0
   18.3111   84.4856   20.3410 C   0  0  0  0  0  0  0  0  0  0  0  0
   19.0728   83.4007   19.9669 C   0  0  0  0  0  0  0  0  0  0  0  0
 17 18  1  0  0  0
 18 19  2  0  0  0
 18 23  1  0  0  0
 19 20  1  0  0  0
 20 21  2  0  0  0
 21 22  1  0  0  0
 21 13  1  0  0  0
 22 23  2  0  0  0
 13 14  2  0  0  0
 13 15  1  0  0  0
 15  1  1  0  0  0
  1  2  1  0  0  0
  1  5  1  0  0  0
  2  3  1  0  0  0
  3  4  1  0  0  0
  3 10  1  0  0  0
  4  5  1  0  0  0
  4  6  1  0  0  0
  6  7  2  0  0  0
  6  8  1  0  0  0
  8  9  1  0  0  0
  9 10  1  0  0  0
  9 24  1  0  0  0
 10 11  2  0  0  0
 24 25  1  0  0  0
 25 26  2  0  0  0
 25 30  1  0  0  0
 26 27  1  0  0  0
 27 28  2  0  0  0
 28 29  1  0  0  0
 29 30  2  0  0  0
 15 16  1  0  0  0
  8 12  1  0  0  0
M  END
> <minimizedAffinity>
-10.64173

$$$$
244


 25 28  0  0  0  0  0  0  0  0999 V2000
   21.8767   77.4279   17.0736 C   0  0  0  0  0  0  0  0  0  0  0  0
   20.9202   77.2769   18.2335 C   0  0  0  0  0  0  0  0  0  0  0  0
   20.7444   78.6439   18.6908 N   0  0  0  0  0  0  0  0  0  0  0  0
   21.9180   79.4168   18.3346 C   0  0  0  0  0  0  0  0  0  0  0  0
   22.7799   78.5751   17.4550 C   0  0  0  0  0  0  0  0  0  0  0  0
   21.4270   80.6476   17.6643 C   0  0  0  0  0  0  0  0  0  0  0  0
   21.9128   81.0995   16.6013 O   0  0  0  0  0  0  0  0  0  0  0  0
   20.3520   81.3719   18.2333 N   0  0  0  0  0  0  0  0  0  0  0  0
   19.3509   80.7459   19.0718 C   0  0  0  0  0  0  0  0  0  0  0  0
   19.3569   81.6644   20.2523 C   0  0  0  0  0  0  0  0  0  0  0  0
   19.4573   83.0348   19.5718 C   0  0  0  0  0  0  0  0  0  0  0  0
   19.9878   82.7593   18.1614 C   0  0  0  0  0  0  0  0  0  0  0  0
   19.7136   79.3398   19.3805 C   0  0  0  0  0  0  0  0  0  0  0  0
   19.0865   78.7096   20.2994 O   0  0  0  0  0  0  0  0  0  0  0  0
   21.8996   77.5375   14.6170 C   0  0  0  0  0  0  0  0  0  0  0  0
   23.0499   77.0518   14.6182 O   0  0  0  0  0  0  0  0  0  0  0  0
   21.2298   77.7601   15.8469 N   0  0  0  0  0  0  0  0  0  0  0  0
   20.2618   78.1672   15.8918 H   0  0  0  0  0  0  0  0  0  0  0  0
   19.1237   78.7510    9.2242 Br  0  0  0  0  0  0  0  0  0  0  0  0
   20.0068   78.4309   10.8737 C   0  0  0  0  0  0  0  0  0  0  0  0
   19.7176   77.2862   11.5965 C   0  0  0  0  0  0  0  0  0  0  0  0
   20.3290   77.0061   12.7986 C   0  0  0  0  0  0  0  0  0  0  0  0
   21.2637   77.8688   13.3267 C   0  0  0  0  0  0  0  0  0  0  0  0
   21.5531   78.9971   12.6203 C   0  0  0  0  0  0  0  0  0  0  0  0
   20.9445   79.2971   11.4037 C   0  0  0  0  0  0  0  0  0  0  0  0
 19 20  1  0  0  0
 20 21  2  0  0  0
 20 25  1  0  0  0
 21 22  1  0  0  0
 22 23  2  0  0  0
 23 24  1  0  0  0
 23 15  1  0  0  0
 24 25  2  0  0  0
 15 16  2  0  0  0
 15 17  1  0  0  0
 17  1  1  0  0  0
  1  2  1  0  0  0
  1  5  1  0  0  0
  2  3  1  0  0  0
  3  4  1  0  0  0
  3 13  1  0  0  0
  4  5  1  0  0  0
  4  6  1  0  0  0
  6  7  2  0  0  0
  6  8  1  0  0  0
  8  9  1  0  0  0
  8 12  1  0  0  0
  9 10  1  0  0  0
  9 13  1  0  0  0
 10 11  1  0  0  0
 11 12  1  0  0  0
 13 14  2  0  0  0
 17 18  1  0  0  0
M  END
> <minimizedAffinity>
-9.23004

$$$$
247


 23 26  0  0  0  0  0  0  0  0999 V2000
   21.9932   77.5255   15.0222 N   0  0  0  0  0  0  0  0  0  0  0  0
   22.2062   77.8039   16.4013 C   0  0  0  0  0  0  0  0  0  0  0  0
   21.7435   77.0402   17.3159 O   0  0  0  0  0  0  0  0  0  0  0  0
   23.0026   79.0476   16.5667 C   0  0  0  0  0  0  0  0  0  0  0  0
   23.3727   79.3760   15.1331 C   0  0  0  0  0  0  0  0  0  0  0  0
   24.7800   78.8219   15.0720 C   0  0  0  0  0  0  0  0  0  0  0  0
   25.3150   79.5080   16.3464 C   0  0  0  0  0  0  0  0  0  0  0  0
   24.3108   78.7714   17.2527 C   0  0  0  0  0  0  0  0  0  0  0  0
   24.6890   77.3650   16.8689 C   0  0  0  0  0  0  0  0  0  0  0  0
   24.8241   77.4118   15.5491 C   0  0  0  0  0  0  0  0  0  0  0  0
   22.4391   78.6341   14.2674 C   0  0  0  0  0  0  0  0  0  0  0  0
   22.1221   78.9468   13.0994 O   0  0  0  0  0  0  0  0  0  0  0  0
   20.0946   75.9953   14.6388 C   0  0  0  0  0  0  0  0  0  0  0  0
   19.3225   76.6833   15.3826 O   0  0  0  0  0  0  0  0  0  0  0  0
   21.4381   76.3668   14.4195 N   0  0  0  0  0  0  0  0  0  0  0  0
   22.0407   75.7930   13.8023 H   0  0  0  0  0  0  0  0  0  0  0  0
   17.5813   71.0630   11.9738 Br  0  0  0  0  0  0  0  0  0  0  0  0
   18.3891   72.5835   12.8060 C   0  0  0  0  0  0  0  0  0  0  0  0
   17.7591   73.7930   12.7624 C   0  0  0  0  0  0  0  0  0  0  0  0
   18.3257   74.8999   13.3598 C   0  0  0  0  0  0  0  0  0  0  0  0
   19.5482   74.8124   14.0185 C   0  0  0  0  0  0  0  0  0  0  0  0
   20.1688   73.5848   14.0524 C   0  0  0  0  0  0  0  0  0  0  0  0
   19.6151   72.4785   13.4620 C   0  0  0  0  0  0  0  0  0  0  0  0
 17 18  1  0  0  0
 18 19  2  0  0  0
 18 23  1  0  0  0
 19 20  1  0  0  0
 20 21  2  0  0  0
 21 22  1  0  0  0
 21 13  1  0  0  0
 22 23  2  0  0  0
 13 14  2  0  0  0
 13 15  1  0  0  0
 15  1  1  0  0  0
  1  2  1  0  0  0
  1 11  1  0  0  0
  2  3  2  0  0  0
  2  4  1  0  0  0
  4  5  1  0  0  0
  4  8  1  0  0  0
  5  6  1  0  0  0
  5 11  1  0  0  0
  6  7  1  0  0  0
  6 10  1  0  0  0
  7  8  1  0  0  0
  8  9  1  0  0  0
  9 10  2  0  0  0
 11 12  2  0  0  0
 15 16  1  0  0  0
M  END
> <minimizedAffinity>
-10.66367

$$$$
257


 31 34  0  0  0  0  0  0  0  0999 V2000
   21.3781   76.9112   15.3773 C   0  0  0  0  0  0  0  0  0  0  0  0
   20.8194   77.5696   16.3599 C   0  0  0  0  0  0  0  0  0  0  0  0
   21.4753   78.4112   17.4112 C   0  0  0  0  0  0  0  0  0  0  0  0
   20.5154   79.5028   17.5255 N   0  0  0  0  0  0  0  0  0  0  0  0
   19.2295   78.8569   17.4397 C   0  0  0  0  0  0  0  0  0  0  0  0
   18.1813   79.3116   17.9261 O   0  0  0  0  0  0  0  0  0  0  0  0
   19.4028   77.6027   16.6906 C   0  0  0  0  0  0  0  0  0  0  0  0
   18.5269   76.7459   16.4010 O   0  0  0  0  0  0  0  0  0  0  0  0
   22.7796   76.9606   15.2429 O   0  0  0  0  0  0  0  0  0  0  0  0
   17.9792   73.5440   11.4481 Br  0  0  0  0  0  0  0  0  0  0  0  0
   19.0194   74.5667   12.6738 C   0  0  0  0  0  0  0  0  0  0  0  0
   19.5442   74.0444   13.8365 C   0  0  0  0  0  0  0  0  0  0  0  0
   20.2942   74.7993   14.7117 C   0  0  0  0  0  0  0  0  0  0  0  0
   20.5580   76.1501   14.4509 C   0  0  0  0  0  0  0  0  0  0  0  0
   20.0261   76.6567   13.2843 C   0  0  0  0  0  0  0  0  0  0  0  0
   19.2669   75.8947   12.3985 C   0  0  0  0  0  0  0  0  0  0  0  0
   22.8158   78.8627   16.9635 C   0  0  0  0  0  0  0  0  0  0  0  0
   22.8796   79.6995   15.9155 N   0  0  0  0  0  0  0  0  0  0  0  0
   24.0271   80.1806   15.4313 C   0  0  0  0  0  0  0  0  0  0  0  0
   25.1985   79.7949   16.0401 C   0  0  0  0  0  0  0  0  0  0  0  0
   25.1806   78.9395   17.1164 C   0  0  0  0  0  0  0  0  0  0  0  0
   23.9752   78.4743   17.5753 C   0  0  0  0  0  0  0  0  0  0  0  0
   20.8033   80.8970   17.6975 C   0  0  0  0  0  0  0  0  0  0  0  0
   20.3757   81.4045   19.0658 C   0  0  0  0  0  0  0  0  0  0  0  0
   20.0503   82.8915   18.9266 C   0  0  0  0  0  0  0  0  0  0  0  0
   19.3041   83.3844   20.0680 N   0  0  0  0  0  0  0  0  0  0  0  0
   19.1561   82.7878   21.2740 C   0  0  0  0  0  0  0  0  0  0  0  0
   18.3918   83.5695   22.0554 N   0  0  0  0  0  0  0  0  0  0  0  0
   18.0359   84.6713   21.3784 C   0  0  0  0  0  0  0  0  0  0  0  0
   18.6183   84.5355   20.1344 C   0  0  0  0  0  0  0  0  0  0  0  0
   18.1029   83.3676   23.0537 H   0  0  0  0  0  0  0  0  0  0  0  0
 10 11  1  0  0  0
 11 12  2  0  0  0
 11 16  1  0  0  0
 12 13  1  0  0  0
 13 14  2  0  0  0
 14 15  1  0  0  0
 14  1  1  0  0  0
 15 16  2  0  0  0
  1  2  2  0  0  0
  1  9  1  0  0  0
  2  3  1  0  0  0
  2  7  1  0  0  0
  3  4  1  0  0  0
  3 17  1  0  0  0
  4  5  1  0  0  0
  4 23  1  0  0  0
  5  6  2  0  0  0
  5  7  1  0  0  0
  7  8  2  0  0  0
 23 24  1  0  0  0
 24 25  1  0  0  0
 25 26  1  0  0  0
 26 27  1  0  0  0
 26 30  1  0  0  0
 27 28  2  0  0  0
 28 29  1  0  0  0
 29 30  2  0  0  0
 17 18  2  0  0  0
 17 22  1  0  0  0
 18 19  1  0  0  0
 19 20  2  0  0  0
 20 21  1  0  0  0
 21 22  2  0  0  0
 28 31  1  0  0  0
M  CHG 1   9  -1
M  END
> <minimizedAffinity>
-9.16587

$$$$
263


 34 37  0  0  0  0  0  0  0  0999 V2000
   21.1005   80.3387   17.1439 C   0  0  0  0  0  0  0  0  0  0  0  0
   20.3246   79.3838   16.7034 C   0  0  0  0  0  0  0  0  0  0  0  0
   20.5006   78.5759   15.4439 C   0  0  0  0  0  0  0  0  0  0  0  0
   19.9573   77.3075   15.7892 N   0  0  0  0  0  0  0  0  0  0  0  0
   18.9256   77.5420   16.7780 C   0  0  0  0  0  0  0  0  0  0  0  0
   17.9874   76.7732   17.0981 O   0  0  0  0  0  0  0  0  0  0  0  0
   19.1521   78.8582   17.3649 C   0  0  0  0  0  0  0  0  0  0  0  0
   18.4353   79.3929   18.2767 O   0  0  0  0  0  0  0  0  0  0  0  0
   22.2438   80.6715   16.3837 O   0  0  0  0  0  0  0  0  0  0  0  0
   19.5526   83.5745   22.0955 Br  0  0  0  0  0  0  0  0  0  0  0  0
   20.0743   82.5116   20.5799 C   0  0  0  0  0  0  0  0  0  0  0  0
   19.8921   83.0512   19.3268 C   0  0  0  0  0  0  0  0  0  0  0  0
   20.2552   82.3157   18.2342 C   0  0  0  0  0  0  0  0  0  0  0  0
   20.8012   81.0415   18.3805 C   0  0  0  0  0  0  0  0  0  0  0  0
   20.9754   80.5201   19.6202 C   0  0  0  0  0  0  0  0  0  0  0  0
   20.6133   81.2517   20.7317 C   0  0  0  0  0  0  0  0  0  0  0  0
   21.8768   78.6249   14.9668 C   0  0  0  0  0  0  0  0  0  0  0  0
   22.9435   77.9707   15.5219 C   0  0  0  0  0  0  0  0  0  0  0  0
   24.2099   78.0613   15.0056 C   0  0  0  0  0  0  0  0  0  0  0  0
   24.4315   78.8313   13.8962 C   0  0  0  0  0  0  0  0  0  0  0  0
   23.3872   79.5205   13.2874 C   0  0  0  0  0  0  0  0  0  0  0  0
   22.1330   79.4077   13.8296 C   0  0  0  0  0  0  0  0  0  0  0  0
   25.2614   77.3599   15.6281 N   0  0  0  0  0  0  0  0  0  0  0  0
   26.2703   77.9429   16.1015 O   0  0  0  0  0  0  0  0  0  0  0  0
   25.1736   75.9895   15.7170 O   0  0  0  0  0  0  0  0  0  0  0  0
   20.2025   75.9545   15.3257 C   0  0  0  0  0  0  0  0  0  0  0  0
   20.0137   75.7317   13.8599 C   0  0  0  0  0  0  0  0  0  0  0  0
   19.1909   74.5695   13.5663 N   0  0  0  0  0  0  0  0  0  0  0  0
   19.9686   73.3341   13.7067 C   0  0  0  0  0  0  0  0  0  0  0  0
   18.9468   72.2029   13.5282 C   0  0  0  0  0  0  0  0  0  0  0  0
   18.3337   72.2421   12.2999 O   0  0  0  0  0  0  0  0  0  0  0  0
   17.7733   73.4698   11.9832 C   0  0  0  0  0  0  0  0  0  0  0  0
   18.7401   74.6081   12.1979 C   0  0  0  0  0  0  0  0  0  0  0  0
   18.3813   74.4587   14.1820 H   0  0  0  0  0  0  0  0  0  0  0  0
 10 11  1  0  0  0
 11 12  2  0  0  0
 11 16  1  0  0  0
 12 13  1  0  0  0
 13 14  2  0  0  0
 14 15  1  0  0  0
 14  1  1  0  0  0
 15 16  2  0  0  0
  1  2  2  0  0  0
  1  9  1  0  0  0
  2  3  1  0  0  0
  2  7  1  0  0  0
  3  4  1  0  0  0
  3 17  1  0  0  0
  4  5  1  0  0  0
  4 26  1  0  0  0
  5  6  2  0  0  0
  5  7  1  0  0  0
  7  8  2  0  0  0
 26 27  1  0  0  0
 27 28  1  0  0  0
 28 29  1  0  0  0
 28 33  1  0  0  0
 29 30  1  0  0  0
 30 31  1  0  0  0
 31 32  1  0  0  0
 32 33  1  0  0  0
 17 18  2  0  0  0
 17 22  1  0  0  0
 18 19  1  0  0  0
 19 20  2  0  0  0
 19 23  1  0  0  0
 20 21  1  0  0  0
 21 22  2  0  0  0
 23 24  2  0  0  0
 23 25  1  0  0  0
 28 34  1  0  0  0
M  CHG 1   9  -1
M  CHG 1  25  -1
M  CHG 1  28   1
M  END
> <minimizedAffinity>
-9.07926

$$$$
265


 35 38  0  0  0  0  0  0  0  0999 V2000
   21.2881   78.3670   16.8444 C   0  0  0  0  0  0  0  0  0  0  0  0
   21.9188   78.7506   15.7565 C   0  0  0  0  0  0  0  0  0  0  0  0
   22.5864   77.8426   14.7553 C   0  0  0  0  0  0  0  0  0  0  0  0
   23.2039   78.6954   13.8001 N   0  0  0  0  0  0  0  0  0  0  0  0
   22.8646   80.0773   14.0395 C   0  0  0  0  0  0  0  0  0  0  0  0
   23.1681   81.0762   13.3728 O   0  0  0  0  0  0  0  0  0  0  0  0
   22.0507   80.1066   15.2761 C   0  0  0  0  0  0  0  0  0  0  0  0
   21.5625   81.1590   15.8008 O   0  0  0  0  0  0  0  0  0  0  0  0
   21.2431   76.9707   17.0652 O   0  0  0  0  0  0  0  0  0  0  0  0
   18.8517   82.4120   20.8707 Br  0  0  0  0  0  0  0  0  0  0  0  0
   19.5625   81.1518   19.6192 C   0  0  0  0  0  0  0  0  0  0  0  0
   20.9130   80.8760   19.6194 C   0  0  0  0  0  0  0  0  0  0  0  0
   21.4428   79.9690   18.7268 C   0  0  0  0  0  0  0  0  0  0  0  0
   20.6632   79.2852   17.7848 C   0  0  0  0  0  0  0  0  0  0  0  0
   19.3190   79.5737   17.7991 C   0  0  0  0  0  0  0  0  0  0  0  0
   18.7755   80.4943   18.7043 C   0  0  0  0  0  0  0  0  0  0  0  0
   21.4623   77.0630   14.1513 C   0  0  0  0  0  0  0  0  0  0  0  0
   21.1730   75.8422   14.6740 C   0  0  0  0  0  0  0  0  0  0  0  0
   20.1497   75.0778   14.1523 C   0  0  0  0  0  0  0  0  0  0  0  0
   19.4150   75.5489   13.0981 C   0  0  0  0  0  0  0  0  0  0  0  0
   19.7078   76.7809   12.5733 C   0  0  0  0  0  0  0  0  0  0  0  0
   20.7340   77.5531   13.0928 C   0  0  0  0  0  0  0  0  0  0  0  0
   18.3282   74.7455   12.5330 C   0  0  0  0  0  0  0  0  0  0  0  0
   18.2203   74.6421   11.2845 O   0  0  0  0  0  0  0  0  0  0  0  0
   17.4056   74.0901   13.3016 O   0  0  0  0  0  0  0  0  0  0  0  0
   16.7015   72.9530   12.8548 C   0  0  0  0  0  0  0  0  0  0  0  0
   24.0577   78.3253   12.7034 C   0  0  0  0  0  0  0  0  0  0  0  0
   23.8556   79.1021   11.4481 C   0  0  0  0  0  0  0  0  0  0  0  0
   22.5221   79.0896   10.9252 N   0  0  0  0  0  0  0  0  0  0  0  0
   22.3533   78.2453    9.7605 C   0  0  0  0  0  0  0  0  0  0  0  0
   20.8695   78.1916    9.4601 C   0  0  0  0  0  0  0  0  0  0  0  0
   20.5169   79.4952    9.0360 O   0  0  0  0  0  0  0  0  0  0  0  0
   20.6225   80.3032   10.1715 C   0  0  0  0  0  0  0  0  0  0  0  0
   22.0998   80.4396   10.5025 C   0  0  0  0  0  0  0  0  0  0  0  0
   21.8108   78.8443   11.6643 H   0  0  0  0  0  0  0  0  0  0  0  0
 10 11  1  0  0  0
 11 12  2  0  0  0
 11 16  1  0  0  0
 12 13  1  0  0  0
 13 14  2  0  0  0
 14 15  1  0  0  0
 14  1  1  0  0  0
 15 16  2  0  0  0
  1  2  2  0  0  0
  1  9  1  0  0  0
  2  3  1  0  0  0
  2  7  1  0  0  0
  3  4  1  0  0  0
  3 17  1  0  0  0
  4  5  1  0  0  0
  4 27  1  0  0  0
  5  6  2  0  0  0
  5  7  1  0  0  0
  7  8  2  0  0  0
 27 28  1  0  0  0
 28 29  1  0  0  0
 29 30  1  0  0  0
 29 34  1  0  0  0
 30 31  1  0  0  0
 31 32  1  0  0  0
 32 33  1  0  0  0
 33 34  1  0  0  0
 17 18  2  0  0  0
 17 22  1  0  0  0
 18 19  1  0  0  0
 19 20  2  0  0  0
 20 21  1  0  0  0
 20 23  1  0  0  0
 21 22  2  0  0  0
 23 24  2  0  0  0
 23 25  1  0  0  0
 25 26  1  0  0  0
 29 35  1  0  0  0
M  CHG 1   9  -1
M  CHG 1  29   1
M  END
> <minimizedAffinity>
-7.93265

$$$$
274


 31 34  0  0  0  0  0  0  0  0999 V2000
   22.0111   79.7521   13.1314 C   0  0  0  0  0  0  0  0  0  0  0  0
   21.9188   79.0862   14.2662 C   0  0  0  0  0  0  0  0  0  0  0  0
   22.4471   79.4221   15.6195 C   0  0  0  0  0  0  0  0  0  0  0  0
   21.4220   78.8665   16.5186 N   0  0  0  0  0  0  0  0  0  0  0  0
   20.9757   77.6888   15.8749 C   0  0  0  0  0  0  0  0  0  0  0  0
   20.4243   76.7378   16.4437 O   0  0  0  0  0  0  0  0  0  0  0  0
   21.2736   77.7887   14.4506 C   0  0  0  0  0  0  0  0  0  0  0  0
   21.0595   76.9805   13.5127 O   0  0  0  0  0  0  0  0  0  0  0  0
   22.7128   80.9736   13.1525 O   0  0  0  0  0  0  0  0  0  0  0  0
   19.6185   77.9980    7.7016 Br  0  0  0  0  0  0  0  0  0  0  0  0
   20.3604   78.5328    9.3871 C   0  0  0  0  0  0  0  0  0  0  0  0
   21.6760   78.2789    9.7001 C   0  0  0  0  0  0  0  0  0  0  0  0
   22.2051   78.6678   10.9214 C   0  0  0  0  0  0  0  0  0  0  0  0
   21.4440   79.3199   11.8657 C   0  0  0  0  0  0  0  0  0  0  0  0
   20.1292   79.5738   11.5498 C   0  0  0  0  0  0  0  0  0  0  0  0
   19.5893   79.1841   10.3204 C   0  0  0  0  0  0  0  0  0  0  0  0
   23.7880   78.8982   15.8883 C   0  0  0  0  0  0  0  0  0  0  0  0
   24.6167   79.5010   16.8423 C   0  0  0  0  0  0  0  0  0  0  0  0
   25.8705   79.0629   17.1391 C   0  0  0  0  0  0  0  0  0  0  0  0
   26.3889   77.9634   16.4804 C   0  0  0  0  0  0  0  0  0  0  0  0
   25.6041   77.3541   15.5437 C   0  0  0  0  0  0  0  0  0  0  0  0
   24.3162   77.8051   15.2399 C   0  0  0  0  0  0  0  0  0  0  0  0
   21.0629   79.4834   17.7431 C   0  0  0  0  0  0  0  0  0  0  0  0
   21.2631   80.9353   17.8923 C   0  0  0  0  0  0  0  0  0  0  0  0
   20.1089   81.7049   18.2422 N   0  0  0  0  0  0  0  0  0  0  0  0
   20.3099   83.1056   18.3696 C   0  0  0  0  0  0  0  0  0  0  0  0
   20.2863   83.4722   19.8375 C   0  0  0  0  0  0  0  0  0  0  0  0
   20.9415   82.5319   20.6279 O   0  0  0  0  0  0  0  0  0  0  0  0
   20.2831   81.3168   20.6607 C   0  0  0  0  0  0  0  0  0  0  0  0
   19.4286   81.2070   19.4178 C   0  0  0  0  0  0  0  0  0  0  0  0
   19.4269   81.5571   17.4358 H   0  0  0  0  0  0  0  0  0  0  0  0
 10 11  1  0  0  0
 11 12  2  0  0  0
 11 16  1  0  0  0
 12 13  1  0  0  0
 13 14  2  0  0  0
 14 15  1  0  0  0
 14  1  1  0  0  0
 15 16  2  0  0  0
  1  2  2  0  0  0
  1  9  1  0  0  0
  2  3  1  0  0  0
  2  7  1  0  0  0
  3  4  1  0  0  0
  3 17  1  0  0  0
  4  5  1  0  0  0
  4 23  1  0  0  0
  5  6  2  0  0  0
  5  7  1  0  0  0
  7  8  2  0  0  0
 23 24  1  0  0  0
 24 25  1  0  0  0
 25 26  1  0  0  0
 25 30  1  0  0  0
 26 27  1  0  0  0
 27 28  1  0  0  0
 28 29  1  0  0  0
 29 30  1  0  0  0
 17 18  2  0  0  0
 17 22  1  0  0  0
 18 19  1  0  0  0
 19 20  2  0  0  0
 20 21  1  0  0  0
 21 22  2  0  0  0
 25 31  1  0  0  0
M  CHG 1   9  -1
M  CHG 1  25   1
M  END
> <minimizedAffinity>
-9.87291

$$$$
278


 30 33  0  0  0  0  0  0  0  0999 V2000
   20.2064   76.7078   13.5644 N   0  0  0  0  0  0  0  0  0  0  0  0
   20.7537   77.6381   12.7464 C   0  0  0  0  0  0  0  0  0  0  0  0
   21.4725   78.4961   13.5633 C   0  0  0  0  0  0  0  0  0  0  0  0
   22.1381   79.5608   12.9851 C   0  0  0  0  0  0  0  0  0  0  0  0
   22.1053   79.7918   11.6044 C   0  0  0  0  0  0  0  0  0  0  0  0
   21.3716   78.9052   10.8279 C   0  0  0  0  0  0  0  0  0  0  0  0
   20.7009   77.8398   11.3759 C   0  0  0  0  0  0  0  0  0  0  0  0
   21.3694   78.0949   14.8657 N   0  0  0  0  0  0  0  0  0  0  0  0
   20.5790   76.9890   14.8274 C   0  0  0  0  0  0  0  0  0  0  0  0
   20.2479   76.3205   15.8809 N   0  0  0  0  0  0  0  0  0  0  0  0
   19.6261   75.4640   15.7707 H   0  0  0  0  0  0  0  0  0  0  0  0
   20.5183   76.5271   16.8450 H   0  0  0  0  0  0  0  0  0  0  0  0
   19.3873   75.6425   13.0641 C   0  0  0  0  0  0  0  0  0  0  0  0
   19.4617   74.3945   13.8906 C   0  0  0  0  0  0  0  0  0  0  0  0
   20.7403   73.8983   14.0551 O   0  0  0  0  0  0  0  0  0  0  0  0
   21.1888   73.6820   13.2146 H   0  0  0  0  0  0  0  0  0  0  0  0
   16.1193   69.8989   11.3435 Br  0  0  0  0  0  0  0  0  0  0  0  0
   17.1586   71.2971   12.1376 C   0  0  0  0  0  0  0  0  0  0  0  0
   16.5490   72.4879   12.4617 C   0  0  0  0  0  0  0  0  0  0  0  0
   17.2982   73.4839   13.0292 C   0  0  0  0  0  0  0  0  0  0  0  0
   18.6362   73.2925   13.2684 C   0  0  0  0  0  0  0  0  0  0  0  0
   19.2106   72.0906   12.9308 C   0  0  0  0  0  0  0  0  0  0  0  0
   18.4945   71.0531   12.3546 C   0  0  0  0  0  0  0  0  0  0  0  0
   22.0082   78.7579   15.9626 C   0  0  0  0  0  0  0  0  0  0  0  0
   23.4934   78.5308   16.0208 C   0  0  0  0  0  0  0  0  0  0  0  0
   24.2914   79.4723   16.6479 C   0  0  0  0  0  0  0  0  0  0  0  0
   25.6625   79.3345   16.7439 C   0  0  0  0  0  0  0  0  0  0  0  0
   26.2263   78.2127   16.1886 C   0  0  0  0  0  0  0  0  0  0  0  0
   25.4600   77.2660   15.5617 C   0  0  0  0  0  0  0  0  0  0  0  0
   24.1032   77.4321   15.4836 C   0  0  0  0  0  0  0  0  0  0  0  0
 17 18  1  0  0  0
 18 19  2  0  0  0
 18 23  1  0  0  0
 19 20  1  0  0  0
 20 21  2  0  0  0
 21 22  1  0  0  0
 21 14  1  0  0  0
 22 23  2  0  0  0
 14 15  1  0  0  0
 14 13  1  0  0  0
 13  1  1  0  0  0
  1  2  1  0  0  0
  1  9  1  0  0  0
  2  3  1  0  0  0
  2  7  2  0  0  0
  3  4  2  0  0  0
  3  8  1  0  0  0
  4  5  1  0  0  0
  5  6  2  0  0  0
  6  7  1  0  0  0
  8  9  1  0  0  0
  8 24  1  0  0  0
  9 10  2  0  0  0
 24 25  1  0  0  0
 25 26  2  0  0  0
 25 30  1  0  0  0
 26 27  1  0  0  0
 27 28  2  0  0  0
 28 29  1  0  0  0
 29 30  2  0  0  0
 15 16  1  0  0  0
 10 11  1  0  0  0
 10 12  1  0  0  0
M  END
> <minimizedAffinity>
-11.37171

$$$$
289


 31 34  0  0  0  0  0  0  0  0999 V2000
   20.8605   77.1389   15.6938 C   0  0  0  0  0  0  0  0  0  0  0  0
   21.2120   77.9469   14.6799 N   0  0  0  0  0  0  0  0  0  0  0  0
   20.6874   77.4692   13.5268 C   0  0  0  0  0  0  0  0  0  0  0  0
   19.9801   76.3209   13.8085 C   0  0  0  0  0  0  0  0  0  0  0  0
   20.1017   76.1430   15.1241 N   0  0  0  0  0  0  0  0  0  0  0  0
   19.3617   75.6615   12.8113 N   0  0  0  0  0  0  0  0  0  0  0  0
   19.4119   76.0893   11.5427 C   0  0  0  0  0  0  0  0  0  0  0  0
   18.8123   75.4397   10.6271 O   0  0  0  0  0  0  0  0  0  0  0  0
   20.0961   77.2076   11.2469 N   0  0  0  0  0  0  0  0  0  0  0  0
   20.7239   77.8880   12.2157 C   0  0  0  0  0  0  0  0  0  0  0  0
   21.3617   78.9329   11.9366 O   0  0  0  0  0  0  0  0  0  0  0  0
   18.6138   74.4458   13.1500 C   0  0  0  0  0  0  0  0  0  0  0  0
   20.1404   77.5518   10.2440 H   0  0  0  0  0  0  0  0  0  0  0  0
   20.9520   79.3825   18.3792 N   0  0  0  0  0  0  0  0  0  0  0  0
   20.0480   78.4118   18.8321 C   0  0  0  0  0  0  0  0  0  0  0  0
   20.1961   77.0845   18.0954 C   0  0  0  0  0  0  0  0  0  0  0  0
   21.1513   77.2834   17.0617 N   0  0  0  0  0  0  0  0  0  0  0  0
   22.4766   77.6735   17.4783 C   0  0  0  0  0  0  0  0  0  0  0  0
   22.2918   79.0602   18.1058 C   0  0  0  0  0  0  0  0  0  0  0  0
   20.3862   80.5075   17.7117 C   0  0  0  0  0  0  0  0  0  0  0  0
   18.9587   85.3423   21.2838 Br  0  0  0  0  0  0  0  0  0  0  0  0
   19.4003   83.8260   20.1886 C   0  0  0  0  0  0  0  0  0  0  0  0
   20.0946   83.9896   19.0075 C   0  0  0  0  0  0  0  0  0  0  0  0
   20.4126   82.8985   18.2144 C   0  0  0  0  0  0  0  0  0  0  0  0
   20.0370   81.6351   18.5963 C   0  0  0  0  0  0  0  0  0  0  0  0
   19.3439   81.4537   19.7746 C   0  0  0  0  0  0  0  0  0  0  0  0
   19.0347   82.5502   20.5538 C   0  0  0  0  0  0  0  0  0  0  0  0
   22.0465   79.1178   14.7163 C   0  0  0  0  0  0  0  0  0  0  0  0
   23.4950   78.7948   14.4266 C   0  0  0  0  0  0  0  0  0  0  0  0
   24.3928   79.5002   15.2019 O   0  0  0  0  0  0  0  0  0  0  0  0
   25.3895   78.5700   15.5781 C   0  0  0  0  0  0  0  0  0  0  0  0
 21 22  1  0  0  0
 22 23  2  0  0  0
 22 27  1  0  0  0
 23 24  1  0  0  0
 24 25  2  0  0  0
 25 26  1  0  0  0
 25 20  1  0  0  0
 26 27  2  0  0  0
 20 14  1  0  0  0
 14 15  1  0  0  0
 14 19  1  0  0  0
 15 16  1  0  0  0
 16 17  1  0  0  0
 17 18  1  0  0  0
 17  1  1  0  0  0
 18 19  1  0  0  0
  1  2  1  0  0  0
  1  5  2  0  0  0
  2  3  1  0  0  0
  2 28  1  0  0  0
  3  4  2  0  0  0
  3 10  1  0  0  0
  4  5  1  0  0  0
  4  6  1  0  0  0
  6  7  1  0  0  0
  6 12  1  0  0  0
  7  8  2  0  0  0
  7  9  1  0  0  0
  9 10  1  0  0  0
 10 11  2  0  0  0
 28 29  1  0  0  0
 29 30  1  0  0  0
 30 31  1  0  0  0
  9 13  1  0  0  0
M  END
> <minimizedAffinity>
-9.50505

$$$$
293


 27 30  0  0  0  0  0  0  0  0999 V2000
   19.1551   74.8357   13.2688 C   0  0  0  0  0  0  0  0  0  0  0  0
   19.4404   75.7579   12.3420 C   0  0  0  0  0  0  0  0  0  0  0  0
   19.0764   75.6410   11.0104 O   0  0  0  0  0  0  0  0  0  0  0  0
   19.4964   76.7383   10.2655 C   0  0  0  0  0  0  0  0  0  0  0  0
   20.1458   77.5930   11.1039 C   0  0  0  0  0  0  0  0  0  0  0  0
   20.6689   78.7731   10.6175 C   0  0  0  0  0  0  0  0  0  0  0  0
   20.5068   79.0350    9.2820 C   0  0  0  0  0  0  0  0  0  0  0  0
   19.8390   78.1576    8.4177 C   0  0  0  0  0  0  0  0  0  0  0  0
   19.3129   76.9783    8.8823 C   0  0  0  0  0  0  0  0  0  0  0  0
   19.7172   78.4995    7.0701 O   0  0  0  0  0  0  0  0  0  0  0  0
   20.1394   77.0096   12.4527 C   0  0  0  0  0  0  0  0  0  0  0  0
   20.6301   77.4772   13.5118 O   0  0  0  0  0  0  0  0  0  0  0  0
   16.1465   69.6672   11.6133 Br  0  0  0  0  0  0  0  0  0  0  0  0
   17.0670   71.2747   12.1273 C   0  0  0  0  0  0  0  0  0  0  0  0
   18.4417   71.3364   12.1273 C   0  0  0  0  0  0  0  0  0  0  0  0
   19.1042   72.4908   12.4994 C   0  0  0  0  0  0  0  0  0  0  0  0
   18.4228   73.6327   12.8861 C   0  0  0  0  0  0  0  0  0  0  0  0
   17.0476   73.5668   12.8837 C   0  0  0  0  0  0  0  0  0  0  0  0
   16.3715   72.4025   12.5092 C   0  0  0  0  0  0  0  0  0  0  0  0
   18.5931   75.9639    8.1027 C   0  0  0  0  0  0  0  0  0  0  0  0
   18.2929   76.2419    6.7518 N   0  0  0  0  0  0  0  0  0  0  0  0
   18.4019   75.0700    5.9081 C   0  0  0  0  0  0  0  0  0  0  0  0
   17.0892   74.3088    5.9270 C   0  0  0  0  0  0  0  0  0  0  0  0
   16.2017   74.9666    5.0895 O   0  0  0  0  0  0  0  0  0  0  0  0
   16.4524   76.3392    5.1920 C   0  0  0  0  0  0  0  0  0  0  0  0
   16.8948   76.6829    6.6053 C   0  0  0  0  0  0  0  0  0  0  0  0
   18.8525   77.0359    6.3794 H   0  0  0  0  0  0  0  0  0  0  0  0
 13 14  1  0  0  0
 14 15  2  0  0  0
 14 19  1  0  0  0
 15 16  1  0  0  0
 16 17  2  0  0  0
 17 18  1  0  0  0
 17  1  1  0  0  0
 18 19  2  0  0  0
  1  2  2  0  0  0
  2  3  1  0  0  0
  2 11  1  0  0  0
  3  4  1  0  0  0
  4  5  2  0  0  0
  4  9  1  0  0  0
  5  6  1  0  0  0
  5 11  1  0  0  0
  6  7  2  0  0  0
  7  8  1  0  0  0
  8  9  2  0  0  0
  8 10  1  0  0  0
  9 20  1  0  0  0
 20 21  1  0  0  0
 21 22  1  0  0  0
 21 26  1  0  0  0
 22 23  1  0  0  0
 23 24  1  0  0  0
 24 25  1  0  0  0
 25 26  1  0  0  0
 11 12  2  0  0  0
 21 27  1  0  0  0
M  CHG 1  10  -1
M  CHG 1  21   1
M  END
> <minimizedAffinity>
-9.67870

$$$$
294


 35 38  0  0  0  0  0  0  0  0999 V2000
   21.7971   78.4582   15.4138 N   0  0  0  0  0  0  0  0  0  0  0  0
   20.6892   78.8434   16.1175 N   0  0  0  0  0  0  0  0  0  0  0  0
   20.9560   78.7502   17.4275 C   0  0  0  0  0  0  0  0  0  0  0  0
   22.2116   78.3131   17.5081 N   0  0  0  0  0  0  0  0  0  0  0  0
   22.7494   78.1260   16.2445 C   0  0  0  0  0  0  0  0  0  0  0  0
   20.0651   79.0600   18.5392 C   0  0  0  0  0  0  0  0  0  0  0  0
   19.3249   80.1613   18.6986 N   0  0  0  0  0  0  0  0  0  0  0  0
   18.6516   80.0713   19.8323 O   0  0  0  0  0  0  0  0  0  0  0  0
   18.9201   78.9459   20.4310 N   0  0  0  0  0  0  0  0  0  0  0  0
   19.8139   78.2786   19.6386 C   0  0  0  0  0  0  0  0  0  0  0  0
   20.3494   77.0040   19.9560 N   0  0  0  0  0  0  0  0  0  0  0  0
   19.8174   76.3578   20.6036 H   0  0  0  0  0  0  0  0  0  0  0  0
   21.2523   76.6480   19.5883 H   0  0  0  0  0  0  0  0  0  0  0  0
   24.1034   77.6531   16.0416 C   0  0  0  0  0  0  0  0  0  0  0  0
   24.3707   76.4103   15.4742 N   0  0  0  0  0  0  0  0  0  0  0  0
   25.6314   76.2389   15.3901 O   0  0  0  0  0  0  0  0  0  0  0  0
   26.2435   77.2577   15.8506 N   0  0  0  0  0  0  0  0  0  0  0  0
   25.3137   78.1686   16.2702 C   0  0  0  0  0  0  0  0  0  0  0  0
   25.7147   79.3954   16.8126 N   0  0  0  0  0  0  0  0  0  0  0  0
   25.8986   79.4644   17.8404 H   0  0  0  0  0  0  0  0  0  0  0  0
   25.8574   80.2653   16.2584 H   0  0  0  0  0  0  0  0  0  0  0  0
   21.7720   78.4884   13.9646 C   0  0  0  0  0  0  0  0  0  0  0  0
   20.5090   76.3146   14.2071 N   0  0  0  0  0  0  0  0  0  0  0  0
   20.8876   77.4268   13.4169 C   0  0  0  0  0  0  0  0  0  0  0  0
   20.4678   77.5119   12.2410 O   0  0  0  0  0  0  0  0  0  0  0  0
   20.8494   76.2147   15.2116 H   0  0  0  0  0  0  0  0  0  0  0  0
   19.8060   74.0908   13.8399 C   0  0  0  0  0  0  0  0  0  0  0  0
   19.6869   75.3487   13.6692 N   0  0  0  0  0  0  0  0  0  0  0  0
   16.0102   69.9120   11.3107 Br  0  0  0  0  0  0  0  0  0  0  0  0
   17.1901   71.1940   12.0905 C   0  0  0  0  0  0  0  0  0  0  0  0
   16.7292   72.4415   12.4838 C   0  0  0  0  0  0  0  0  0  0  0  0
   17.5666   73.3860   13.0503 C   0  0  0  0  0  0  0  0  0  0  0  0
   18.9039   73.1111   13.2445 C   0  0  0  0  0  0  0  0  0  0  0  0
   19.3523   71.8685   12.8507 C   0  0  0  0  0  0  0  0  0  0  0  0
   18.5273   70.9181   12.2850 C   0  0  0  0  0  0  0  0  0  0  0  0
 29 30  1  0  0  0
 30 31  2  0  0  0
 30 35  1  0  0  0
 31 32  1  0  0  0
 32 33  2  0  0  0
 33 34  1  0  0  0
 33 27  1  0  0  0
 34 35  2  0  0  0
 27 28  2  0  0  0
 28 23  1  0  0  0
 23 24  1  0  0  0
 24 25  2  0  0  0
 24 22  1  0  0  0
 22  1  1  0  0  0
  1  2  1  0  0  0
  1  5  1  0  0  0
  2  3  2  0  0  0
  3  4  1  0  0  0
  3  6  1  0  0  0
  4  5  2  0  0  0
  5 14  1  0  0  0
 14 15  2  0  0  0
 14 18  1  0  0  0
 15 16  1  0  0  0
 16 17  1  0  0  0
 17 18  2  0  0  0
 18 19  1  0  0  0
  6  7  2  0  0  0
  6 10  1  0  0  0
  7  8  1  0  0  0
  8  9  1  0  0  0
  9 10  2  0  0  0
 10 11  1  0  0  0
 23 26  1  0  0  0
 19 20  1  0  0  0
 19 21  1  0  0  0
 11 12  1  0  0  0
 11 13  1  0  0  0
M  END
> <minimizedAffinity>
-11.34421

$$$$
302


 29 33  0  0  0  0  0  0  0  0999 V2000
   19.9451   75.6439   14.1534 C   0  0  0  0  0  0  0  0  0  0  0  0
   20.1369   75.9695   15.4484 N   0  0  0  0  0  0  0  0  0  0  0  0
   20.8350   77.1287   15.5382 C   0  0  0  0  0  0  0  0  0  0  0  0
   21.0973   77.5599   14.2924 N   0  0  0  0  0  0  0  0  0  0  0  0
   20.5565   76.6562   13.4431 C   0  0  0  0  0  0  0  0  0  0  0  0
   21.7875   78.7077   14.4343 C   0  0  0  0  0  0  0  0  0  0  0  0
   21.9580   78.9975   15.7710 C   0  0  0  0  0  0  0  0  0  0  0  0
   22.6390   80.1303   16.2017 C   0  0  0  0  0  0  0  0  0  0  0  0
   23.1648   81.0005   15.2746 C   0  0  0  0  0  0  0  0  0  0  0  0
   22.9893   80.7028   13.9406 C   0  0  0  0  0  0  0  0  0  0  0  0
   22.3192   79.5873   13.4858 C   0  0  0  0  0  0  0  0  0  0  0  0
   21.3468   77.9832   16.4387 N   0  0  0  0  0  0  0  0  0  0  0  0
   19.8097   75.4276   16.2737 H   0  0  0  0  0  0  0  0  0  0  0  0
   16.9946   70.6702   12.0012 Br  0  0  0  0  0  0  0  0  0  0  0  0
   17.9055   72.1977   12.6636 C   0  0  0  0  0  0  0  0  0  0  0  0
   17.2737   73.4255   12.7012 C   0  0  0  0  0  0  0  0  0  0  0  0
   17.9444   74.5446   13.1885 C   0  0  0  0  0  0  0  0  0  0  0  0
   19.2414   74.4713   13.6436 C   0  0  0  0  0  0  0  0  0  0  0  0
   19.8633   73.2438   13.6032 C   0  0  0  0  0  0  0  0  0  0  0  0
   19.2059   72.1106   13.1171 C   0  0  0  0  0  0  0  0  0  0  0  0
   21.3043   77.9194   17.8849 C   0  0  0  0  0  0  0  0  0  0  0  0
   19.8850   77.9792   18.4060 C   0  0  0  0  0  0  0  0  0  0  0  0
   19.5944   79.2897   18.9136 N   0  0  0  0  0  0  0  0  0  0  0  0
   19.0073   80.1133   17.8777 C   0  0  0  0  0  0  0  0  0  0  0  0
   19.6038   81.4989   17.8268 C   0  0  0  0  0  0  0  0  0  0  0  0
   19.5693   82.0516   19.1088 O   0  0  0  0  0  0  0  0  0  0  0  0
   20.2633   81.2902   20.0249 C   0  0  0  0  0  0  0  0  0  0  0  0
   20.7317   79.9841   19.4389 C   0  0  0  0  0  0  0  0  0  0  0  0
   18.8818   79.2347   19.6845 H   0  0  0  0  0  0  0  0  0  0  0  0
 14 15  1  0  0  0
 15 16  2  0  0  0
 15 20  1  0  0  0
 16 17  1  0  0  0
 17 18  2  0  0  0
 18 19  1  0  0  0
 18  1  1  0  0  0
 19 20  2  0  0  0
  1  2  1  0  0  0
  1  5  2  0  0  0
  2  3  2  0  0  0
  3  4  1  0  0  0
  3 12  1  0  0  0
  4  5  1  0  0  0
  4  6  1  0  0  0
  6  7  2  0  0  0
  6 11  1  0  0  0
  7  8  1  0  0  0
  7 12  1  0  0  0
  8  9  2  0  0  0
  9 10  1  0  0  0
 10 11  2  0  0  0
 12 21  1  0  0  0
 21 22  1  0  0  0
 22 23  1  0  0  0
 23 24  1  0  0  0
 23 28  1  0  0  0
 24 25  1  0  0  0
 25 26  1  0  0  0
 26 27  1  0  0  0
 27 28  1  0  0  0
  2 13  1  0  0  0
 23 29  1  0  0  0
M  CHG 1  23   1
M  END
> <minimizedAffinity>
-10.47613

$$$$
305


 27 30  0  0  0  0  0  0  0  0999 V2000
   19.6426   75.1380   13.6178 C   0  0  0  0  0  0  0  0  0  0  0  0
   20.0125   76.2386   12.9757 N   0  0  0  0  0  0  0  0  0  0  0  0
   20.6707   77.0813   13.8095 C   0  0  0  0  0  0  0  0  0  0  0  0
   20.7124   76.4682   15.0071 N   0  0  0  0  0  0  0  0  0  0  0  0
   20.1175   75.3236   14.9188 N   0  0  0  0  0  0  0  0  0  0  0  0
   21.0603   78.1998   13.1862 N   0  0  0  0  0  0  0  0  0  0  0  0
   20.6461   78.0607   11.9223 C   0  0  0  0  0  0  0  0  0  0  0  0
   19.9872   76.8354   11.7517 C   0  0  0  0  0  0  0  0  0  0  0  0
   19.5244   76.4663   10.5683 N   0  0  0  0  0  0  0  0  0  0  0  0
   19.7026   77.3315    9.5229 C   0  0  0  0  0  0  0  0  0  0  0  0
   19.2750   77.0220    8.3857 O   0  0  0  0  0  0  0  0  0  0  0  0
   20.3195   78.5121    9.6551 N   0  0  0  0  0  0  0  0  0  0  0  0
   20.8038   78.9017   10.8461 C   0  0  0  0  0  0  0  0  0  0  0  0
   21.3908   80.0032   11.0089 O   0  0  0  0  0  0  0  0  0  0  0  0
   18.9438   75.1947   10.2224 C   0  0  0  0  0  0  0  0  0  0  0  0
   20.4532   79.1706    8.8609 H   0  0  0  0  0  0  0  0  0  0  0  0
   16.3749   70.2953   11.7692 Br  0  0  0  0  0  0  0  0  0  0  0  0
   17.4155   71.7528   12.3852 C   0  0  0  0  0  0  0  0  0  0  0  0
   16.8001   72.9444   12.7071 C   0  0  0  0  0  0  0  0  0  0  0  0
   17.5454   73.9923   13.1497 C   0  0  0  0  0  0  0  0  0  0  0  0
   18.9320   73.9152   13.2964 C   0  0  0  0  0  0  0  0  0  0  0  0
   19.4805   72.7050   12.9576 C   0  0  0  0  0  0  0  0  0  0  0  0
   18.7803   71.6145   12.5064 C   0  0  0  0  0  0  0  0  0  0  0  0
   21.7719   79.3219   13.7551 C   0  0  0  0  0  0  0  0  0  0  0  0
   23.2549   79.0579   13.9023 C   0  0  0  0  0  0  0  0  0  0  0  0
   23.5782   78.6102   15.1774 O   0  0  0  0  0  0  0  0  0  0  0  0
   24.4084   77.4992   15.0303 C   0  0  0  0  0  0  0  0  0  0  0  0
 17 18  1  0  0  0
 18 19  2  0  0  0
 18 23  1  0  0  0
 19 20  1  0  0  0
 20 21  2  0  0  0
 21 22  1  0  0  0
 21  1  1  0  0  0
 22 23  2  0  0  0
  1  2  1  0  0  0
  1  5  2  0  0  0
  2  3  1  0  0  0
  2  8  1  0  0  0
  3  4  2  0  0  0
  3  6  1  0  0  0
  4  5  1  0  0  0
  6  7  1  0  0  0
  6 24  1  0  0  0
  7  8  2  0  0  0
  7 13  1  0  0  0
  8  9  1  0  0  0
  9 10  1  0  0  0
  9 15  1  0  0  0
 10 11  2  0  0  0
 10 12  1  0  0  0
 12 13  1  0  0  0
 13 14  2  0  0  0
 24 25  1  0  0  0
 25 26  1  0  0  0
 26 27  1  0  0  0
 12 16  1  0  0  0
M  END
> <minimizedAffinity>
-9.03032

$$$$
309


 33 36  0  0  0  0  0  0  0  0999 V2000
   19.7637   77.5049    9.3527 C   0  0  0  0  0  0  0  0  0  0  0  0
   18.8331   78.3961    8.8753 C   0  0  0  0  0  0  0  0  0  0  0  0
   18.0207   78.1158    7.8745 O   0  0  0  0  0  0  0  0  0  0  0  0
   18.0517   76.9557    7.2701 C   0  0  0  0  0  0  0  0  0  0  0  0
   18.9452   76.0369    7.6928 C   0  0  0  0  0  0  0  0  0  0  0  0
   18.9998   74.8053    7.0783 C   0  0  0  0  0  0  0  0  0  0  0  0
   18.1340   74.5506    6.0459 C   0  0  0  0  0  0  0  0  0  0  0  0
   17.2054   75.5166    5.6131 C   0  0  0  0  0  0  0  0  0  0  0  0
   17.1336   76.7421    6.2049 C   0  0  0  0  0  0  0  0  0  0  0  0
   16.4150   75.0819    4.5624 O   0  0  0  0  0  0  0  0  0  0  0  0
   19.8286   76.2563    8.7318 C   0  0  0  0  0  0  0  0  0  0  0  0
   20.6457   75.4136    9.1168 O   0  0  0  0  0  0  0  0  0  0  0  0
   23.3546   79.0235   14.1199 Br  0  0  0  0  0  0  0  0  0  0  0  0
   22.2265   78.5381   12.6539 C   0  0  0  0  0  0  0  0  0  0  0  0
   22.6861   78.7315   11.3843 C   0  0  0  0  0  0  0  0  0  0  0  0
   21.8820   78.3888   10.3192 C   0  0  0  0  0  0  0  0  0  0  0  0
   20.6071   77.8486   10.4661 C   0  0  0  0  0  0  0  0  0  0  0  0
   20.1697   77.6637   11.7515 C   0  0  0  0  0  0  0  0  0  0  0  0
   20.9706   78.0050   12.8535 C   0  0  0  0  0  0  0  0  0  0  0  0
   18.7493   79.7191    9.5137 C   0  0  0  0  0  0  0  0  0  0  0  0
   19.6932   80.5259    9.3212 O   0  0  0  0  0  0  0  0  0  0  0  0
   17.7101   80.1150   10.2975 O   0  0  0  0  0  0  0  0  0  0  0  0
   17.8241   81.2523   11.1181 C   0  0  0  0  0  0  0  0  0  0  0  0
   16.4589   81.6364   11.6180 C   0  0  0  0  0  0  0  0  0  0  0  0
   16.2568   77.8353    5.8620 C   0  0  0  0  0  0  0  0  0  0  0  0
   15.1724   78.2388    6.6602 N   0  0  0  0  0  0  0  0  0  0  0  0
   14.1031   77.3052    6.6377 C   0  0  0  0  0  0  0  0  0  0  0  0
   12.7241   77.7830    6.8695 C   0  0  0  0  0  0  0  0  0  0  0  0
   12.5625   79.1587    6.6747 N   0  0  0  0  0  0  0  0  0  0  0  0
   13.5230   80.0279    7.1988 C   0  0  0  0  0  0  0  0  0  0  0  0
   14.9016   79.6259    6.7790 C   0  0  0  0  0  0  0  0  0  0  0  0
   11.4623   79.6529    5.9595 C   0  0  0  0  0  0  0  0  0  0  0  0
   15.5955   78.0326    7.6961 H   0  0  0  0  0  0  0  0  0  0  0  0
 13 14  1  0  0  0
 14 15  2  0  0  0
 14 19  1  0  0  0
 15 16  1  0  0  0
 16 17  2  0  0  0
 17 18  1  0  0  0
 17  1  1  0  0  0
 18 19  2  0  0  0
  1  2  2  0  0  0
  1 11  1  0  0  0
  2  3  1  0  0  0
  2 20  1  0  0  0
  3  4  1  0  0  0
  4  5  2  0  0  0
  4  9  1  0  0  0
  5  6  1  0  0  0
  5 11  1  0  0  0
  6  7  2  0  0  0
  7  8  1  0  0  0
  8  9  2  0  0  0
  8 10  1  0  0  0
  9 25  1  0  0  0
 25 26  1  0  0  0
 26 27  1  0  0  0
 26 31  1  0  0  0
 27 28  1  0  0  0
 28 29  1  0  0  0
 29 30  1  0  0  0
 29 32  1  0  0  0
 30 31  1  0  0  0
 11 12  2  0  0  0
 20 21  2  0  0  0
 20 22  1  0  0  0
 22 23  1  0  0  0
 23 24  1  0  0  0
 26 33  1  0  0  0
M  CHG 1  10  -1
M  CHG 1  26   1
M  END
> <minimizedAffinity>
-9.09346

$$$$
320


 32 36  0  0  0  0  0  0  0  0999 V2000
   21.6571   79.2408   15.3193 C   0  0  0  0  0  0  0  0  0  0  0  0
   21.5117   80.5057   15.9126 C   0  0  0  0  0  0  0  0  0  0  0  0
   20.8494   80.3206   17.0475 N   0  0  0  0  0  0  0  0  0  0  0  0
   20.3630   81.0549   18.0945 C   0  0  0  0  0  0  0  0  0  0  0  0
   19.7579   80.1449   18.9242 C   0  0  0  0  0  0  0  0  0  0  0  0
   19.8966   78.9506   18.3692 N   0  0  0  0  0  0  0  0  0  0  0  0
   20.5794   79.0450   17.1923 C   0  0  0  0  0  0  0  0  0  0  0  0
   21.0740   78.3479   16.1268 N   0  0  0  0  0  0  0  0  0  0  0  0
   19.1401   80.5422   20.1136 C   0  0  0  0  0  0  0  0  0  0  0  0
   19.1361   81.8740   20.4681 C   0  0  0  0  0  0  0  0  0  0  0  0
   19.7502   82.7665   19.6190 C   0  0  0  0  0  0  0  0  0  0  0  0
   20.3656   82.3798   18.4342 C   0  0  0  0  0  0  0  0  0  0  0  0
   19.5146   78.0844   18.7939 H   0  0  0  0  0  0  0  0  0  0  0  0
   24.7353   78.3494   10.0376 Br  0  0  0  0  0  0  0  0  0  0  0  0
   23.7594   78.6314   11.6738 C   0  0  0  0  0  0  0  0  0  0  0  0
   24.3900   78.7011   12.8780 C   0  0  0  0  0  0  0  0  0  0  0  0
   23.6935   78.9015   14.0351 C   0  0  0  0  0  0  0  0  0  0  0  0
   22.3206   79.0426   14.0491 C   0  0  0  0  0  0  0  0  0  0  0  0
   21.6918   78.9734   12.8526 C   0  0  0  0  0  0  0  0  0  0  0  0
   22.3997   78.7662   11.6437 C   0  0  0  0  0  0  0  0  0  0  0  0
   20.9053   76.9308   16.0218 C   0  0  0  0  0  0  0  0  0  0  0  0
   19.6928   76.4395   15.3401 C   0  0  0  0  0  0  0  0  0  0  0  0
   19.8342   75.7593   14.0265 C   0  0  0  0  0  0  0  0  0  0  0  0
   20.1746   74.3614   14.1738 N   0  0  0  0  0  0  0  0  0  0  0  0
   21.0974   74.0823   13.8502 H   0  0  0  0  0  0  0  0  0  0  0  0
   20.2217   74.1957   15.2448 H   0  0  0  0  0  0  0  0  0  0  0  0
   19.1453   73.4764   13.7144 C   0  0  0  0  0  0  0  0  0  0  0  0
   18.1164   74.1074   12.8196 C   0  0  0  0  0  0  0  0  0  0  0  0
   16.8957   73.1757   12.8508 C   0  0  0  0  0  0  0  0  0  0  0  0
   17.2951   71.8530   12.2950 C   0  0  0  0  0  0  0  0  0  0  0  0
   18.5167   71.2574   12.9557 C   0  0  0  0  0  0  0  0  0  0  0  0
   19.6724   72.2645   12.9570 C   0  0  0  0  0  0  0  0  0  0  0  0
 14 15  1  0  0  0
 15 16  2  0  0  0
 15 20  1  0  0  0
 16 17  1  0  0  0
 17 18  2  0  0  0
 18 19  1  0  0  0
 18  1  1  0  0  0
 19 20  2  0  0  0
  1  2  2  0  0  0
  1  8  1  0  0  0
  2  3  1  0  0  0
  3  4  1  0  0  0
  3  7  1  0  0  0
  4  5  2  0  0  0
  4 12  1  0  0  0
  5  6  1  0  0  0
  5  9  1  0  0  0
  6  7  2  0  0  0
  7  8  1  0  0  0
  8 21  1  0  0  0
 21 22  1  0  0  0
 22 23  1  0  0  0
 23 24  1  0  0  0
 24 27  1  0  0  0
 27 28  1  0  0  0
 27 32  1  0  0  0
 28 29  1  0  0  0
 29 30  1  0  0  0
 30 31  1  0  0  0
 31 32  1  0  0  0
  9 10  2  0  0  0
 10 11  1  0  0  0
 11 12  2  0  0  0
  6 13  1  0  0  0
 24 25  1  0  0  0
 24 26  1  0  0  0
M  CHG 1  24   1
M  END
> <minimizedAffinity>
-10.18549

$$$$
324


 34 38  0  0  0  0  0  0  0  0999 V2000
   21.1210   77.9261   12.8612 C   0  0  0  0  0  0  0  0  0  0  0  0
   22.3677   78.5421   13.0802 C   0  0  0  0  0  0  0  0  0  0  0  0
   22.8330   78.2536   14.3004 N   0  0  0  0  0  0  0  0  0  0  0  0
   23.8625   78.4564   15.1588 C   0  0  0  0  0  0  0  0  0  0  0  0
   23.5518   77.7588   16.3005 C   0  0  0  0  0  0  0  0  0  0  0  0
   22.3474   77.1527   16.1077 N   0  0  0  0  0  0  0  0  0  0  0  0
   21.9223   77.4696   14.8703 C   0  0  0  0  0  0  0  0  0  0  0  0
   20.8737   77.2668   13.9949 N   0  0  0  0  0  0  0  0  0  0  0  0
   24.4472   77.7986   17.3487 C   0  0  0  0  0  0  0  0  0  0  0  0
   25.6329   78.5180   17.2708 C   0  0  0  0  0  0  0  0  0  0  0  0
   25.9414   79.2149   16.1299 C   0  0  0  0  0  0  0  0  0  0  0  0
   25.0317   79.1734   15.0667 C   0  0  0  0  0  0  0  0  0  0  0  0
   21.8669   76.5545   16.8150 H   0  0  0  0  0  0  0  0  0  0  0  0
   17.9311   78.2899    7.5300 Br  0  0  0  0  0  0  0  0  0  0  0  0
   18.9023   78.1941    9.1810 C   0  0  0  0  0  0  0  0  0  0  0  0
   19.3203   79.3333    9.8199 C   0  0  0  0  0  0  0  0  0  0  0  0
   20.0319   79.2612   11.0289 C   0  0  0  0  0  0  0  0  0  0  0  0
   20.3467   78.0855   11.6310 C   0  0  0  0  0  0  0  0  0  0  0  0
   19.9106   76.9394   10.9648 C   0  0  0  0  0  0  0  0  0  0  0  0
   19.2077   77.0003    9.7719 C   0  0  0  0  0  0  0  0  0  0  0  0
   19.7136   76.4710   14.3367 C   0  0  0  0  0  0  0  0  0  0  0  0
   19.9640   74.9817   14.3213 C   0  0  0  0  0  0  0  0  0  0  0  0
   18.8468   74.2469   13.6238 C   0  0  0  0  0  0  0  0  0  0  0  0
   19.2540   73.4604   12.4922 N   0  0  0  0  0  0  0  0  0  0  0  0
   18.1884   73.5933   11.5116 C   0  0  0  0  0  0  0  0  0  0  0  0
   17.7675   72.3220   10.8755 C   0  0  0  0  0  0  0  0  0  0  0  0
   17.5880   71.2025   11.7591 N   0  0  0  0  0  0  0  0  0  0  0  0
   18.2986   71.3356   13.0134 C   0  0  0  0  0  0  0  0  0  0  0  0
   19.5816   72.0987   12.7554 C   0  0  0  0  0  0  0  0  0  0  0  0
   18.0613   70.3761   11.2749 H   0  0  0  0  0  0  0  0  0  0  0  0
   16.2148   70.8303   11.8839 C   0  0  0  0  0  0  0  0  0  0  0  0
   15.7512   69.7280   10.9940 C   0  0  0  0  0  0  0  0  0  0  0  0
   15.1595   70.1714    9.8125 O   0  0  0  0  0  0  0  0  0  0  0  0
   15.7046   70.8708    9.4127 H   0  0  0  0  0  0  0  0  0  0  0  0
 14 15  1  0  0  0
 15 16  2  0  0  0
 15 20  1  0  0  0
 16 17  1  0  0  0
 17 18  2  0  0  0
 18 19  1  0  0  0
 18  1  1  0  0  0
 19 20  2  0  0  0
  1  2  2  0  0  0
  1  8  1  0  0  0
  2  3  1  0  0  0
  3  4  1  0  0  0
  3  7  1  0  0  0
  4  5  2  0  0  0
  4 12  1  0  0  0
  5  6  1  0  0  0
  5  9  1  0  0  0
  6  7  2  0  0  0
  7  8  1  0  0  0
  8 21  1  0  0  0
 21 22  1  0  0  0
 22 23  1  0  0  0
 23 24  1  0  0  0
 24 25  1  0  0  0
 24 29  1  0  0  0
 25 26  1  0  0  0
 26 27  1  0  0  0
 27 28  1  0  0  0
 27 31  1  0  0  0
 28 29  1  0  0  0
 31 32  1  0  0  0
 32 33  1  0  0  0
  9 10  2  0  0  0
 10 11  1  0  0  0
 11 12  2  0  0  0
  6 13  1  0  0  0
 27 30  1  0  0  0
 33 34  1  0  0  0
M  CHG 1  27   1
M  END
> <minimizedAffinity>
-9.87444

$$$$
346


 35 38  0  0  0  0  0  0  0  0999 V2000
   21.3387   77.6230   15.4990 C   0  0  0  0  0  0  0  0  0  0  0  0
   20.2333   76.7125   15.3746 N   0  0  0  0  0  0  0  0  0  0  0  0
   19.1795   77.0669   16.2492 C   0  0  0  0  0  0  0  0  0  0  0  0
   18.0679   76.4773   16.4204 O   0  0  0  0  0  0  0  0  0  0  0  0
   19.5591   78.2925   16.9872 C   0  0  0  0  0  0  0  0  0  0  0  0
   18.8495   78.8685   17.8422 O   0  0  0  0  0  0  0  0  0  0  0  0
   20.8794   78.6378   16.5039 C   0  0  0  0  0  0  0  0  0  0  0  0
   21.5549   79.6729   16.9516 C   0  0  0  0  0  0  0  0  0  0  0  0
   22.8596   79.8687   16.4519 O   0  0  0  0  0  0  0  0  0  0  0  0
   22.9416   80.2334   10.1109 Br  0  0  0  0  0  0  0  0  0  0  0  0
   22.4720   79.4206   11.7871 C   0  0  0  0  0  0  0  0  0  0  0  0
   21.1501   79.3647   12.1686 C   0  0  0  0  0  0  0  0  0  0  0  0
   20.7815   78.7767   13.3828 C   0  0  0  0  0  0  0  0  0  0  0  0
   21.7283   78.2398   14.2284 C   0  0  0  0  0  0  0  0  0  0  0  0
   23.0375   78.3156   13.8104 C   0  0  0  0  0  0  0  0  0  0  0  0
   23.4172   78.8900   12.6205 C   0  0  0  0  0  0  0  0  0  0  0  0
   21.0882   80.6450   17.9072 C   0  0  0  0  0  0  0  0  0  0  0  0
   20.7931   81.9409   17.6656 C   0  0  0  0  0  0  0  0  0  0  0  0
   20.3198   82.7585   18.6702 C   0  0  0  0  0  0  0  0  0  0  0  0
   20.1165   82.3254   19.9629 C   0  0  0  0  0  0  0  0  0  0  0  0
   20.4263   80.9979   20.1840 C   0  0  0  0  0  0  0  0  0  0  0  0
   20.8980   80.1610   19.2108 C   0  0  0  0  0  0  0  0  0  0  0  0
   20.0053   84.1902   18.3512 C   0  0  0  0  0  0  0  0  0  0  0  0
   19.6394   83.1548   20.9705 O   0  0  0  0  0  0  0  0  0  0  0  0
   20.2078   83.0932   22.2706 C   0  0  0  0  0  0  0  0  0  0  0  0
   20.2275   75.5788   14.4679 C   0  0  0  0  0  0  0  0  0  0  0  0
   18.8682   75.2756   13.8999 C   0  0  0  0  0  0  0  0  0  0  0  0
   18.9534   74.7826   12.4879 C   0  0  0  0  0  0  0  0  0  0  0  0
   18.4462   73.4518   12.3204 N   0  0  0  0  0  0  0  0  0  0  0  0
   17.0982   73.2834   12.8229 C   0  0  0  0  0  0  0  0  0  0  0  0
   16.6210   71.9056   12.3518 C   0  0  0  0  0  0  0  0  0  0  0  0
   17.6770   71.1719   11.8321 O   0  0  0  0  0  0  0  0  0  0  0  0
   18.7411   71.1229   12.7595 C   0  0  0  0  0  0  0  0  0  0  0  0
   19.3618   72.5086   12.8968 C   0  0  0  0  0  0  0  0  0  0  0  0
   18.3974   73.2404   11.2791 H   0  0  0  0  0  0  0  0  0  0  0  0
 10 11  1  0  0  0
 11 12  2  0  0  0
 11 16  1  0  0  0
 12 13  1  0  0  0
 13 14  2  0  0  0
 14 15  1  0  0  0
 14  1  1  0  0  0
 15 16  2  0  0  0
  1  2  1  0  0  0
  1  7  1  0  0  0
  2  3  1  0  0  0
  2 26  1  0  0  0
  3  4  2  0  0  0
  3  5  1  0  0  0
  5  6  2  0  0  0
  5  7  1  0  0  0
  7  8  2  0  0  0
  8  9  1  0  0  0
  8 17  1  0  0  0
 17 18  2  0  0  0
 17 22  1  0  0  0
 18 19  1  0  0  0
 19 20  2  0  0  0
 19 23  1  0  0  0
 20 21  1  0  0  0
 20 24  1  0  0  0
 21 22  2  0  0  0
 24 25  1  0  0  0
 26 27  1  0  0  0
 27 28  1  0  0  0
 28 29  1  0  0  0
 29 30  1  0  0  0
 29 34  1  0  0  0
 30 31  1  0  0  0
 31 32  1  0  0  0
 32 33  1  0  0  0
 33 34  1  0  0  0
 29 35  1  0  0  0
M  CHG 1   9  -1
M  CHG 1  29   1
M  END
> <minimizedAffinity>
-9.50895

$$$$
347


 34 37  0  0  0  0  0  0  0  0999 V2000
   20.7250   78.7175   15.6992 C   0  0  0  0  0  0  0  0  0  0  0  0
   19.9235   78.8953   16.8928 N   0  0  0  0  0  0  0  0  0  0  0  0
   19.9529   77.6459   17.5861 C   0  0  0  0  0  0  0  0  0  0  0  0
   19.7909   77.4639   18.8181 O   0  0  0  0  0  0  0  0  0  0  0  0
   20.2081   76.6322   16.5683 C   0  0  0  0  0  0  0  0  0  0  0  0
   20.3212   75.3871   16.6935 O   0  0  0  0  0  0  0  0  0  0  0  0
   20.3240   77.3218   15.2874 C   0  0  0  0  0  0  0  0  0  0  0  0
   20.1533   76.8083   14.0939 C   0  0  0  0  0  0  0  0  0  0  0  0
   20.3778   77.6757   13.0101 O   0  0  0  0  0  0  0  0  0  0  0  0
   26.7591   79.0235   16.9292 Br  0  0  0  0  0  0  0  0  0  0  0  0
   24.8893   78.9355   16.5605 C   0  0  0  0  0  0  0  0  0  0  0  0
   24.4491   78.7791   15.2673 C   0  0  0  0  0  0  0  0  0  0  0  0
   23.0802   78.7128   14.9941 C   0  0  0  0  0  0  0  0  0  0  0  0
   22.1477   78.8015   15.9981 C   0  0  0  0  0  0  0  0  0  0  0  0
   22.6183   78.9581   17.2825 C   0  0  0  0  0  0  0  0  0  0  0  0
   23.9694   79.0251   17.5714 C   0  0  0  0  0  0  0  0  0  0  0  0
   19.7479   75.4255   13.8635 C   0  0  0  0  0  0  0  0  0  0  0  0
   18.4983   75.0494   13.4260 C   0  0  0  0  0  0  0  0  0  0  0  0
   18.1001   73.7398   13.2254 C   0  0  0  0  0  0  0  0  0  0  0  0
   18.9988   72.7424   13.4740 C   0  0  0  0  0  0  0  0  0  0  0  0
   20.2754   73.0762   13.9171 C   0  0  0  0  0  0  0  0  0  0  0  0
   20.6367   74.3933   14.1062 C   0  0  0  0  0  0  0  0  0  0  0  0
   16.8106   73.5470   12.7839 O   0  0  0  0  0  0  0  0  0  0  0  0
   16.2110   72.3569   12.4026 C   0  0  0  0  0  0  0  0  0  0  0  0
   19.2119   80.1097   17.3265 C   0  0  0  0  0  0  0  0  0  0  0  0
   20.2047   81.1330   17.8981 C   0  0  0  0  0  0  0  0  0  0  0  0
   19.6583   81.6849   19.1837 C   0  0  0  0  0  0  0  0  0  0  0  0
   20.5339   82.7298   19.6572 N   0  0  0  0  0  0  0  0  0  0  0  0
   20.6995   82.7552   21.0765 C   0  0  0  0  0  0  0  0  0  0  0  0
   19.4938   83.2497   21.8004 C   0  0  0  0  0  0  0  0  0  0  0  0
   19.1220   84.5024   21.3443 O   0  0  0  0  0  0  0  0  0  0  0  0
   18.8055   84.3833   19.9905 C   0  0  0  0  0  0  0  0  0  0  0  0
   20.0834   84.0475   19.2462 C   0  0  0  0  0  0  0  0  0  0  0  0
   21.4724   82.5932   19.2150 H   0  0  0  0  0  0  0  0  0  0  0  0
 10 11  1  0  0  0
 11 12  2  0  0  0
 11 16  1  0  0  0
 12 13  1  0  0  0
 13 14  2  0  0  0
 14 15  1  0  0  0
 14  1  1  0  0  0
 15 16  2  0  0  0
  1  2  1  0  0  0
  1  7  1  0  0  0
  2  3  1  0  0  0
  2 25  1  0  0  0
  3  4  2  0  0  0
  3  5  1  0  0  0
  5  6  2  0  0  0
  5  7  1  0  0  0
  7  8  2  0  0  0
  8  9  1  0  0  0
  8 17  1  0  0  0
 17 18  2  0  0  0
 17 22  1  0  0  0
 18 19  1  0  0  0
 19 20  2  0  0  0
 19 23  1  0  0  0
 20 21  1  0  0  0
 21 22  2  0  0  0
 23 24  1  0  0  0
 25 26  1  0  0  0
 26 27  1  0  0  0
 27 28  1  0  0  0
 28 29  1  0  0  0
 28 33  1  0  0  0
 29 30  1  0  0  0
 30 31  1  0  0  0
 31 32  1  0  0  0
 32 33  1  0  0  0
 28 34  1  0  0  0
M  CHG 1   9  -1
M  CHG 1  28   1
M  END
> <minimizedAffinity>
-8.82327

$$$$
349


 32 35  0  0  0  0  0  0  0  0999 V2000
   20.6310   76.5994   13.8520 C   0  0  0  0  0  0  0  0  0  0  0  0
   20.8610   77.7024   13.0227 N   0  0  0  0  0  0  0  0  0  0  0  0
   21.8930   78.4704   13.7497 C   0  0  0  0  0  0  0  0  0  0  0  0
   22.7891   79.2048   13.2496 O   0  0  0  0  0  0  0  0  0  0  0  0
   21.6318   78.1823   15.1636 C   0  0  0  0  0  0  0  0  0  0  0  0
   22.2481   78.6218   16.1819 O   0  0  0  0  0  0  0  0  0  0  0  0
   20.4774   77.2631   15.1767 C   0  0  0  0  0  0  0  0  0  0  0  0
   19.5584   77.1401   16.1074 C   0  0  0  0  0  0  0  0  0  0  0  0
   18.4898   76.2692   15.9307 O   0  0  0  0  0  0  0  0  0  0  0  0
   17.6507   71.3284   12.8111 Br  0  0  0  0  0  0  0  0  0  0  0  0
   18.5680   72.9792   13.1297 C   0  0  0  0  0  0  0  0  0  0  0  0
   19.7134   73.0360   13.8937 C   0  0  0  0  0  0  0  0  0  0  0  0
   20.3507   74.2244   14.1085 C   0  0  0  0  0  0  0  0  0  0  0  0
   19.8835   75.4342   13.5728 C   0  0  0  0  0  0  0  0  0  0  0  0
   18.7615   75.3726   12.8245 C   0  0  0  0  0  0  0  0  0  0  0  0
   18.1061   74.1607   12.6022 C   0  0  0  0  0  0  0  0  0  0  0  0
   19.5947   77.8768   17.3610 C   0  0  0  0  0  0  0  0  0  0  0  0
   20.1452   77.4475   18.5276 C   0  0  0  0  0  0  0  0  0  0  0  0
   20.1532   78.2704   19.6452 C   0  0  0  0  0  0  0  0  0  0  0  0
   19.6039   79.5310   19.5876 C   0  0  0  0  0  0  0  0  0  0  0  0
   19.0370   80.0024   18.4269 C   0  0  0  0  0  0  0  0  0  0  0  0
   19.0409   79.1617   17.3226 C   0  0  0  0  0  0  0  0  0  0  0  0
   19.5940   80.4446   20.7691 C   0  0  0  0  0  0  0  0  0  0  0  0
   20.4117   78.2104   11.7351 C   0  0  0  0  0  0  0  0  0  0  0  0
   20.7918   77.3405   10.5655 C   0  0  0  0  0  0  0  0  0  0  0  0
   19.7691   77.2192    9.5791 N   0  0  0  0  0  0  0  0  0  0  0  0
   20.0603   76.1121    8.6878 C   0  0  0  0  0  0  0  0  0  0  0  0
   18.9395   75.9896    7.6897 C   0  0  0  0  0  0  0  0  0  0  0  0
   19.0332   77.1128    6.8519 O   0  0  0  0  0  0  0  0  0  0  0  0
   18.7913   78.2288    7.6186 C   0  0  0  0  0  0  0  0  0  0  0  0
   19.8049   78.4178    8.7173 C   0  0  0  0  0  0  0  0  0  0  0  0
   18.8234   77.1356    9.9791 H   0  0  0  0  0  0  0  0  0  0  0  0
 10 11  1  0  0  0
 11 12  2  0  0  0
 11 16  1  0  0  0
 12 13  1  0  0  0
 13 14  2  0  0  0
 14 15  1  0  0  0
 14  1  1  0  0  0
 15 16  2  0  0  0
  1  2  1  0  0  0
  1  7  1  0  0  0
  2  3  1  0  0  0
  2 24  1  0  0  0
  3  4  2  0  0  0
  3  5  1  0  0  0
  5  6  2  0  0  0
  5  7  1  0  0  0
  7  8  2  0  0  0
  8  9  1  0  0  0
  8 17  1  0  0  0
 17 18  2  0  0  0
 17 22  1  0  0  0
 18 19  1  0  0  0
 19 20  2  0  0  0
 20 21  1  0  0  0
 20 23  1  0  0  0
 21 22  2  0  0  0
 24 25  1  0  0  0
 25 26  1  0  0  0
 26 27  1  0  0  0
 26 31  1  0  0  0
 27 28  1  0  0  0
 28 29  1  0  0  0
 29 30  1  0  0  0
 30 31  1  0  0  0
 26 32  1  0  0  0
M  CHG 1   9  -1
M  CHG 1  26   1
M  END
> <minimizedAffinity>
-9.17418

$$$$
351


 32 35  0  0  0  0  0  0  0  0999 V2000
   21.5111   76.9747   14.4215 C   0  0  0  0  0  0  0  0  0  0  0  0
   22.0228   78.0070   13.5964 N   0  0  0  0  0  0  0  0  0  0  0  0
   22.8903   78.7591   14.4975 C   0  0  0  0  0  0  0  0  0  0  0  0
   23.9126   79.4192   14.1659 O   0  0  0  0  0  0  0  0  0  0  0  0
   22.3242   78.5830   15.8338 C   0  0  0  0  0  0  0  0  0  0  0  0
   22.7358   79.0567   16.9246 O   0  0  0  0  0  0  0  0  0  0  0  0
   21.1486   77.7273   15.6593 C   0  0  0  0  0  0  0  0  0  0  0  0
   20.0547   77.6966   16.3990 C   0  0  0  0  0  0  0  0  0  0  0  0
   19.0002   76.8655   16.0549 O   0  0  0  0  0  0  0  0  0  0  0  0
   17.6026   72.6260   12.5583 Br  0  0  0  0  0  0  0  0  0  0  0  0
   18.7866   74.0104   13.1047 C   0  0  0  0  0  0  0  0  0  0  0  0
   18.7348   75.2888   12.5981 C   0  0  0  0  0  0  0  0  0  0  0  0
   19.6255   76.2843   13.0265 C   0  0  0  0  0  0  0  0  0  0  0  0
   20.5796   76.0148   13.9661 C   0  0  0  0  0  0  0  0  0  0  0  0
   20.6073   74.7254   14.4559 C   0  0  0  0  0  0  0  0  0  0  0  0
   19.7412   73.7371   14.0477 C   0  0  0  0  0  0  0  0  0  0  0  0
   19.8717   78.4980   17.6011 C   0  0  0  0  0  0  0  0  0  0  0  0
   19.5838   79.8487   17.3632 C   0  0  0  0  0  0  0  0  0  0  0  0
   19.3435   80.7342   18.3880 C   0  0  0  0  0  0  0  0  0  0  0  0
   19.3911   80.2575   19.6934 C   0  0  0  0  0  0  0  0  0  0  0  0
   19.6742   78.9285   19.9195 C   0  0  0  0  0  0  0  0  0  0  0  0
   19.9131   78.0488   18.8845 C   0  0  0  0  0  0  0  0  0  0  0  0
   19.0848   81.3925   20.9885 Cl  0  0  0  0  0  0  0  0  0  0  0  0
   21.8740   78.3416   12.1772 C   0  0  0  0  0  0  0  0  0  0  0  0
   20.9289   79.4706   11.9037 C   0  0  0  0  0  0  0  0  0  0  0  0
   20.9404   79.8881   10.5196 N   0  0  0  0  0  0  0  0  0  0  0  0
   19.9315   80.8656   10.2213 C   0  0  0  0  0  0  0  0  0  0  0  0
   18.5323   80.3236   10.2452 C   0  0  0  0  0  0  0  0  0  0  0  0
   18.3956   79.1848    9.4497 O   0  0  0  0  0  0  0  0  0  0  0  0
   19.2745   78.2291    9.9812 C   0  0  0  0  0  0  0  0  0  0  0  0
   20.6785   78.7195    9.6991 C   0  0  0  0  0  0  0  0  0  0  0  0
   21.8605   80.2679   10.2242 H   0  0  0  0  0  0  0  0  0  0  0  0
 10 11  1  0  0  0
 11 12  2  0  0  0
 11 16  1  0  0  0
 12 13  1  0  0  0
 13 14  2  0  0  0
 14 15  1  0  0  0
 14  1  1  0  0  0
 15 16  2  0  0  0
  1  2  1  0  0  0
  1  7  1  0  0  0
  2  3  1  0  0  0
  2 24  1  0  0  0
  3  4  2  0  0  0
  3  5  1  0  0  0
  5  6  2  0  0  0
  5  7  1  0  0  0
  7  8  2  0  0  0
  8  9  1  0  0  0
  8 17  1  0  0  0
 17 18  2  0  0  0
 17 22  1  0  0  0
 18 19  1  0  0  0
 19 20  2  0  0  0
 20 21  1  0  0  0
 20 23  1  0  0  0
 21 22  2  0  0  0
 24 25  1  0  0  0
 25 26  1  0  0  0
 26 27  1  0  0  0
 26 31  1  0  0  0
 27 28  1  0  0  0
 28 29  1  0  0  0
 29 30  1  0  0  0
 30 31  1  0  0  0
 26 32  1  0  0  0
M  CHG 1   9  -1
M  CHG 1  26   1
M  END
> <minimizedAffinity>
-8.75020

$$$$
354


 32 35  0  0  0  0  0  0  0  0999 V2000
   21.3798   77.1883   14.3439 C   0  0  0  0  0  0  0  0  0  0  0  0
   21.7266   78.2427   13.4459 N   0  0  0  0  0  0  0  0  0  0  0  0
   22.1819   79.3352   14.2855 C   0  0  0  0  0  0  0  0  0  0  0  0
   22.9023   80.2878   13.8888 O   0  0  0  0  0  0  0  0  0  0  0  0
   21.6598   79.1177   15.6211 C   0  0  0  0  0  0  0  0  0  0  0  0
   21.8243   79.8456   16.6469 O   0  0  0  0  0  0  0  0  0  0  0  0
   20.8969   77.8874   15.5644 C   0  0  0  0  0  0  0  0  0  0  0  0
   19.9576   77.5175   16.4165 C   0  0  0  0  0  0  0  0  0  0  0  0
   19.3096   76.2903   16.1347 O   0  0  0  0  0  0  0  0  0  0  0  0
   17.8376   72.4473   12.5609 Br  0  0  0  0  0  0  0  0  0  0  0  0
   18.9028   73.9403   13.0912 C   0  0  0  0  0  0  0  0  0  0  0  0
   18.6789   75.2113   12.6083 C   0  0  0  0  0  0  0  0  0  0  0  0
   19.4591   76.2815   13.0021 C   0  0  0  0  0  0  0  0  0  0  0  0
   20.4830   76.1494   13.8775 C   0  0  0  0  0  0  0  0  0  0  0  0
   20.7014   74.8492   14.3629 C   0  0  0  0  0  0  0  0  0  0  0  0
   19.9371   73.7694   13.9855 C   0  0  0  0  0  0  0  0  0  0  0  0
   19.5714   78.2724   17.5917 C   0  0  0  0  0  0  0  0  0  0  0  0
   20.0168   77.7693   18.8204 C   0  0  0  0  0  0  0  0  0  0  0  0
   19.7592   78.4094   20.0146 C   0  0  0  0  0  0  0  0  0  0  0  0
   19.0567   79.5568   20.0141 N   0  0  0  0  0  0  0  0  0  0  0  0
   18.6154   80.0647   18.8448 C   0  0  0  0  0  0  0  0  0  0  0  0
   18.8696   79.4276   17.6318 C   0  0  0  0  0  0  0  0  0  0  0  0
   21.7522   78.3177   11.9838 C   0  0  0  0  0  0  0  0  0  0  0  0
   20.5722   78.9843   11.3625 C   0  0  0  0  0  0  0  0  0  0  0  0
   20.5689   78.8400    9.8486 C   0  0  0  0  0  0  0  0  0  0  0  0
   19.4110   78.1058    9.3942 N   0  0  0  0  0  0  0  0  0  0  0  0
   18.8610   78.6392    8.1686 C   0  0  0  0  0  0  0  0  0  0  0  0
   17.9524   77.5535    7.5869 C   0  0  0  0  0  0  0  0  0  0  0  0
   18.7558   76.5655    7.0186 O   0  0  0  0  0  0  0  0  0  0  0  0
   19.8783   76.3026    7.8026 C   0  0  0  0  0  0  0  0  0  0  0  0
   19.6539   76.7037    9.2460 C   0  0  0  0  0  0  0  0  0  0  0  0
   18.6764   78.2245   10.1325 H   0  0  0  0  0  0  0  0  0  0  0  0
 10 11  1  0  0  0
 11 12  2  0  0  0
 11 16  1  0  0  0
 12 13  1  0  0  0
 13 14  2  0  0  0
 14 15  1  0  0  0
 14  1  1  0  0  0
 15 16  2  0  0  0
  1  2  1  0  0  0
  1  7  1  0  0  0
  2  3  1  0  0  0
  2 23  1  0  0  0
  3  4  2  0  0  0
  3  5  1  0  0  0
  5  6  2  0  0  0
  5  7  1  0  0  0
  7  8  2  0  0  0
  8  9  1  0  0  0
  8 17  1  0  0  0
 17 18  2  0  0  0
 17 22  1  0  0  0
 18 19  1  0  0  0
 19 20  2  0  0  0
 20 21  1  0  0  0
 21 22  2  0  0  0
 23 24  1  0  0  0
 24 25  1  0  0  0
 25 26  1  0  0  0
 26 27  1  0  0  0
 26 31  1  0  0  0
 27 28  1  0  0  0
 28 29  1  0  0  0
 29 30  1  0  0  0
 30 31  1  0  0  0
 26 32  1  0  0  0
M  CHG 1   9  -1
M  CHG 1  26   1
M  END
> <minimizedAffinity>
-8.76727

$$$$
361


 33 36  0  0  0  0  0  0  0  0999 V2000
   20.3957   77.4794    9.4885 C   0  0  0  0  0  0  0  0  0  0  0  0
   19.3811   78.3161    8.8214 N   0  0  0  0  0  0  0  0  0  0  0  0
   18.8050   79.0824    9.8734 C   0  0  0  0  0  0  0  0  0  0  0  0
   17.6409   79.5757    9.8389 O   0  0  0  0  0  0  0  0  0  0  0  0
   19.7723   79.1916   10.9604 C   0  0  0  0  0  0  0  0  0  0  0  0
   19.6208   79.7947   12.0426 O   0  0  0  0  0  0  0  0  0  0  0  0
   20.9367   78.4550   10.5050 C   0  0  0  0  0  0  0  0  0  0  0  0
   22.1865   78.6168   10.8574 C   0  0  0  0  0  0  0  0  0  0  0  0
   23.1955   77.8559   10.2842 O   0  0  0  0  0  0  0  0  0  0  0  0
   22.5777   79.5889   11.8605 C   0  0  0  0  0  0  0  0  0  0  0  0
   22.7715   79.4745   13.1903 N   0  0  0  0  0  0  0  0  0  0  0  0
   23.0958   80.6590   13.7289 C   0  0  0  0  0  0  0  0  0  0  0  0
   23.1057   81.5430   12.7079 N   0  0  0  0  0  0  0  0  0  0  0  0
   22.8029   80.9517   11.5687 C   0  0  0  0  0  0  0  0  0  0  0  0
   22.6970   81.5307   10.1910 C   0  0  0  0  0  0  0  0  0  0  0  0
   23.3694   80.8286   15.0865 C   0  0  0  0  0  0  0  0  0  0  0  0
   23.3141   79.7501   15.9389 C   0  0  0  0  0  0  0  0  0  0  0  0
   22.9825   78.5426   15.3688 C   0  0  0  0  0  0  0  0  0  0  0  0
   22.7171   78.4063   14.0270 C   0  0  0  0  0  0  0  0  0  0  0  0
   17.7377   72.8404   12.6693 Br  0  0  0  0  0  0  0  0  0  0  0  0
   18.5553   74.2761   11.6883 C   0  0  0  0  0  0  0  0  0  0  0  0
   18.6592   74.2208   10.3103 C   0  0  0  0  0  0  0  0  0  0  0  0
   19.2548   75.2700    9.6124 C   0  0  0  0  0  0  0  0  0  0  0  0
   19.7544   76.3823   10.2470 C   0  0  0  0  0  0  0  0  0  0  0  0
   19.6404   76.4175   11.6198 C   0  0  0  0  0  0  0  0  0  0  0  0
   19.0550   75.3879   12.3187 C   0  0  0  0  0  0  0  0  0  0  0  0
   19.0624   78.3153    7.4179 C   0  0  0  0  0  0  0  0  0  0  0  0
   17.8753   77.5736    6.9433 C   0  0  0  0  0  0  0  0  0  0  0  0
   17.9919   76.1708    6.4952 C   0  0  0  0  0  0  0  0  0  0  0  0
   16.7925   75.4764    6.1364 N   0  0  0  0  0  0  0  0  0  0  0  0
   15.8509   76.5018    5.6034 C   0  0  0  0  0  0  0  0  0  0  0  0
   17.0449   74.6076    5.0051 C   0  0  0  0  0  0  0  0  0  0  0  0
   16.3182   74.9595    6.8765 H   0  0  0  0  0  0  0  0  0  0  0  0
 20 21  1  0  0  0
 21 22  2  0  0  0
 21 26  1  0  0  0
 22 23  1  0  0  0
 23 24  2  0  0  0
 24 25  1  0  0  0
 24  1  1  0  0  0
 25 26  2  0  0  0
  1  2  1  0  0  0
  1  7  1  0  0  0
  2  3  1  0  0  0
  2 27  1  0  0  0
  3  4  2  0  0  0
  3  5  1  0  0  0
  5  6  2  0  0  0
  5  7  1  0  0  0
  7  8  2  0  0  0
  8  9  1  0  0  0
  8 10  1  0  0  0
 10 11  1  0  0  0
 10 14  2  0  0  0
 11 12  1  0  0  0
 11 19  1  0  0  0
 12 13  2  0  0  0
 12 16  1  0  0  0
 13 14  1  0  0  0
 14 15  1  0  0  0
 16 17  2  0  0  0
 17 18  1  0  0  0
 18 19  2  0  0  0
 27 28  1  0  0  0
 28 29  1  0  0  0
 29 30  1  0  0  0
 30 31  1  0  0  0
 30 32  1  0  0  0
 30 33  1  0  0  0
M  CHG 1   9  -1
M  CHG 1  30   1
M  END
> <minimizedAffinity>
-7.40109

$$$$
362


 36 40  0  0  0  0  0  0  0  0999 V2000
   20.2056   77.6580   12.3837 C   0  0  0  0  0  0  0  0  0  0  0  0
   20.9716   78.1703   11.3265 N   0  0  0  0  0  0  0  0  0  0  0  0
   21.4408   79.4393   11.8568 C   0  0  0  0  0  0  0  0  0  0  0  0
   21.7739   80.4887   11.2078 O   0  0  0  0  0  0  0  0  0  0  0  0
   21.4752   79.3231   13.3104 C   0  0  0  0  0  0  0  0  0  0  0  0
   21.8110   80.1642   14.2049 O   0  0  0  0  0  0  0  0  0  0  0  0
   21.0175   77.9635   13.5897 C   0  0  0  0  0  0  0  0  0  0  0  0
   21.2394   77.2267   14.6619 C   0  0  0  0  0  0  0  0  0  0  0  0
   20.6688   75.9658   14.7676 O   0  0  0  0  0  0  0  0  0  0  0  0
   22.0741   77.6758   15.7655 C   0  0  0  0  0  0  0  0  0  0  0  0
   23.3928   77.9337   15.7520 N   0  0  0  0  0  0  0  0  0  0  0  0
   23.7935   78.3671   16.9699 C   0  0  0  0  0  0  0  0  0  0  0  0
   22.6985   78.3753   17.7468 N   0  0  0  0  0  0  0  0  0  0  0  0
   21.6358   77.9637   17.0592 C   0  0  0  0  0  0  0  0  0  0  0  0
   20.2221   77.8087   17.4941 C   0  0  0  0  0  0  0  0  0  0  0  0
   25.1040   78.6960   17.2439 C   0  0  0  0  0  0  0  0  0  0  0  0
   26.0753   78.5940   16.2762 C   0  0  0  0  0  0  0  0  0  0  0  0
   25.6851   78.1524   15.0316 C   0  0  0  0  0  0  0  0  0  0  0  0
   24.3789   77.8417   14.8125 C   0  0  0  0  0  0  0  0  0  0  0  0
   17.6688   72.0761   12.0900 Br  0  0  0  0  0  0  0  0  0  0  0  0
   18.4499   73.8130   12.2021 C   0  0  0  0  0  0  0  0  0  0  0  0
   18.6383   74.4574   13.4107 C   0  0  0  0  0  0  0  0  0  0  0  0
   19.2030   75.7127   13.4925 C   0  0  0  0  0  0  0  0  0  0  0  0
   19.5988   76.3634   12.3591 C   0  0  0  0  0  0  0  0  0  0  0  0
   19.4149   75.7306   11.1626 C   0  0  0  0  0  0  0  0  0  0  0  0
   18.8533   74.4787   11.0605 C   0  0  0  0  0  0  0  0  0  0  0  0
   21.3504   77.8327    9.9928 C   0  0  0  0  0  0  0  0  0  0  0  0
   20.7430   78.4207    8.8190 C   0  0  0  0  0  0  0  0  0  0  0  0
   20.2822   77.4915    7.7206 C   0  0  0  0  0  0  0  0  0  0  0  0
   19.2354   76.5897    8.1915 N   0  0  0  0  0  0  0  0  0  0  0  0
   19.1994   75.3304    7.5083 C   0  0  0  0  0  0  0  0  0  0  0  0
   18.3644   75.3157    6.2619 C   0  0  0  0  0  0  0  0  0  0  0  0
   18.0247   76.5632    5.8105 O   0  0  0  0  0  0  0  0  0  0  0  0
   17.4424   77.3870    6.7382 C   0  0  0  0  0  0  0  0  0  0  0  0
   17.9369   77.1896    8.1330 C   0  0  0  0  0  0  0  0  0  0  0  0
   19.4603   76.3836    9.1967 H   0  0  0  0  0  0  0  0  0  0  0  0
 20 21  1  0  0  0
 21 22  2  0  0  0
 21 26  1  0  0  0
 22 23  1  0  0  0
 23 24  2  0  0  0
 24 25  1  0  0  0
 24  1  1  0  0  0
 25 26  2  0  0  0
  1  2  1  0  0  0
  1  7  1  0  0  0
  2  3  1  0  0  0
  2 27  1  0  0  0
  3  4  2  0  0  0
  3  5  1  0  0  0
  5  6  2  0  0  0
  5  7  1  0  0  0
  7  8  2  0  0  0
  8  9  1  0  0  0
  8 10  1  0  0  0
 10 11  1  0  0  0
 10 14  2  0  0  0
 11 12  1  0  0  0
 11 19  1  0  0  0
 12 13  2  0  0  0
 12 16  1  0  0  0
 13 14  1  0  0  0
 14 15  1  0  0  0
 16 17  2  0  0  0
 17 18  1  0  0  0
 18 19  2  0  0  0
 27 28  1  0  0  0
 28 29  1  0  0  0
 29 30  1  0  0  0
 30 31  1  0  0  0
 30 35  1  0  0  0
 31 32  1  0  0  0
 32 33  1  0  0  0
 33 34  1  0  0  0
 34 35  1  0  0  0
 30 36  1  0  0  0
M  CHG 1   9  -1
M  CHG 1  30   1
M  END
> <minimizedAffinity>
-10.72734

$$$$
364


 32 35  0  0  0  0  0  0  0  0999 V2000
   20.4206   80.0121   17.3420 C   0  0  0  0  0  0  0  0  0  0  0  0
   19.7200   78.7587   17.3958 N   0  0  0  0  0  0  0  0  0  0  0  0
   19.4035   78.5066   18.7538 C   0  0  0  0  0  0  0  0  0  0  0  0
   18.9681   77.4141   19.2175 O   0  0  0  0  0  0  0  0  0  0  0  0
   19.6619   79.7155   19.5399 C   0  0  0  0  0  0  0  0  0  0  0  0
   19.4967   79.8771   20.7743 O   0  0  0  0  0  0  0  0  0  0  0  0
   20.1517   80.7194   18.6123 C   0  0  0  0  0  0  0  0  0  0  0  0
   20.2678   82.0131   18.8651 C   0  0  0  0  0  0  0  0  0  0  0  0
   20.6914   82.8393   17.8056 O   0  0  0  0  0  0  0  0  0  0  0  0
   20.0112   82.6641   20.1256 C   0  0  0  0  0  0  0  0  0  0  0  0
   20.4723   82.4688   21.3671 N   0  0  0  0  0  0  0  0  0  0  0  0
   19.8941   83.3189   22.2332 C   0  0  0  0  0  0  0  0  0  0  0  0
   19.0412   84.0790   21.5259 N   0  0  0  0  0  0  0  0  0  0  0  0
   19.0861   83.7099   20.2448 C   0  0  0  0  0  0  0  0  0  0  0  0
   18.2837   84.3193   19.1472 C   0  0  0  0  0  0  0  0  0  0  0  0
   20.1938   83.3552   23.5908 C   0  0  0  0  0  0  0  0  0  0  0  0
   21.1281   82.4794   24.0709 C   0  0  0  0  0  0  0  0  0  0  0  0
   21.7259   81.6046   23.1822 C   0  0  0  0  0  0  0  0  0  0  0  0
   21.3943   81.6070   21.8472 C   0  0  0  0  0  0  0  0  0  0  0  0
   26.5184   79.1969   16.4340 Br  0  0  0  0  0  0  0  0  0  0  0  0
   24.6432   79.4713   16.6788 C   0  0  0  0  0  0  0  0  0  0  0  0
   24.0256   78.8842   17.7459 C   0  0  0  0  0  0  0  0  0  0  0  0
   22.6763   79.0727   17.9337 C   0  0  0  0  0  0  0  0  0  0  0  0
   21.8785   79.8304   17.1064 C   0  0  0  0  0  0  0  0  0  0  0  0
   22.5406   80.4165   16.0265 C   0  0  0  0  0  0  0  0  0  0  0  0
   23.8887   80.2382   15.8234 C   0  0  0  0  0  0  0  0  0  0  0  0
   19.3832   77.8847   16.2507 C   0  0  0  0  0  0  0  0  0  0  0  0
   20.2925   76.6746   16.2403 C   0  0  0  0  0  0  0  0  0  0  0  0
   20.7861   76.3488   14.9484 N   0  0  0  0  0  0  0  0  0  0  0  0
   19.7018   75.7030   14.2083 C   0  0  0  0  0  0  0  0  0  0  0  0
   21.2677   77.4558   14.1816 C   0  0  0  0  0  0  0  0  0  0  0  0
   21.5680   75.6360   14.9909 H   0  0  0  0  0  0  0  0  0  0  0  0
 20 21  1  0  0  0
 21 22  2  0  0  0
 21 26  1  0  0  0
 22 23  1  0  0  0
 23 24  2  0  0  0
 24 25  1  0  0  0
 24  1  1  0  0  0
 25 26  2  0  0  0
  1  2  1  0  0  0
  1  7  1  0  0  0
  2  3  1  0  0  0
  2 27  1  0  0  0
  3  4  2  0  0  0
  3  5  1  0  0  0
  5  6  2  0  0  0
  5  7  1  0  0  0
  7  8  2  0  0  0
  8  9  1  0  0  0
  8 10  1  0  0  0
 10 11  1  0  0  0
 10 14  2  0  0  0
 11 12  1  0  0  0
 11 19  1  0  0  0
 12 13  2  0  0  0
 12 16  1  0  0  0
 13 14  1  0  0  0
 14 15  1  0  0  0
 16 17  2  0  0  0
 17 18  1  0  0  0
 18 19  2  0  0  0
 27 28  1  0  0  0
 28 29  1  0  0  0
 29 30  1  0  0  0
 29 31  1  0  0  0
 29 32  1  0  0  0
M  CHG 1   9  -1
M  CHG 1  29   1
M  END
> <minimizedAffinity>
-9.02554

$$$$
381


 29 32  0  0  0  0  0  0  0  0999 V2000
   22.4187   79.4673   16.8562 N   0  0  0  0  0  0  0  0  0  0  0  0
   21.7126   80.3864   17.5081 N   0  0  0  0  0  0  0  0  0  0  0  0
   20.7569   80.0438   18.4187 C   0  0  0  0  0  0  0  0  0  0  0  0
   20.5194   78.7460   18.6640 N   0  0  0  0  0  0  0  0  0  0  0  0
   19.4588   78.6004   19.6366 C   0  0  0  0  0  0  0  0  0  0  0  0
   19.0243   79.9841   20.0188 C   0  0  0  0  0  0  0  0  0  0  0  0
   19.9174   80.8332   19.2531 N   0  0  0  0  0  0  0  0  0  0  0  0
   21.1983   77.7749   18.0387 C   0  0  0  0  0  0  0  0  0  0  0  0
   20.9746   76.5628   18.2695 O   0  0  0  0  0  0  0  0  0  0  0  0
   22.1551   78.1772   17.1284 C   0  0  0  0  0  0  0  0  0  0  0  0
   22.8171   77.3020   16.5154 O   0  0  0  0  0  0  0  0  0  0  0  0
   19.9120   82.2438   19.3612 C   0  0  0  0  0  0  0  0  0  0  0  0
   20.3023   83.0868   18.3555 C   0  0  0  0  0  0  0  0  0  0  0  0
   20.3006   84.4631   18.4981 C   0  0  0  0  0  0  0  0  0  0  0  0
   19.8922   85.0247   19.6928 C   0  0  0  0  0  0  0  0  0  0  0  0
   19.4998   84.2053   20.7038 C   0  0  0  0  0  0  0  0  0  0  0  0
   19.5056   82.8350   20.5537 C   0  0  0  0  0  0  0  0  0  0  0  0
   23.4765   79.8218   15.8954 C   0  0  0  0  0  0  0  0  0  0  0  0
   22.6755   78.5783   13.7912 N   0  0  0  0  0  0  0  0  0  0  0  0
   22.9805   79.7323   14.5229 C   0  0  0  0  0  0  0  0  0  0  0  0
   22.8218   80.8890   13.9627 O   0  0  0  0  0  0  0  0  0  0  0  0
   22.8295   77.6539   14.2852 H   0  0  0  0  0  0  0  0  0  0  0  0
   20.2378   78.2251    8.1396 Br  0  0  0  0  0  0  0  0  0  0  0  0
   21.0246   78.3567    9.8758 C   0  0  0  0  0  0  0  0  0  0  0  0
   22.3252   78.7485   10.0534 C   0  0  0  0  0  0  0  0  0  0  0  0
   22.8917   78.8379   11.3325 C   0  0  0  0  0  0  0  0  0  0  0  0
   22.1961   78.5460   12.4789 C   0  0  0  0  0  0  0  0  0  0  0  0
   20.8626   78.1484   12.2599 C   0  0  0  0  0  0  0  0  0  0  0  0
   20.3039   78.0577   11.0152 C   0  0  0  0  0  0  0  0  0  0  0  0
 23 24  1  0  0  0
 24 25  2  0  0  0
 24 29  1  0  0  0
 25 26  1  0  0  0
 26 27  2  0  0  0
 27 28  1  0  0  0
 27 19  1  0  0  0
 28 29  2  0  0  0
 19 20  1  0  0  0
 20 21  2  0  0  0
 20 18  1  0  0  0
 18  1  1  0  0  0
  1  2  1  0  0  0
  1 10  1  0  0  0
  2  3  2  0  0  0
  3  4  1  0  0  0
  3  7  1  0  0  0
  4  5  1  0  0  0
  4  8  1  0  0  0
  5  6  1  0  0  0
  6  7  1  0  0  0
  7 12  1  0  0  0
 12 13  2  0  0  0
 12 17  1  0  0  0
 13 14  1  0  0  0
 14 15  2  0  0  0
 15 16  1  0  0  0
 16 17  2  0  0  0
  8  9  2  0  0  0
  8 10  1  0  0  0
 10 11  2  0  0  0
 19 22  1  0  0  0
M  END
> <minimizedAffinity>
-10.79030

$$$$
382


 31 34  0  0  0  0  0  0  0  0999 V2000
   20.9552   77.5790   16.3986 N   0  0  0  0  0  0  0  0  0  0  0  0
   20.7103   76.4533   17.0695 N   0  0  0  0  0  0  0  0  0  0  0  0
   20.2522   76.7475   18.2643 N   0  0  0  0  0  0  0  0  0  0  0  0
   20.1932   78.0958   18.3805 C   0  0  0  0  0  0  0  0  0  0  0  0
   20.6313   78.5943   17.2181 C   0  0  0  0  0  0  0  0  0  0  0  0
   20.5568   79.9623   17.3764 C   0  0  0  0  0  0  0  0  0  0  0  0
   20.8957   80.7737   16.4641 O   0  0  0  0  0  0  0  0  0  0  0  0
   20.0907   80.3049   18.5873 N   0  0  0  0  0  0  0  0  0  0  0  0
   19.8590   79.1246   19.2294 C   0  0  0  0  0  0  0  0  0  0  0  0
   19.4111   79.0639   20.4068 O   0  0  0  0  0  0  0  0  0  0  0  0
   20.8716   75.5063   16.6680 H   0  0  0  0  0  0  0  0  0  0  0  0
   19.9651   76.0941   19.0349 H   0  0  0  0  0  0  0  0  0  0  0  0
   19.8680   81.6147   19.1297 C   0  0  0  0  0  0  0  0  0  0  0  0
   19.1964   81.7836   20.3214 C   0  0  0  0  0  0  0  0  0  0  0  0
   18.9876   83.0396   20.8554 C   0  0  0  0  0  0  0  0  0  0  0  0
   19.4361   84.1872   20.2271 C   0  0  0  0  0  0  0  0  0  0  0  0
   20.1084   84.0211   19.0347 C   0  0  0  0  0  0  0  0  0  0  0  0
   20.3158   82.7585   18.5038 C   0  0  0  0  0  0  0  0  0  0  0  0
   19.1984   85.5255   20.8325 C   0  0  0  0  0  0  0  0  0  0  0  0
   21.4727   77.6316   15.0457 C   0  0  0  0  0  0  0  0  0  0  0  0
   20.3056   75.4282   14.6206 N   0  0  0  0  0  0  0  0  0  0  0  0
   20.6337   76.7142   14.1717 C   0  0  0  0  0  0  0  0  0  0  0  0
   20.2501   77.1252   13.0566 O   0  0  0  0  0  0  0  0  0  0  0  0
   20.6623   75.1182   15.5795 H   0  0  0  0  0  0  0  0  0  0  0  0
   17.1833   71.1107   11.5529 Br  0  0  0  0  0  0  0  0  0  0  0  0
   18.1004   72.4814   12.4973 C   0  0  0  0  0  0  0  0  0  0  0  0
   17.5995   73.7516   12.6288 C   0  0  0  0  0  0  0  0  0  0  0  0
   18.3101   74.7177   13.3281 C   0  0  0  0  0  0  0  0  0  0  0  0
   19.5305   74.4756   13.9206 C   0  0  0  0  0  0  0  0  0  0  0  0
   20.0125   73.1618   13.7656 C   0  0  0  0  0  0  0  0  0  0  0  0
   19.3192   72.2153   13.0814 C   0  0  0  0  0  0  0  0  0  0  0  0
 25 26  1  0  0  0
 26 27  2  0  0  0
 26 31  1  0  0  0
 27 28  1  0  0  0
 28 29  2  0  0  0
 29 30  1  0  0  0
 29 21  1  0  0  0
 30 31  2  0  0  0
 21 22  1  0  0  0
 22 23  2  0  0  0
 22 20  1  0  0  0
 20  1  1  0  0  0
  1  2  1  0  0  0
  1  5  1  0  0  0
  2  3  1  0  0  0
  3  4  1  0  0  0
  4  5  2  0  0  0
  4  9  1  0  0  0
  5  6  1  0  0  0
  6  7  2  0  0  0
  6  8  1  0  0  0
  8  9  1  0  0  0
  8 13  1  0  0  0
  9 10  2  0  0  0
 13 14  2  0  0  0
 13 18  1  0  0  0
 14 15  1  0  0  0
 15 16  2  0  0  0
 16 17  1  0  0  0
 16 19  1  0  0  0
 17 18  2  0  0  0
 21 24  1  0  0  0
  2 11  1  0  0  0
  3 12  1  0  0  0
M  END
> <minimizedAffinity>
-12.18328

$$$$
385


 32 35  0  0  0  0  0  0  0  0999 V2000
   21.8211   78.8408   17.0691 C   0  0  0  0  0  0  0  0  0  0  0  0
   23.3188   78.8982   17.1254 C   0  0  0  0  0  0  0  0  0  0  0  0
   23.9927   78.4907   15.8860 C   0  0  0  0  0  0  0  0  0  0  0  0
   25.1021   79.0250   15.6141 O   0  0  0  0  0  0  0  0  0  0  0  0
   23.3980   77.5280   15.0340 N   0  0  0  0  0  0  0  0  0  0  0  0
   22.0329   77.2004   15.1824 C   0  0  0  0  0  0  0  0  0  0  0  0
   21.4826   76.2570   14.3564 N   0  0  0  0  0  0  0  0  0  0  0  0
   20.2031   75.8894   14.4503 C   0  0  0  0  0  0  0  0  0  0  0  0
   19.4543   76.4789   15.3910 N   0  0  0  0  0  0  0  0  0  0  0  0
   19.9525   77.4260   16.2385 C   0  0  0  0  0  0  0  0  0  0  0  0
   21.2727   77.8233   16.1627 C   0  0  0  0  0  0  0  0  0  0  0  0
   19.1121   78.0328   17.2146 N   0  0  0  0  0  0  0  0  0  0  0  0
   23.9531   77.0361   14.2752 H   0  0  0  0  0  0  0  0  0  0  0  0
   19.4713   78.5633   18.0139 H   0  0  0  0  0  0  0  0  0  0  0  0
   18.0704   77.9261   17.1139 H   0  0  0  0  0  0  0  0  0  0  0  0
   19.6438   74.8924   13.5644 N   0  0  0  0  0  0  0  0  0  0  0  0
   19.8389   73.5298   13.9180 C   0  0  0  0  0  0  0  0  0  0  0  0
   18.8914   72.5759   13.2495 C   0  0  0  0  0  0  0  0  0  0  0  0
   17.9380   73.2280   12.4751 O   0  0  0  0  0  0  0  0  0  0  0  0
   18.5165   74.1342   11.5967 C   0  0  0  0  0  0  0  0  0  0  0  0
   18.9258   75.3471   12.3917 C   0  0  0  0  0  0  0  0  0  0  0  0
   20.8428   81.0643   17.5775 N   0  0  0  0  0  0  0  0  0  0  0  0
   21.3769   80.2646   16.6699 C   0  0  0  0  0  0  0  0  0  0  0  0
   21.6177   80.4551   15.4121 O   0  0  0  0  0  0  0  0  0  0  0  0
   20.5375   81.9692   16.6061 H   0  0  0  0  0  0  0  0  0  0  0  0
   18.4609   84.3449   22.1370 Br  0  0  0  0  0  0  0  0  0  0  0  0
   19.1949   83.3450   20.6719 C   0  0  0  0  0  0  0  0  0  0  0  0
   19.1331   81.9740   20.6501 C   0  0  0  0  0  0  0  0  0  0  0  0
   19.6485   81.2606   19.6295 C   0  0  0  0  0  0  0  0  0  0  0  0
   20.2882   81.8957   18.5179 C   0  0  0  0  0  0  0  0  0  0  0  0
   20.3281   83.2714   18.5797 C   0  0  0  0  0  0  0  0  0  0  0  0
   19.8007   83.9960   19.6197 C   0  0  0  0  0  0  0  0  0  0  0  0
 26 27  1  0  0  0
 27 28  2  0  0  0
 27 32  1  0  0  0
 28 29  1  0  0  0
 29 30  2  0  0  0
 30 31  1  0  0  0
 30 22  1  0  0  0
 31 32  2  0  0  0
 22 23  1  0  0  0
 23 24  2  0  0  0
 23  1  1  0  0  0
  1  2  1  0  0  0
  1 11  1  0  0  0
  2  3  1  0  0  0
  3  4  2  0  0  0
  3  5  1  0  0  0
  5  6  1  0  0  0
  6  7  2  0  0  0
  6 11  1  0  0  0
  7  8  1  0  0  0
  8  9  2  0  0  0
  8 16  1  0  0  0
  9 10  1  0  0  0
 10 11  2  0  0  0
 10 12  1  0  0  0
 16 17  1  0  0  0
 16 21  1  0  0  0
 17 18  1  0  0  0
 18 19  1  0  0  0
 19 20  1  0  0  0
 20 21  1  0  0  0
 22 25  1  0  0  0
  5 13  1  0  0  0
 12 14  1  0  0  0
 12 15  1  0  0  0
M  END
> <minimizedAffinity>
-10.65006

$$$$
386


 36 39  0  0  0  0  0  0  0  0999 V2000
   22.9482   78.3045   16.4914 C   0  0  0  0  0  0  0  0  0  0  0  0
   23.9984   79.2791   16.9909 C   0  0  0  0  0  0  0  0  0  0  0  0
   25.2341   79.0767   16.1756 C   0  0  0  0  0  0  0  0  0  0  0  0
   26.3205   78.9473   16.7107 O   0  0  0  0  0  0  0  0  0  0  0  0
   25.0667   79.0485   14.7836 N   0  0  0  0  0  0  0  0  0  0  0  0
   23.8086   78.7513   14.2113 C   0  0  0  0  0  0  0  0  0  0  0  0
   23.6101   78.8171   12.8793 N   0  0  0  0  0  0  0  0  0  0  0  0
   22.4401   78.6434   12.2637 C   0  0  0  0  0  0  0  0  0  0  0  0
   21.3913   78.3821   13.0863 N   0  0  0  0  0  0  0  0  0  0  0  0
   21.5170   78.2983   14.4357 C   0  0  0  0  0  0  0  0  0  0  0  0
   22.7132   78.4713   15.0624 C   0  0  0  0  0  0  0  0  0  0  0  0
   20.3884   78.0299   15.2057 O   0  0  0  0  0  0  0  0  0  0  0  0
   25.8526   79.2482   14.1080 H   0  0  0  0  0  0  0  0  0  0  0  0
   19.6746   78.7319   15.3887 H   0  0  0  0  0  0  0  0  0  0  0  0
   22.2684   78.6674   10.8598 N   0  0  0  0  0  0  0  0  0  0  0  0
   21.5489   77.7055   10.0660 C   0  0  0  0  0  0  0  0  0  0  0  0
   20.8057   78.4547    8.9641 C   0  0  0  0  0  0  0  0  0  0  0  0
   20.4323   79.8479    9.3774 C   0  0  0  0  0  0  0  0  0  0  0  0
   21.6326   80.6568    9.7232 C   0  0  0  0  0  0  0  0  0  0  0  0
   22.8485   79.7770   10.0946 C   0  0  0  0  0  0  0  0  0  0  0  0
   19.4031   79.8534   10.4439 C   0  0  0  0  0  0  0  0  0  0  0  0
   18.8175   78.7791   10.6901 O   0  0  0  0  0  0  0  0  0  0  0  0
   19.0472   81.0003   11.1880 N   0  0  0  0  0  0  0  0  0  0  0  0
   19.7357   81.7234   11.4657 H   0  0  0  0  0  0  0  0  0  0  0  0
   18.0518   81.1242   11.4681 H   0  0  0  0  0  0  0  0  0  0  0  0
   21.1724   79.1729   17.9972 N   0  0  0  0  0  0  0  0  0  0  0  0
   21.7938   78.1300   17.4134 C   0  0  0  0  0  0  0  0  0  0  0  0
   21.5165   76.8595   17.5316 O   0  0  0  0  0  0  0  0  0  0  0  0
   20.2377   78.3447   18.5026 H   0  0  0  0  0  0  0  0  0  0  0  0
   18.7477   84.1806   20.3468 Br  0  0  0  0  0  0  0  0  0  0  0  0
   19.4645   82.5708   19.6559 C   0  0  0  0  0  0  0  0  0  0  0  0
   20.1316   82.5794   18.4435 C   0  0  0  0  0  0  0  0  0  0  0  0
   20.6721   81.4709   17.8824 C   0  0  0  0  0  0  0  0  0  0  0  0
   20.5388   80.2349   18.5932 C   0  0  0  0  0  0  0  0  0  0  0  0
   19.8709   80.2606   19.7943 C   0  0  0  0  0  0  0  0  0  0  0  0
   19.3293   81.4002   20.3458 C   0  0  0  0  0  0  0  0  0  0  0  0
 30 31  1  0  0  0
 31 32  2  0  0  0
 31 36  1  0  0  0
 32 33  1  0  0  0
 33 34  2  0  0  0
 34 35  1  0  0  0
 34 26  1  0  0  0
 35 36  2  0  0  0
 26 27  1  0  0  0
 27 28  2  0  0  0
 27  1  1  0  0  0
  1  2  1  0  0  0
  1 11  1  0  0  0
  2  3  1  0  0  0
  3  4  2  0  0  0
  3  5  1  0  0  0
  5  6  1  0  0  0
  6  7  2  0  0  0
  6 11  1  0  0  0
  7  8  1  0  0  0
  8  9  2  0  0  0
  8 15  1  0  0  0
  9 10  1  0  0  0
 10 11  2  0  0  0
 10 12  1  0  0  0
 15 16  1  0  0  0
 15 20  1  0  0  0
 16 17  1  0  0  0
 17 18  1  0  0  0
 18 19  1  0  0  0
 18 21  1  0  0  0
 19 20  1  0  0  0
 21 22  2  0  0  0
 21 23  1  0  0  0
 26 29  1  0  0  0
  5 13  1  0  0  0
 12 14  1  0  0  0
 23 24  1  0  0  0
 23 25  1  0  0  0
M  END
> <minimizedAffinity>
-10.75335

$$$$
393


 27 30  0  0  0  0  0  0  0  0999 V2000
   20.2284   77.2595   11.8500 N   0  0  0  0  0  0  0  0  0  0  0  0
   19.9138   76.6645   12.9738 N   0  0  0  0  0  0  0  0  0  0  0  0
   20.5473   77.2008   14.0358 C   0  0  0  0  0  0  0  0  0  0  0  0
   21.3208   78.2130   13.5376 C   0  0  0  0  0  0  0  0  0  0  0  0
   21.1063   78.2309   12.1757 C   0  0  0  0  0  0  0  0  0  0  0  0
   22.1871   79.0777   14.3294 C   0  0  0  0  0  0  0  0  0  0  0  0
   21.6816   80.1485   14.7437 O   0  0  0  0  0  0  0  0  0  0  0  0
   23.5290   78.7653   14.6372 N   0  0  0  0  0  0  0  0  0  0  0  0
   24.3007   79.6922   15.4296 C   0  0  0  0  0  0  0  0  0  0  0  0
   24.5967   79.0399   16.7471 C   0  0  0  0  0  0  0  0  0  0  0  0
   24.4925   77.5870   16.6786 N   0  0  0  0  0  0  0  0  0  0  0  0
   24.6271   76.8658   15.4588 C   0  0  0  0  0  0  0  0  0  0  0  0
   25.0714   75.6919   15.4731 O   0  0  0  0  0  0  0  0  0  0  0  0
   24.2215   77.5679   14.2186 C   0  0  0  0  0  0  0  0  0  0  0  0
   24.3081   77.0659   17.5877 H   0  0  0  0  0  0  0  0  0  0  0  0
   18.0541   75.7730    6.2805 Br  0  0  0  0  0  0  0  0  0  0  0  0
   18.7282   76.2369    8.0090 C   0  0  0  0  0  0  0  0  0  0  0  0
   19.2777   75.2727    8.8277 C   0  0  0  0  0  0  0  0  0  0  0  0
   19.7597   75.6255   10.0719 C   0  0  0  0  0  0  0  0  0  0  0  0
   19.7220   76.9195   10.5566 C   0  0  0  0  0  0  0  0  0  0  0  0
   19.1694   77.8753    9.7239 C   0  0  0  0  0  0  0  0  0  0  0  0
   18.6837   77.5376    8.4766 C   0  0  0  0  0  0  0  0  0  0  0  0
   21.7154   79.1378   11.2290 N   0  0  0  0  0  0  0  0  0  0  0  0
   21.4103   80.4046   10.9905 C   0  0  0  0  0  0  0  0  0  0  0  0
   22.2264   80.9214   10.0109 C   0  0  0  0  0  0  0  0  0  0  0  0
   23.0620   79.8905    9.6527 C   0  0  0  0  0  0  0  0  0  0  0  0
   22.7301   78.7953   10.4186 C   0  0  0  0  0  0  0  0  0  0  0  0
 16 17  1  0  0  0
 17 18  2  0  0  0
 17 22  1  0  0  0
 18 19  1  0  0  0
 19 20  2  0  0  0
 20 21  1  0  0  0
 20  1  1  0  0  0
 21 22  2  0  0  0
  1  2  1  0  0  0
  1  5  1  0  0  0
  2  3  2  0  0  0
  3  4  1  0  0  0
  4  5  2  0  0  0
  4  6  1  0  0  0
  5 23  1  0  0  0
 23 24  1  0  0  0
 23 27  1  0  0  0
 24 25  2  0  0  0
 25 26  1  0  0  0
 26 27  2  0  0  0
  6  7  2  0  0  0
  6  8  1  0  0  0
  8  9  1  0  0  0
  8 14  1  0  0  0
  9 10  1  0  0  0
 10 11  1  0  0  0
 11 12  1  0  0  0
 12 13  2  0  0  0
 12 14  1  0  0  0
 11 15  1  0  0  0
M  END
> <minimizedAffinity>
-8.53591

$$$$
395


 28 31  0  0  0  0  0  0  0  0999 V2000
   20.3624   76.3186   14.1381 N   0  0  0  0  0  0  0  0  0  0  0  0
   21.0820   77.1234   13.3752 N   0  0  0  0  0  0  0  0  0  0  0  0
   21.5383   78.1584   14.0601 N   0  0  0  0  0  0  0  0  0  0  0  0
   21.1083   78.0518   15.3460 C   0  0  0  0  0  0  0  0  0  0  0  0
   20.3701   76.8819   15.3591 C   0  0  0  0  0  0  0  0  0  0  0  0
   19.8174   76.5257   16.5242 N   0  0  0  0  0  0  0  0  0  0  0  0
   19.9807   77.2808   17.6244 C   0  0  0  0  0  0  0  0  0  0  0  0
   20.7006   78.4260   17.6196 N   0  0  0  0  0  0  0  0  0  0  0  0
   21.2706   78.8195   16.4744 C   0  0  0  0  0  0  0  0  0  0  0  0
   21.9366   79.8782   16.4665 O   0  0  0  0  0  0  0  0  0  0  0  0
   17.4730   71.1224   12.5116 Br  0  0  0  0  0  0  0  0  0  0  0  0
   18.3820   72.7287   13.0233 C   0  0  0  0  0  0  0  0  0  0  0  0
   17.8550   73.9703   12.7368 C   0  0  0  0  0  0  0  0  0  0  0  0
   18.4988   75.1442   13.0993 C   0  0  0  0  0  0  0  0  0  0  0  0
   19.7042   75.1047   13.7679 C   0  0  0  0  0  0  0  0  0  0  0  0
   20.2255   73.8580   14.0515 C   0  0  0  0  0  0  0  0  0  0  0  0
   19.5874   72.6891   13.6919 C   0  0  0  0  0  0  0  0  0  0  0  0
   20.8187   79.1739   18.8576 C   0  0  0  0  0  0  0  0  0  0  0  0
   19.7782   80.2635   18.9073 C   0  0  0  0  0  0  0  0  0  0  0  0
   18.8423   80.2956   18.0644 O   0  0  0  0  0  0  0  0  0  0  0  0
   19.8304   81.2711   19.8991 N   0  0  0  0  0  0  0  0  0  0  0  0
   18.8402   82.3200   19.9561 C   0  0  0  0  0  0  0  0  0  0  0  0
   19.5899   83.6226   20.1766 C   0  0  0  0  0  0  0  0  0  0  0  0
   20.4070   83.6061   21.2773 O   0  0  0  0  0  0  0  0  0  0  0  0
   20.5610   82.3751   21.8658 C   0  0  0  0  0  0  0  0  0  0  0  0
   20.8884   81.2699   20.8824 C   0  0  0  0  0  0  0  0  0  0  0  0
   21.5605   82.3671   22.9846 C   0  0  0  0  0  0  0  0  0  0  0  0
   18.5204   84.6909   20.4268 C   0  0  0  0  0  0  0  0  0  0  0  0
 11 12  1  0  0  0
 12 13  2  0  0  0
 12 17  1  0  0  0
 13 14  1  0  0  0
 14 15  2  0  0  0
 15 16  1  0  0  0
 15  1  1  0  0  0
 16 17  2  0  0  0
  1  2  1  0  0  0
  1  5  1  0  0  0
  2  3  2  0  0  0
  3  4  1  0  0  0
  4  5  2  0  0  0
  4  9  1  0  0  0
  5  6  1  0  0  0
  6  7  2  0  0  0
  7  8  1  0  0  0
  8  9  1  0  0  0
  8 18  1  0  0  0
  9 10  2  0  0  0
 18 19  1  0  0  0
 19 20  2  0  0  0
 19 21  1  0  0  0
 21 22  1  0  0  0
 21 26  1  0  0  0
 22 23  1  0  0  0
 23 24  1  0  0  0
 23 28  1  0  0  0
 24 25  1  0  0  0
 25 26  1  0  0  0
 25 27  1  0  0  0
M  END
> <minimizedAffinity>
-10.01537

$$$$
399


 28 31  0  0  0  0  0  0  0  0999 V2000
   20.9693   78.8076    9.9101 N   0  0  0  0  0  0  0  0  0  0  0  0
   20.5252   79.3391   11.1536 C   0  0  0  0  0  0  0  0  0  0  0  0
   19.3891   79.1633   11.6432 O   0  0  0  0  0  0  0  0  0  0  0  0
   21.5798   80.1330   11.8017 C   0  0  0  0  0  0  0  0  0  0  0  0
   22.4506   80.5330   10.6161 C   0  0  0  0  0  0  0  0  0  0  0  0
   22.2729   79.3770    9.6812 C   0  0  0  0  0  0  0  0  0  0  0  0
   23.1707   79.0530    8.8818 O   0  0  0  0  0  0  0  0  0  0  0  0
   18.1229   74.8405    6.1421 Br  0  0  0  0  0  0  0  0  0  0  0  0
   19.0035   76.0777    7.3087 C   0  0  0  0  0  0  0  0  0  0  0  0
   18.7975   77.4267    7.2129 C   0  0  0  0  0  0  0  0  0  0  0  0
   19.4445   78.3252    8.0677 C   0  0  0  0  0  0  0  0  0  0  0  0
   20.3070   77.8935    9.0334 C   0  0  0  0  0  0  0  0  0  0  0  0
   20.5164   76.5482    9.1326 C   0  0  0  0  0  0  0  0  0  0  0  0
   19.8735   75.6379    8.2796 C   0  0  0  0  0  0  0  0  0  0  0  0
   22.3668   79.4254   12.7861 N   0  0  0  0  0  0  0  0  0  0  0  0
   23.1260   80.3174   13.6292 C   0  0  0  0  0  0  0  0  0  0  0  0
   22.4804   80.6149   14.9642 C   0  0  0  0  0  0  0  0  0  0  0  0
   21.8873   79.4330   15.5361 N   0  0  0  0  0  0  0  0  0  0  0  0
   22.2346   78.2044   14.8615 C   0  0  0  0  0  0  0  0  0  0  0  0
   21.6630   78.3836   13.4423 C   0  0  0  0  0  0  0  0  0  0  0  0
   23.1225   78.9369   12.1959 H   0  0  0  0  0  0  0  0  0  0  0  0
   21.0277   79.4460   16.6394 C   0  0  0  0  0  0  0  0  0  0  0  0
   20.4435   78.3344   17.2123 C   0  0  0  0  0  0  0  0  0  0  0  0
   19.5781   78.4062   18.2919 C   0  0  0  0  0  0  0  0  0  0  0  0
   19.2650   79.6206   18.8409 C   0  0  0  0  0  0  0  0  0  0  0  0
   19.8205   80.7657   18.3067 C   0  0  0  0  0  0  0  0  0  0  0  0
   20.6823   80.6681   17.2289 C   0  0  0  0  0  0  0  0  0  0  0  0
   18.4015   79.7628   19.9277 O   0  0  0  0  0  0  0  0  0  0  0  0
  8  9  1  0  0  0
  9 10  2  0  0  0
  9 14  1  0  0  0
 10 11  1  0  0  0
 11 12  2  0  0  0
 12 13  1  0  0  0
 12  1  1  0  0  0
 13 14  2  0  0  0
  1  2  1  0  0  0
  1  6  1  0  0  0
  2  3  2  0  0  0
  2  4  1  0  0  0
  4  5  1  0  0  0
  4 15  1  0  0  0
  5  6  1  0  0  0
  6  7  2  0  0  0
 15 16  1  0  0  0
 15 20  1  0  0  0
 16 17  1  0  0  0
 17 18  1  0  0  0
 18 19  1  0  0  0
 18 22  1  0  0  0
 19 20  1  0  0  0
 22 23  2  0  0  0
 22 27  1  0  0  0
 23 24  1  0  0  0
 24 25  2  0  0  0
 25 26  1  0  0  0
 25 28  1  0  0  0
 26 27  2  0  0  0
 15 21  1  0  0  0
M  CHG 1  15   1
M  CHG 1  28  -1
M  END
> <minimizedAffinity>
-9.49919

$$$$
400


 31 34  0  0  0  0  0  0  0  0999 V2000
   21.9362   79.4912   16.8211 N   0  0  0  0  0  0  0  0  0  0  0  0
   21.1321   80.6450   16.7734 C   0  0  0  0  0  0  0  0  0  0  0  0
   19.9272   80.4404   17.7015 C   0  0  0  0  0  0  0  0  0  0  0  0
   20.3566   80.3856   19.1507 C   0  0  0  0  0  0  0  0  0  0  0  0
   21.6005   79.6010   19.2689 C   0  0  0  0  0  0  0  0  0  0  0  0
   21.8682   78.7732   18.0372 C   0  0  0  0  0  0  0  0  0  0  0  0
   23.1833   78.8607   13.8709 N   0  0  0  0  0  0  0  0  0  0  0  0
   22.9799   79.9695   14.7534 C   0  0  0  0  0  0  0  0  0  0  0  0
   22.6930   81.1518   14.4457 O   0  0  0  0  0  0  0  0  0  0  0  0
   23.1686   79.4794   16.1434 C   0  0  0  0  0  0  0  0  0  0  0  0
   23.8053   78.1116   16.0380 C   0  0  0  0  0  0  0  0  0  0  0  0
   24.0456   77.9771   14.5764 C   0  0  0  0  0  0  0  0  0  0  0  0
   24.8918   77.1932   14.0181 O   0  0  0  0  0  0  0  0  0  0  0  0
   20.7447   78.1414    8.2516 Br  0  0  0  0  0  0  0  0  0  0  0  0
   21.4974   78.3631    9.9955 C   0  0  0  0  0  0  0  0  0  0  0  0
   20.7496   78.2108   11.1400 C   0  0  0  0  0  0  0  0  0  0  0  0
   21.3082   78.3752   12.4135 C   0  0  0  0  0  0  0  0  0  0  0  0
   22.6312   78.6959   12.5622 C   0  0  0  0  0  0  0  0  0  0  0  0
   23.3703   78.8471   11.4102 C   0  0  0  0  0  0  0  0  0  0  0  0
   22.8285   78.6862   10.1448 C   0  0  0  0  0  0  0  0  0  0  0  0
   20.3817   81.6952   19.6566 N   0  0  0  0  0  0  0  0  0  0  0  0
   20.8693   81.9106   20.9538 C   0  0  0  0  0  0  0  0  0  0  0  0
   19.7662   82.6564   21.7248 C   0  0  0  0  0  0  0  0  0  0  0  0
   19.6365   84.0072   21.0507 C   0  0  0  0  0  0  0  0  0  0  0  0
   20.2591   84.0578   19.6953 C   0  0  0  0  0  0  0  0  0  0  0  0
   20.0177   82.7785   18.8799 C   0  0  0  0  0  0  0  0  0  0  0  0
   19.2586   79.6406   19.8634 C   0  0  0  0  0  0  0  0  0  0  0  0
   18.0825   80.1137   19.8792 O   0  0  0  0  0  0  0  0  0  0  0  0
   19.4725   78.4120   20.5322 N   0  0  0  0  0  0  0  0  0  0  0  0
   19.3190   78.3512   21.5459 H   0  0  0  0  0  0  0  0  0  0  0  0
   19.7813   77.5681   20.0128 H   0  0  0  0  0  0  0  0  0  0  0  0
 14 15  1  0  0  0
 15 16  2  0  0  0
 15 20  1  0  0  0
 16 17  1  0  0  0
 17 18  2  0  0  0
 18 19  1  0  0  0
 18  7  1  0  0  0
 19 20  2  0  0  0
  7  8  1  0  0  0
  7 12  1  0  0  0
  8  9  2  0  0  0
  8 10  1  0  0  0
 10 11  1  0  0  0
 10  1  1  0  0  0
 11 12  1  0  0  0
 12 13  2  0  0  0
  1  2  1  0  0  0
  1  6  1  0  0  0
  2  3  1  0  0  0
  3  4  1  0  0  0
  4  5  1  0  0  0
  4 21  1  0  0  0
  4 27  1  0  0  0
  5  6  1  0  0  0
 21 22  1  0  0  0
 21 26  1  0  0  0
 22 23  1  0  0  0
 23 24  1  0  0  0
 24 25  1  0  0  0
 25 26  1  0  0  0
 27 28  2  0  0  0
 27 29  1  0  0  0
 29 30  1  0  0  0
 29 31  1  0  0  0
M  END
> <minimizedAffinity>
-9.68011

$$$$
408


 31 34  0  0  0  0  0  0  0  0999 V2000
   20.5677   80.0646   18.7477 N   0  0  0  0  0  0  0  0  0  0  0  0
   21.0776   80.2687   17.5213 C   0  0  0  0  0  0  0  0  0  0  0  0
   21.3262   81.4184   17.0442 O   0  0  0  0  0  0  0  0  0  0  0  0
   21.2903   79.0588   16.8601 C   0  0  0  0  0  0  0  0  0  0  0  0
   20.8989   78.1165   17.7128 C   0  0  0  0  0  0  0  0  0  0  0  0
   21.1120   76.9619   17.0563 N   0  0  0  0  0  0  0  0  0  0  0  0
   21.6132   77.2013   15.8558 N   0  0  0  0  0  0  0  0  0  0  0  0
   21.7278   78.5005   15.7244 N   0  0  0  0  0  0  0  0  0  0  0  0
   20.4546   78.7226   18.8708 C   0  0  0  0  0  0  0  0  0  0  0  0
   20.0103   78.1597   19.8953 O   0  0  0  0  0  0  0  0  0  0  0  0
   20.8887   76.0337   17.4975 H   0  0  0  0  0  0  0  0  0  0  0  0
   21.8545   76.4435   15.1764 H   0  0  0  0  0  0  0  0  0  0  0  0
   18.9846   84.3439   22.8926 Br  0  0  0  0  0  0  0  0  0  0  0  0
   19.4863   83.0097   21.6064 C   0  0  0  0  0  0  0  0  0  0  0  0
   18.6640   82.7008   20.5442 C   0  0  0  0  0  0  0  0  0  0  0  0
   19.0228   81.7407   19.6172 C   0  0  0  0  0  0  0  0  0  0  0  0
   20.2189   81.0503   19.7159 C   0  0  0  0  0  0  0  0  0  0  0  0
   21.0271   81.3747   20.7867 C   0  0  0  0  0  0  0  0  0  0  0  0
   20.6784   82.3293   21.7144 C   0  0  0  0  0  0  0  0  0  0  0  0
   22.2278   79.2224   14.5820 C   0  0  0  0  0  0  0  0  0  0  0  0
   21.5432   78.8048   13.3132 C   0  0  0  0  0  0  0  0  0  0  0  0
   21.0976   77.6326   13.3263 O   0  0  0  0  0  0  0  0  0  0  0  0
   21.4159   79.6552   12.2119 N   0  0  0  0  0  0  0  0  0  0  0  0
   21.8488   80.6293   12.3521 H   0  0  0  0  0  0  0  0  0  0  0  0
   20.8010   79.3705   10.9870 C   0  0  0  0  0  0  0  0  0  0  0  0
   21.6200   78.8814    9.9563 C   0  0  0  0  0  0  0  0  0  0  0  0
   21.0592   78.5889    8.7390 C   0  0  0  0  0  0  0  0  0  0  0  0
   19.7158   78.7522    8.4745 C   0  0  0  0  0  0  0  0  0  0  0  0
   18.9145   79.2272    9.4700 C   0  0  0  0  0  0  0  0  0  0  0  0
   19.4674   79.5253   10.6979 C   0  0  0  0  0  0  0  0  0  0  0  0
   23.0679   78.6766   10.1558 C   0  0  0  0  0  0  0  0  0  0  0  0
 13 14  1  0  0  0
 14 15  2  0  0  0
 14 19  1  0  0  0
 15 16  1  0  0  0
 16 17  2  0  0  0
 17 18  1  0  0  0
 17  1  1  0  0  0
 18 19  2  0  0  0
  1  2  1  0  0  0
  1  9  1  0  0  0
  2  3  2  0  0  0
  2  4  1  0  0  0
  4  5  2  0  0  0
  4  8  1  0  0  0
  5  6  1  0  0  0
  5  9  1  0  0  0
  6  7  1  0  0  0
  7  8  1  0  0  0
  8 20  1  0  0  0
 20 21  1  0  0  0
 21 22  2  0  0  0
 21 23  1  0  0  0
 23 25  1  0  0  0
 25 26  2  0  0  0
 25 30  1  0  0  0
 26 27  1  0  0  0
 26 31  1  0  0  0
 27 28  2  0  0  0
 28 29  1  0  0  0
 29 30  2  0  0  0
  9 10  2  0  0  0
  6 11  1  0  0  0
  7 12  1  0  0  0
 23 24  1  0  0  0
M  END
> <minimizedAffinity>
-10.25747

$$$$
411


 34 37  0  0  0  0  0  0  0  0999 V2000
   20.5929   78.4196   10.8128 N   0  0  0  0  0  0  0  0  0  0  0  0
   20.5831   78.0811   12.1123 C   0  0  0  0  0  0  0  0  0  0  0  0
   19.9357   77.0949   12.5484 O   0  0  0  0  0  0  0  0  0  0  0  0
   21.3621   78.9475   12.8610 C   0  0  0  0  0  0  0  0  0  0  0  0
   21.8540   79.8283   11.9991 C   0  0  0  0  0  0  0  0  0  0  0  0
   22.6082   80.6678   12.7250 N   0  0  0  0  0  0  0  0  0  0  0  0
   22.5776   80.3091   13.9960 N   0  0  0  0  0  0  0  0  0  0  0  0
   21.8168   79.2523   14.1005 N   0  0  0  0  0  0  0  0  0  0  0  0
   21.3861   79.5117   10.7409 C   0  0  0  0  0  0  0  0  0  0  0  0
   21.6591   80.1489    9.6700 O   0  0  0  0  0  0  0  0  0  0  0  0
   23.1475   81.4854   12.3771 H   0  0  0  0  0  0  0  0  0  0  0  0
   23.0751   80.7784   14.8102 H   0  0  0  0  0  0  0  0  0  0  0  0
   17.8498   75.6824    6.0234 Br  0  0  0  0  0  0  0  0  0  0  0  0
   18.6927   76.5453    7.5108 C   0  0  0  0  0  0  0  0  0  0  0  0
   18.2694   77.7818    7.9571 C   0  0  0  0  0  0  0  0  0  0  0  0
   18.8852   78.4041    9.0390 C   0  0  0  0  0  0  0  0  0  0  0  0
   19.9397   77.8132    9.7037 C   0  0  0  0  0  0  0  0  0  0  0  0
   20.3578   76.5801    9.2537 C   0  0  0  0  0  0  0  0  0  0  0  0
   19.7479   75.9609    8.1821 C   0  0  0  0  0  0  0  0  0  0  0  0
   21.4919   78.5143   15.2977 C   0  0  0  0  0  0  0  0  0  0  0  0
   21.4304   79.4698   16.4666 C   0  0  0  0  0  0  0  0  0  0  0  0
   22.4935   79.8172   17.0272 O   0  0  0  0  0  0  0  0  0  0  0  0
   20.1933   79.9573   16.9125 N   0  0  0  0  0  0  0  0  0  0  0  0
   19.3249   79.6174   16.3845 H   0  0  0  0  0  0  0  0  0  0  0  0
   19.9957   80.8534   17.9817 C   0  0  0  0  0  0  0  0  0  0  0  0
   20.4205   82.1571   18.0294 C   0  0  0  0  0  0  0  0  0  0  0  0
   20.2099   82.9798   19.1165 C   0  0  0  0  0  0  0  0  0  0  0  0
   19.5386   82.4592   20.2028 C   0  0  0  0  0  0  0  0  0  0  0  0
   19.0921   81.1477   20.1946 C   0  0  0  0  0  0  0  0  0  0  0  0
   19.3135   80.3493   19.1058 C   0  0  0  0  0  0  0  0  0  0  0  0
   19.3149   83.2729   21.3102 O   0  0  0  0  0  0  0  0  0  0  0  0
   18.2490   84.2013   21.2798 C   0  0  0  0  0  0  0  0  0  0  0  0
   20.6531   84.3003   19.1358 O   0  0  0  0  0  0  0  0  0  0  0  0
   20.3277   85.1250   18.0093 C   0  0  0  0  0  0  0  0  0  0  0  0
 13 14  1  0  0  0
 14 15  2  0  0  0
 14 19  1  0  0  0
 15 16  1  0  0  0
 16 17  2  0  0  0
 17 18  1  0  0  0
 17  1  1  0  0  0
 18 19  2  0  0  0
  1  2  1  0  0  0
  1  9  1  0  0  0
  2  3  2  0  0  0
  2  4  1  0  0  0
  4  5  2  0  0  0
  4  8  1  0  0  0
  5  6  1  0  0  0
  5  9  1  0  0  0
  6  7  1  0  0  0
  7  8  1  0  0  0
  8 20  1  0  0  0
 20 21  1  0  0  0
 21 22  2  0  0  0
 21 23  1  0  0  0
 23 25  1  0  0  0
 25 26  2  0  0  0
 25 30  1  0  0  0
 26 27  1  0  0  0
 27 28  2  0  0  0
 27 33  1  0  0  0
 28 29  1  0  0  0
 28 31  1  0  0  0
 29 30  2  0  0  0
 31 32  1  0  0  0
 33 34  1  0  0  0
  9 10  2  0  0  0
  6 11  1  0  0  0
  7 12  1  0  0  0
 23 24  1  0  0  0
M  END
> <minimizedAffinity>
-9.70793

$$$$
412


 34 37  0  0  0  0  0  0  0  0999 V2000
   20.3504   77.1821   12.7743 N   0  0  0  0  0  0  0  0  0  0  0  0
   21.2505   77.5225   13.7001 C   0  0  0  0  0  0  0  0  0  0  0  0
   21.5516   76.7960   14.7052 O   0  0  0  0  0  0  0  0  0  0  0  0
   21.8326   78.7481   13.4737 C   0  0  0  0  0  0  0  0  0  0  0  0
   21.2517   79.1809   12.3381 C   0  0  0  0  0  0  0  0  0  0  0  0
   21.8098   80.3906   12.0908 N   0  0  0  0  0  0  0  0  0  0  0  0
   22.6918   80.6840   13.0295 N   0  0  0  0  0  0  0  0  0  0  0  0
   22.7100   79.6787   13.8806 N   0  0  0  0  0  0  0  0  0  0  0  0
   20.3490   78.2385   11.9034 C   0  0  0  0  0  0  0  0  0  0  0  0
   19.6125   78.2726   10.8883 O   0  0  0  0  0  0  0  0  0  0  0  0
   21.5576   80.9871   11.2684 H   0  0  0  0  0  0  0  0  0  0  0  0
   23.2462   81.5819   13.0374 H   0  0  0  0  0  0  0  0  0  0  0  0
   16.8994   72.0899   12.3143 Br  0  0  0  0  0  0  0  0  0  0  0  0
   17.9762   73.6835   12.4514 C   0  0  0  0  0  0  0  0  0  0  0  0
   18.5050   74.2819   11.3331 C   0  0  0  0  0  0  0  0  0  0  0  0
   19.2910   75.4404   11.4357 C   0  0  0  0  0  0  0  0  0  0  0  0
   19.5487   76.0029   12.6618 C   0  0  0  0  0  0  0  0  0  0  0  0
   19.0062   75.3850   13.7682 C   0  0  0  0  0  0  0  0  0  0  0  0
   18.2362   74.2493   13.6783 C   0  0  0  0  0  0  0  0  0  0  0  0
   23.5437   79.6102   15.0458 C   0  0  0  0  0  0  0  0  0  0  0  0
   22.8209   79.8022   16.3007 C   0  0  0  0  0  0  0  0  0  0  0  0
   23.2626   79.3858   17.4111 O   0  0  0  0  0  0  0  0  0  0  0  0
   21.5791   80.4747   16.2588 N   0  0  0  0  0  0  0  0  0  0  0  0
   21.1850   80.8286   15.3332 H   0  0  0  0  0  0  0  0  0  0  0  0
   20.8636   80.6701   17.4674 C   0  0  0  0  0  0  0  0  0  0  0  0
   20.5019   79.5385   18.1558 C   0  0  0  0  0  0  0  0  0  0  0  0
   19.7671   79.6447   19.3428 C   0  0  0  0  0  0  0  0  0  0  0  0
   19.4086   80.8798   19.8144 C   0  0  0  0  0  0  0  0  0  0  0  0
   19.7674   82.0369   19.1264 C   0  0  0  0  0  0  0  0  0  0  0  0
   20.4963   81.8975   17.9554 C   0  0  0  0  0  0  0  0  0  0  0  0
   19.3677   83.2446   19.6585 O   0  0  0  0  0  0  0  0  0  0  0  0
   18.8968   83.4810   20.9487 C   0  0  0  0  0  0  0  0  0  0  0  0
   19.4636   78.4494   19.9495 O   0  0  0  0  0  0  0  0  0  0  0  0
   20.1724   77.2782   19.7724 C   0  0  0  0  0  0  0  0  0  0  0  0
 13 14  1  0  0  0
 14 15  2  0  0  0
 14 19  1  0  0  0
 15 16  1  0  0  0
 16 17  2  0  0  0
 17 18  1  0  0  0
 17  1  1  0  0  0
 18 19  2  0  0  0
  1  2  1  0  0  0
  1  9  1  0  0  0
  2  3  2  0  0  0
  2  4  1  0  0  0
  4  5  2  0  0  0
  4  8  1  0  0  0
  5  6  1  0  0  0
  5  9  1  0  0  0
  6  7  1  0  0  0
  7  8  1  0  0  0
  8 20  1  0  0  0
 20 21  1  0  0  0
 21 22  2  0  0  0
 21 23  1  0  0  0
 23 25  1  0  0  0
 25 26  2  0  0  0
 25 30  1  0  0  0
 26 27  1  0  0  0
 27 28  2  0  0  0
 27 33  1  0  0  0
 28 29  1  0  0  0
 29 30  2  0  0  0
 29 31  1  0  0  0
 31 32  1  0  0  0
 33 34  1  0  0  0
  9 10  2  0  0  0
  6 11  1  0  0  0
  7 12  1  0  0  0
 23 24  1  0  0  0
M  END
> <minimizedAffinity>
-9.97547

$$$$
414


 35 38  0  0  0  0  0  0  0  0999 V2000
   19.4849   75.4657   13.1118 N   0  0  0  0  0  0  0  0  0  0  0  0
   20.0967   75.6769   14.3047 C   0  0  0  0  0  0  0  0  0  0  0  0
   20.0796   74.8934   15.3045 O   0  0  0  0  0  0  0  0  0  0  0  0
   20.7565   76.8934   14.2782 C   0  0  0  0  0  0  0  0  0  0  0  0
   20.5312   77.3961   13.0667 C   0  0  0  0  0  0  0  0  0  0  0  0
   21.1680   78.5908   13.0147 N   0  0  0  0  0  0  0  0  0  0  0  0
   21.7601   78.7775   14.1905 N   0  0  0  0  0  0  0  0  0  0  0  0
   21.5286   77.7559   14.9923 N   0  0  0  0  0  0  0  0  0  0  0  0
   19.7505   76.5289   12.3399 C   0  0  0  0  0  0  0  0  0  0  0  0
   19.3462   76.6797   11.1660 O   0  0  0  0  0  0  0  0  0  0  0  0
   21.1831   79.2331   12.1968 H   0  0  0  0  0  0  0  0  0  0  0  0
   22.3218   79.6115   14.4357 H   0  0  0  0  0  0  0  0  0  0  0  0
   16.2658   70.4223   11.7806 Br  0  0  0  0  0  0  0  0  0  0  0  0
   17.2836   71.9776   12.1826 C   0  0  0  0  0  0  0  0  0  0  0  0
   18.6073   72.1257   11.8257 C   0  0  0  0  0  0  0  0  0  0  0  0
   19.3089   73.2506   12.1284 C   0  0  0  0  0  0  0  0  0  0  0  0
   18.7179   74.3019   12.8123 C   0  0  0  0  0  0  0  0  0  0  0  0
   17.4017   74.1678   13.1731 C   0  0  0  0  0  0  0  0  0  0  0  0
   16.7091   73.0291   12.8617 C   0  0  0  0  0  0  0  0  0  0  0  0
   21.9776   77.5364   16.3621 C   0  0  0  0  0  0  0  0  0  0  0  0
   21.7751   78.8041   17.1559 C   0  0  0  0  0  0  0  0  0  0  0  0
   22.8484   79.4265   17.3513 O   0  0  0  0  0  0  0  0  0  0  0  0
   20.4972   79.1612   17.5820 N   0  0  0  0  0  0  0  0  0  0  0  0
   19.7143   78.4867   17.3073 H   0  0  0  0  0  0  0  0  0  0  0  0
   20.1317   80.3076   18.3303 C   0  0  0  0  0  0  0  0  0  0  0  0
   19.5499   80.2885   19.5756 C   0  0  0  0  0  0  0  0  0  0  0  0
   19.2166   81.4698   20.2527 C   0  0  0  0  0  0  0  0  0  0  0  0
   19.4586   82.7042   19.6990 C   0  0  0  0  0  0  0  0  0  0  0  0
   20.0403   82.7349   18.4551 C   0  0  0  0  0  0  0  0  0  0  0  0
   20.3676   81.5695   17.7893 C   0  0  0  0  0  0  0  0  0  0  0  0
   19.0950   83.9069   20.4407 C   0  0  0  0  0  0  0  0  0  0  0  0
   18.2662   84.6953   19.9206 O   0  0  0  0  0  0  0  0  0  0  0  0
   19.5962   84.2387   21.6682 O   0  0  0  0  0  0  0  0  0  0  0  0
   19.0363   83.9119   22.9076 C   0  0  0  0  0  0  0  0  0  0  0  0
   20.0495   83.0030   23.6175 C   0  0  0  0  0  0  0  0  0  0  0  0
 13 14  1  0  0  0
 14 15  2  0  0  0
 14 19  1  0  0  0
 15 16  1  0  0  0
 16 17  2  0  0  0
 17 18  1  0  0  0
 17  1  1  0  0  0
 18 19  2  0  0  0
  1  2  1  0  0  0
  1  9  1  0  0  0
  2  3  2  0  0  0
  2  4  1  0  0  0
  4  5  2  0  0  0
  4  8  1  0  0  0
  5  6  1  0  0  0
  5  9  1  0  0  0
  6  7  1  0  0  0
  7  8  1  0  0  0
  8 20  1  0  0  0
 20 21  1  0  0  0
 21 22  2  0  0  0
 21 23  1  0  0  0
 23 25  1  0  0  0
 25 26  2  0  0  0
 25 30  1  0  0  0
 26 27  1  0  0  0
 27 28  2  0  0  0
 28 29  1  0  0  0
 28 31  1  0  0  0
 29 30  2  0  0  0
 31 32  2  0  0  0
 31 33  1  0  0  0
 33 34  1  0  0  0
 34 35  1  0  0  0
  9 10  2  0  0  0
  6 11  1  0  0  0
  7 12  1  0  0  0
 23 24  1  0  0  0
M  END
> <minimizedAffinity>
-10.08453

$$$$
416


 33 36  0  0  0  0  0  0  0  0999 V2000
   20.0951   80.2329   18.6157 N   0  0  0  0  0  0  0  0  0  0  0  0
   20.4446   79.8943   17.3432 C   0  0  0  0  0  0  0  0  0  0  0  0
   20.6403   80.7304   16.4289 O   0  0  0  0  0  0  0  0  0  0  0  0
   20.5493   78.5267   17.2088 C   0  0  0  0  0  0  0  0  0  0  0  0
   20.2636   78.0231   18.4006 C   0  0  0  0  0  0  0  0  0  0  0  0
   20.3568   76.6847   18.2995 N   0  0  0  0  0  0  0  0  0  0  0  0
   20.6966   76.3903   17.0529 N   0  0  0  0  0  0  0  0  0  0  0  0
   20.8234   77.5022   16.3534 N   0  0  0  0  0  0  0  0  0  0  0  0
   19.9870   79.0622   19.2599 C   0  0  0  0  0  0  0  0  0  0  0  0
   19.6721   78.9687   20.4881 O   0  0  0  0  0  0  0  0  0  0  0  0
   20.2021   75.9795   19.0406 H   0  0  0  0  0  0  0  0  0  0  0  0
   20.8433   75.4056   16.6845 H   0  0  0  0  0  0  0  0  0  0  0  0
   19.1187   85.8139   21.0548 Br  0  0  0  0  0  0  0  0  0  0  0  0
   19.4302   84.0998   20.2758 C   0  0  0  0  0  0  0  0  0  0  0  0
   20.1028   83.9468   19.0817 C   0  0  0  0  0  0  0  0  0  0  0  0
   20.3234   82.6934   18.5310 C   0  0  0  0  0  0  0  0  0  0  0  0
   19.8845   81.5387   19.1453 C   0  0  0  0  0  0  0  0  0  0  0  0
   19.2087   81.6883   20.3429 C   0  0  0  0  0  0  0  0  0  0  0  0
   18.9883   82.9351   20.8912 C   0  0  0  0  0  0  0  0  0  0  0  0
   21.1649   77.6438   14.9682 C   0  0  0  0  0  0  0  0  0  0  0  0
   20.4363   76.6738   14.0682 C   0  0  0  0  0  0  0  0  0  0  0  0
   20.1683   77.0962   12.9226 O   0  0  0  0  0  0  0  0  0  0  0  0
   20.0922   75.3918   14.4923 N   0  0  0  0  0  0  0  0  0  0  0  0
   20.3747   75.1527   15.5067 H   0  0  0  0  0  0  0  0  0  0  0  0
   19.4314   74.3582   13.8069 C   0  0  0  0  0  0  0  0  0  0  0  0
   20.0507   73.1185   13.6469 C   0  0  0  0  0  0  0  0  0  0  0  0
   19.4512   72.0898   12.9712 C   0  0  0  0  0  0  0  0  0  0  0  0
   18.1828   72.2579   12.4137 C   0  0  0  0  0  0  0  0  0  0  0  0
   17.5994   73.4891   12.5893 C   0  0  0  0  0  0  0  0  0  0  0  0
   18.1961   74.5255   13.2687 C   0  0  0  0  0  0  0  0  0  0  0  0
   17.6192   71.1995   11.7395 O   0  0  0  0  0  0  0  0  0  0  0  0
   16.2899   70.7936   11.7858 C   0  0  0  0  0  0  0  0  0  0  0  0
   15.9115   69.8010   10.7406 C   0  0  0  0  0  0  0  0  0  0  0  0
 13 14  1  0  0  0
 14 15  2  0  0  0
 14 19  1  0  0  0
 15 16  1  0  0  0
 16 17  2  0  0  0
 17 18  1  0  0  0
 17  1  1  0  0  0
 18 19  2  0  0  0
  1  2  1  0  0  0
  1  9  1  0  0  0
  2  3  2  0  0  0
  2  4  1  0  0  0
  4  5  2  0  0  0
  4  8  1  0  0  0
  5  6  1  0  0  0
  5  9  1  0  0  0
  6  7  1  0  0  0
  7  8  1  0  0  0
  8 20  1  0  0  0
 20 21  1  0  0  0
 21 22  2  0  0  0
 21 23  1  0  0  0
 23 25  1  0  0  0
 25 26  2  0  0  0
 25 30  1  0  0  0
 26 27  1  0  0  0
 27 28  2  0  0  0
 28 29  1  0  0  0
 28 31  1  0  0  0
 29 30  2  0  0  0
 31 32  1  0  0  0
 32 33  1  0  0  0
  9 10  2  0  0  0
  6 11  1  0  0  0
  7 12  1  0  0  0
 23 24  1  0  0  0
M  END
> <minimizedAffinity>
-11.25349

$$$$
421


 28 31  0  0  0  0  0  0  0  0999 V2000
   20.1370   80.0298   18.2269 N   0  0  0  0  0  0  0  0  0  0  0  0
   20.6461   79.9116   16.9808 C   0  0  0  0  0  0  0  0  0  0  0  0
   21.0028   80.8484   16.1968 O   0  0  0  0  0  0  0  0  0  0  0  0
   20.7477   78.5818   16.6155 C   0  0  0  0  0  0  0  0  0  0  0  0
   20.2902   77.8977   17.6665 C   0  0  0  0  0  0  0  0  0  0  0  0
   20.3892   76.5938   17.3117 N   0  0  0  0  0  0  0  0  0  0  0  0
   20.8902   76.5273   16.0896 N   0  0  0  0  0  0  0  0  0  0  0  0
   21.1230   77.7459   15.6312 N   0  0  0  0  0  0  0  0  0  0  0  0
   19.9133   78.7771   18.6590 C   0  0  0  0  0  0  0  0  0  0  0  0
   19.4378   78.5122   19.7912 O   0  0  0  0  0  0  0  0  0  0  0  0
   20.1060   75.7876   17.9277 H   0  0  0  0  0  0  0  0  0  0  0  0
   21.0899   75.6599   15.5266 H   0  0  0  0  0  0  0  0  0  0  0  0
   19.1544   85.3783   21.1289 Br  0  0  0  0  0  0  0  0  0  0  0  0
   19.4481   83.7050   20.2459 C   0  0  0  0  0  0  0  0  0  0  0  0
   19.0152   82.5132   20.7899 C   0  0  0  0  0  0  0  0  0  0  0  0
   19.2364   81.3039   20.1366 C   0  0  0  0  0  0  0  0  0  0  0  0
   19.8941   81.2581   18.9252 C   0  0  0  0  0  0  0  0  0  0  0  0
   20.3213   82.4573   18.3934 C   0  0  0  0  0  0  0  0  0  0  0  0
   20.1070   83.6627   19.0348 C   0  0  0  0  0  0  0  0  0  0  0  0
   21.6634   78.0925   14.3502 C   0  0  0  0  0  0  0  0  0  0  0  0
   20.9133   77.9559   13.2003 C   0  0  0  0  0  0  0  0  0  0  0  0
   21.4092   78.2843   11.9449 C   0  0  0  0  0  0  0  0  0  0  0  0
   22.6943   78.7664   11.8153 C   0  0  0  0  0  0  0  0  0  0  0  0
   23.4461   78.9039   12.9624 C   0  0  0  0  0  0  0  0  0  0  0  0
   22.9480   78.5758   14.2137 C   0  0  0  0  0  0  0  0  0  0  0  0
   23.2312   79.1116   10.5412 N   0  0  0  0  0  0  0  0  0  0  0  0
   22.7590   80.0337    9.8502 O   0  0  0  0  0  0  0  0  0  0  0  0
   24.2931   78.4157   10.0574 O   0  0  0  0  0  0  0  0  0  0  0  0
 13 14  1  0  0  0
 14 15  2  0  0  0
 14 19  1  0  0  0
 15 16  1  0  0  0
 16 17  2  0  0  0
 17 18  1  0  0  0
 17  1  1  0  0  0
 18 19  2  0  0  0
  1  2  1  0  0  0
  1  9  1  0  0  0
  2  3  2  0  0  0
  2  4  1  0  0  0
  4  5  2  0  0  0
  4  8  1  0  0  0
  5  6  1  0  0  0
  5  9  1  0  0  0
  6  7  1  0  0  0
  7  8  1  0  0  0
  8 20  1  0  0  0
 20 21  2  0  0  0
 20 25  1  0  0  0
 21 22  1  0  0  0
 22 23  2  0  0  0
 23 24  1  0  0  0
 23 26  1  0  0  0
 24 25  2  0  0  0
 26 27  2  0  0  0
 26 28  1  0  0  0
  9 10  2  0  0  0
  6 11  1  0  0  0
  7 12  1  0  0  0
M  CHG 1  28  -1
M  END
> <minimizedAffinity>
-10.08869

$$$$
425


 24 28  0  0  0  0  0  0  0  0999 V2000
   20.7024   79.4680   17.0701 N   0  0  0  0  0  0  0  0  0  0  0  0
   20.7043   80.8826   17.1816 C   0  0  0  0  0  0  0  0  0  0  0  0
   21.5454   81.6317   16.6290 O   0  0  0  0  0  0  0  0  0  0  0  0
   19.5667   81.3041   18.0425 C   0  0  0  0  0  0  0  0  0  0  0  0
   19.9741   81.4797   19.4728 C   0  0  0  0  0  0  0  0  0  0  0  0
   18.7742   81.1203   20.1259 O   0  0  0  0  0  0  0  0  0  0  0  0
   18.6910   79.8006   19.6148 C   0  0  0  0  0  0  0  0  0  0  0  0
   18.6812   80.0617   18.1480 C   0  0  0  0  0  0  0  0  0  0  0  0
   19.4082   78.9831   17.4262 C   0  0  0  0  0  0  0  0  0  0  0  0
   18.9487   77.8633   17.1864 O   0  0  0  0  0  0  0  0  0  0  0  0
   20.0402   79.3081   19.9968 C   0  0  0  0  0  0  0  0  0  0  0  0
   20.8466   80.3539   19.8421 C   0  0  0  0  0  0  0  0  0  0  0  0
   25.5892   76.2937   15.2908 Br  0  0  0  0  0  0  0  0  0  0  0  0
   24.0709   77.2813   15.8544 C   0  0  0  0  0  0  0  0  0  0  0  0
   23.9719   77.6813   17.1650 C   0  0  0  0  0  0  0  0  0  0  0  0
   22.8591   78.3982   17.5462 C   0  0  0  0  0  0  0  0  0  0  0  0
   21.8541   78.7194   16.6609 C   0  0  0  0  0  0  0  0  0  0  0  0
   21.9532   78.3165   15.3361 C   0  0  0  0  0  0  0  0  0  0  0  0
   23.0832   77.5909   14.9533 C   0  0  0  0  0  0  0  0  0  0  0  0
   20.4456   82.8210   19.8389 C   0  0  0  0  0  0  0  0  0  0  0  0
   20.4011   83.0804   21.1814 O   0  0  0  0  0  0  0  0  0  0  0  0
   19.4223   84.0126   21.4188 C   0  0  0  0  0  0  0  0  0  0  0  0
   18.8296   84.3507   20.0905 C   0  0  0  0  0  0  0  0  0  0  0  0
   19.7372   83.8129   19.1850 O   0  0  0  0  0  0  0  0  0  0  0  0
 13 14  1  0  0  0
 14 15  2  0  0  0
 14 19  1  0  0  0
 15 16  1  0  0  0
 16 17  2  0  0  0
 17 18  1  0  0  0
 17  1  1  0  0  0
 18 19  2  0  0  0
  1  2  1  0  0  0
  1  9  1  0  0  0
  2  3  2  0  0  0
  2  4  1  0  0  0
  4  5  1  0  0  0
  4  8  1  0  0  0
  5  6  1  0  0  0
  5 12  1  0  0  0
  5 20  1  0  0  0
  6  7  1  0  0  0
  7  8  1  0  0  0
  7 11  1  0  0  0
  8  9  1  0  0  0
  9 10  2  0  0  0
 11 12  2  0  0  0
 20 21  1  0  0  0
 20 24  1  0  0  0
 21 22  1  0  0  0
 22 23  1  0  0  0
 23 24  1  0  0  0
M  END
> <minimizedAffinity>
-9.76248

$$$$
426


 29 32  0  0  0  0  0  0  0  0999 V2000
   20.2575   80.3895   18.5476 N   0  0  0  0  0  0  0  0  0  0  0  0
   19.9499   79.0873   19.0817 C   0  0  0  0  0  0  0  0  0  0  0  0
   19.0389   78.8188   19.9154 O   0  0  0  0  0  0  0  0  0  0  0  0
   20.9026   78.1354   18.4661 C   0  0  0  0  0  0  0  0  0  0  0  0
   20.3585   76.8133   18.2260 N   0  0  0  0  0  0  0  0  0  0  0  0
   21.0279   76.5246   16.9965 N   0  0  0  0  0  0  0  0  0  0  0  0
   21.0309   77.7050   16.1933 C   0  0  0  0  0  0  0  0  0  0  0  0
   20.9543   78.7034   17.0660 C   0  0  0  0  0  0  0  0  0  0  0  0
   20.8869   80.1431   17.2845 C   0  0  0  0  0  0  0  0  0  0  0  0
   21.3379   80.9618   16.4362 O   0  0  0  0  0  0  0  0  0  0  0  0
   19.3507   76.9781   17.9463 H   0  0  0  0  0  0  0  0  0  0  0  0
   21.4443   75.6138   16.7224 H   0  0  0  0  0  0  0  0  0  0  0  0
   19.0610   85.7854   21.2208 Br  0  0  0  0  0  0  0  0  0  0  0  0
   19.4442   84.1024   20.3627 C   0  0  0  0  0  0  0  0  0  0  0  0
   19.1472   82.9298   21.0091 C   0  0  0  0  0  0  0  0  0  0  0  0
   19.4250   81.7540   20.3895 C   0  0  0  0  0  0  0  0  0  0  0  0
   20.0031   81.6565   19.1179 C   0  0  0  0  0  0  0  0  0  0  0  0
   20.2897   82.8404   18.4937 C   0  0  0  0  0  0  0  0  0  0  0  0
   20.0154   84.0490   19.1059 C   0  0  0  0  0  0  0  0  0  0  0  0
   21.1074   77.8096   14.7403 C   0  0  0  0  0  0  0  0  0  0  0  0
   20.6117   76.9376   13.9889 O   0  0  0  0  0  0  0  0  0  0  0  0
   21.7309   78.8755   14.1086 O   0  0  0  0  0  0  0  0  0  0  0  0
   23.0435   78.7641   13.5761 C   0  0  0  0  0  0  0  0  0  0  0  0
   24.0211   78.5893   14.7018 C   0  0  0  0  0  0  0  0  0  0  0  0
   24.2559   79.6302   15.5986 C   0  0  0  0  0  0  0  0  0  0  0  0
   25.1348   79.5108   16.6410 C   0  0  0  0  0  0  0  0  0  0  0  0
   25.8192   78.3104   16.8116 C   0  0  0  0  0  0  0  0  0  0  0  0
   25.5847   77.2846   15.9227 C   0  0  0  0  0  0  0  0  0  0  0  0
   24.6843   77.4169   14.8631 C   0  0  0  0  0  0  0  0  0  0  0  0
 13 14  1  0  0  0
 14 15  2  0  0  0
 14 19  1  0  0  0
 15 16  1  0  0  0
 16 17  2  0  0  0
 17 18  1  0  0  0
 17  1  1  0  0  0
 18 19  2  0  0  0
  1  2  1  0  0  0
  1  9  1  0  0  0
  2  3  2  0  0  0
  2  4  1  0  0  0
  4  5  1  0  0  0
  4  8  1  0  0  0
  5  6  1  0  0  0
  6  7  1  0  0  0
  7  8  2  0  0  0
  7 20  1  0  0  0
  8  9  1  0  0  0
  9 10  2  0  0  0
 20 21  2  0  0  0
 20 22  1  0  0  0
 22 23  1  0  0  0
 23 24  1  0  0  0
 24 25  2  0  0  0
 24 29  1  0  0  0
 25 26  1  0  0  0
 26 27  2  0  0  0
 27 28  1  0  0  0
 28 29  2  0  0  0
  5 11  1  0  0  0
  6 12  1  0  0  0
M  END
> <minimizedAffinity>
-10.57285

$$$$
428


 28 31  0  0  0  0  0  0  0  0999 V2000
   20.3946   77.2721   12.6212 N   0  0  0  0  0  0  0  0  0  0  0  0
   20.4081   78.1295   11.4647 C   0  0  0  0  0  0  0  0  0  0  0  0
   19.6893   77.8404   10.4685 O   0  0  0  0  0  0  0  0  0  0  0  0
   21.2410   79.2654   11.5164 N   0  0  0  0  0  0  0  0  0  0  0  0
   21.9704   79.5759   12.5062 C   0  0  0  0  0  0  0  0  0  0  0  0
   22.0861   78.8180   13.7766 C   0  0  0  0  0  0  0  0  0  0  0  0
   23.5255   78.5087   14.0045 C   0  0  0  0  0  0  0  0  0  0  0  0
   23.9502   78.3646   15.3495 N   0  0  0  0  0  0  0  0  0  0  0  0
   22.9266   78.2849   16.3152 C   0  0  0  0  0  0  0  0  0  0  0  0
   21.7262   78.9834   16.1357 C   0  0  0  0  0  0  0  0  0  0  0  0
   20.7453   78.8938   17.0829 C   0  0  0  0  0  0  0  0  0  0  0  0
   20.8594   78.1439   18.2313 C   0  0  0  0  0  0  0  0  0  0  0  0
   22.0430   77.4574   18.4033 C   0  0  0  0  0  0  0  0  0  0  0  0
   23.0587   77.5287   17.4592 C   0  0  0  0  0  0  0  0  0  0  0  0
   19.7722   78.0699   19.2353 C   0  0  0  0  0  0  0  0  0  0  0  0
   21.6441   79.7794   14.8836 C   0  0  0  0  0  0  0  0  0  0  0  0
   24.9404   79.3843   15.7348 C   0  0  0  0  0  0  0  0  0  0  0  0
   21.2156   77.6238   13.7299 C   0  0  0  0  0  0  0  0  0  0  0  0
   21.1585   76.8222   14.7202 O   0  0  0  0  0  0  0  0  0  0  0  0
   22.7566   80.7451   12.4225 O   0  0  0  0  0  0  0  0  0  0  0  0
   24.4902   77.4504   15.4167 H   0  0  0  0  0  0  0  0  0  0  0  0
   16.9090   72.2543   12.4168 Br  0  0  0  0  0  0  0  0  0  0  0  0
   17.9916   73.8209   12.5245 C   0  0  0  0  0  0  0  0  0  0  0  0
   18.5233   74.3436   11.3763 C   0  0  0  0  0  0  0  0  0  0  0  0
   19.3131   75.4847   11.4475 C   0  0  0  0  0  0  0  0  0  0  0  0
   19.5792   76.1100   12.6447 C   0  0  0  0  0  0  0  0  0  0  0  0
   19.0344   75.5673   13.7874 C   0  0  0  0  0  0  0  0  0  0  0  0
   18.2437   74.4309   13.7428 C   0  0  0  0  0  0  0  0  0  0  0  0
 22 23  1  0  0  0
 23 24  2  0  0  0
 23 28  1  0  0  0
 24 25  1  0  0  0
 25 26  2  0  0  0
 26 27  1  0  0  0
 26  1  1  0  0  0
 27 28  2  0  0  0
  1  2  1  0  0  0
  1 18  1  0  0  0
  2  3  2  0  0  0
  2  4  1  0  0  0
  4  5  2  0  0  0
  5  6  1  0  0  0
  5 20  1  0  0  0
  6  7  1  0  0  0
  6 16  1  0  0  0
  6 18  1  0  0  0
  7  8  1  0  0  0
  8  9  1  0  0  0
  8 17  1  0  0  0
  9 10  2  0  0  0
  9 14  1  0  0  0
 10 11  1  0  0  0
 10 16  1  0  0  0
 11 12  2  0  0  0
 12 13  1  0  0  0
 12 15  1  0  0  0
 13 14  2  0  0  0
 18 19  2  0  0  0
  8 21  1  0  0  0
M  CHG 1   8   1
M  CHG 1  20  -1
M  END
> <minimizedAffinity>
-10.46102

$$$$
429


 36 39  0  0  0  0  0  0  0  0999 V2000
   18.9568   76.3130    7.8120 N   0  0  0  0  0  0  0  0  0  0  0  0
   19.4609   75.0467    7.3833 C   0  0  0  0  0  0  0  0  0  0  0  0
   20.5171   74.6151    7.9465 O   0  0  0  0  0  0  0  0  0  0  0  0
   18.7845   74.3285    6.3671 N   0  0  0  0  0  0  0  0  0  0  0  0
   17.6019   74.7921    5.7230 C   0  0  0  0  0  0  0  0  0  0  0  0
   17.0202   74.1286    4.8198 O   0  0  0  0  0  0  0  0  0  0  0  0
   17.0534   76.0947    6.1410 C   0  0  0  0  0  0  0  0  0  0  0  0
   15.9575   76.5808    5.5789 C   0  0  0  0  0  0  0  0  0  0  0  0
   17.7727   76.8091    7.1894 C   0  0  0  0  0  0  0  0  0  0  0  0
   17.3425   77.9251    7.5790 O   0  0  0  0  0  0  0  0  0  0  0  0
   19.1864   73.4051    6.0828 H   0  0  0  0  0  0  0  0  0  0  0  0
   21.9586   79.4833   12.1098 Br  0  0  0  0  0  0  0  0  0  0  0  0
   21.0136   78.4862   10.7766 C   0  0  0  0  0  0  0  0  0  0  0  0
   21.2859   78.6667    9.4310 C   0  0  0  0  0  0  0  0  0  0  0  0
   20.5994   77.9421    8.4758 C   0  0  0  0  0  0  0  0  0  0  0  0
   19.6273   77.0224    8.8148 C   0  0  0  0  0  0  0  0  0  0  0  0
   19.3443   76.8311   10.1507 C   0  0  0  0  0  0  0  0  0  0  0  0
   20.0403   77.5630   11.0915 C   0  0  0  0  0  0  0  0  0  0  0  0
   15.4535   77.8394    6.0030 N   0  0  0  0  0  0  0  0  0  0  0  0
   16.0171   78.6784    5.6971 H   0  0  0  0  0  0  0  0  0  0  0  0
   14.3128   78.0296    6.7656 N   0  0  0  0  0  0  0  0  0  0  0  0
   14.0469   77.2078    7.3829 H   0  0  0  0  0  0  0  0  0  0  0  0
   13.5226   79.2124    6.7568 C   0  0  0  0  0  0  0  0  0  0  0  0
   13.8654   80.3718    7.3275 N   0  0  0  0  0  0  0  0  0  0  0  0
   12.8928   81.2761    7.1259 C   0  0  0  0  0  0  0  0  0  0  0  0
   11.8940   80.6490    6.3933 C   0  0  0  0  0  0  0  0  0  0  0  0
   12.3269   79.4045    6.1984 N   0  0  0  0  0  0  0  0  0  0  0  0
   10.7732   81.2972    6.0289 N   0  0  0  0  0  0  0  0  0  0  0  0
   10.6228   82.5736    6.3830 C   0  0  0  0  0  0  0  0  0  0  0  0
    9.5805   83.2214    6.0589 O   0  0  0  0  0  0  0  0  0  0  0  0
   11.5613   83.2483    7.0999 N   0  0  0  0  0  0  0  0  0  0  0  0
   12.6853   82.5868    7.4621 C   0  0  0  0  0  0  0  0  0  0  0  0
   13.5486   83.2022    8.1210 O   0  0  0  0  0  0  0  0  0  0  0  0
   11.3527   84.6285    7.4565 C   0  0  0  0  0  0  0  0  0  0  0  0
    9.7860   80.5834    5.2742 C   0  0  0  0  0  0  0  0  0  0  0  0
   15.0810   80.7123    8.0754 C   0  0  0  0  0  0  0  0  0  0  0  0
 12 13  1  0  0  0
 13 14  2  0  0  0
 13 18  1  0  0  0
 14 15  1  0  0  0
 15 16  2  0  0  0
 16 17  1  0  0  0
 16  1  1  0  0  0
 17 18  2  0  0  0
  1  2  1  0  0  0
  1  9  1  0  0  0
  2  3  2  0  0  0
  2  4  1  0  0  0
  4  5  1  0  0  0
  5  6  2  0  0  0
  5  7  1  0  0  0
  7  8  2  0  0  0
  7  9  1  0  0  0
  8 19  1  0  0  0
 19 21  1  0  0  0
 21 23  1  0  0  0
 23 24  1  0  0  0
 23 27  2  0  0  0
 24 25  1  0  0  0
 24 36  1  0  0  0
 25 26  2  0  0  0
 25 32  1  0  0  0
 26 27  1  0  0  0
 26 28  1  0  0  0
 28 29  1  0  0  0
 28 35  1  0  0  0
 29 30  2  0  0  0
 29 31  1  0  0  0
 31 32  1  0  0  0
 31 34  1  0  0  0
 32 33  2  0  0  0
  9 10  2  0  0  0
  4 11  1  0  0  0
 19 20  1  0  0  0
 21 22  1  0  0  0
M  END
> <minimizedAffinity>
-9.70463

$$$$
436


 29 32  0  0  0  0  0  0  0  0999 V2000
   20.3721   78.4352    9.7855 N   0  0  0  0  0  0  0  0  0  0  0  0
   20.6769   79.7573    9.2761 C   0  0  0  0  0  0  0  0  0  0  0  0
   21.3136   80.6560   10.3104 C   0  0  0  0  0  0  0  0  0  0  0  0
   22.3823   79.8182   11.0293 C   0  0  0  0  0  0  0  0  0  0  0  0
   21.6414   78.8645   11.8130 N   0  0  0  0  0  0  0  0  0  0  0  0
   20.6453   78.1923   11.1599 C   0  0  0  0  0  0  0  0  0  0  0  0
   20.0598   77.3518   12.0287 N   0  0  0  0  0  0  0  0  0  0  0  0
   20.7018   77.5116   13.2132 C   0  0  0  0  0  0  0  0  0  0  0  0
   21.7016   78.4635   13.0863 C   0  0  0  0  0  0  0  0  0  0  0  0
   22.4955   78.8001   14.1649 C   0  0  0  0  0  0  0  0  0  0  0  0
   23.4054   79.6814   14.0062 O   0  0  0  0  0  0  0  0  0  0  0  0
   22.2922   78.1934   15.3478 N   0  0  0  0  0  0  0  0  0  0  0  0
   21.3162   77.2739   15.4433 C   0  0  0  0  0  0  0  0  0  0  0  0
   21.1598   76.7299   16.5699 O   0  0  0  0  0  0  0  0  0  0  0  0
   20.5378   76.9336   14.4163 N   0  0  0  0  0  0  0  0  0  0  0  0
   19.4897   75.9335   14.5558 C   0  0  0  0  0  0  0  0  0  0  0  0
   17.8049   74.5245    5.8847 Br  0  0  0  0  0  0  0  0  0  0  0  0
   18.6348   75.6902    7.1129 C   0  0  0  0  0  0  0  0  0  0  0  0
   19.6225   75.2673    7.9776 C   0  0  0  0  0  0  0  0  0  0  0  0
   20.2218   76.1498    8.8779 C   0  0  0  0  0  0  0  0  0  0  0  0
   19.8277   77.4679    8.9108 C   0  0  0  0  0  0  0  0  0  0  0  0
   18.8400   77.8538    8.0340 C   0  0  0  0  0  0  0  0  0  0  0  0
   18.2349   77.0112    7.1410 C   0  0  0  0  0  0  0  0  0  0  0  0
   23.1228   78.5397   16.4882 C   0  0  0  0  0  0  0  0  0  0  0  0
   24.4635   77.8891   16.3168 C   0  0  0  0  0  0  0  0  0  0  0  0
   24.5778   76.6422   16.3686 O   0  0  0  0  0  0  0  0  0  0  0  0
   25.6299   78.6554   16.0930 N   0  0  0  0  0  0  0  0  0  0  0  0
   26.4013   78.3391   15.4627 H   0  0  0  0  0  0  0  0  0  0  0  0
   25.7689   79.5866   16.5579 H   0  0  0  0  0  0  0  0  0  0  0  0
 17 18  1  0  0  0
 18 19  2  0  0  0
 18 23  1  0  0  0
 19 20  1  0  0  0
 20 21  2  0  0  0
 21 22  1  0  0  0
 21  1  1  0  0  0
 22 23  2  0  0  0
  1  2  1  0  0  0
  1  6  1  0  0  0
  2  3  1  0  0  0
  3  4  1  0  0  0
  4  5  1  0  0  0
  5  6  1  0  0  0
  5  9  1  0  0  0
  6  7  2  0  0  0
  7  8  1  0  0  0
  8  9  2  0  0  0
  8 15  1  0  0  0
  9 10  1  0  0  0
 10 11  2  0  0  0
 10 12  1  0  0  0
 12 13  1  0  0  0
 12 24  1  0  0  0
 13 14  2  0  0  0
 13 15  1  0  0  0
 15 16  1  0  0  0
 24 25  1  0  0  0
 25 26  2  0  0  0
 25 27  1  0  0  0
 27 28  1  0  0  0
 27 29  1  0  0  0
M  END
> <minimizedAffinity>
-9.56552

$$$$
439


 28 32  0  0  0  0  0  0  0  0999 V2000
   19.2358   75.5531   12.2692 N   0  0  0  0  0  0  0  0  0  0  0  0
   19.4342   76.5165   11.3759 N   0  0  0  0  0  0  0  0  0  0  0  0
   20.2052   77.4893   11.8962 C   0  0  0  0  0  0  0  0  0  0  0  0
   20.5979   78.5959   11.2781 C   0  0  0  0  0  0  0  0  0  0  0  0
   20.5287   77.1461   13.1929 C   0  0  0  0  0  0  0  0  0  0  0  0
   21.2723   77.8214   14.0735 C   0  0  0  0  0  0  0  0  0  0  0  0
   19.8991   75.9254   13.3840 C   0  0  0  0  0  0  0  0  0  0  0  0
   19.9502   75.2736   14.4522 O   0  0  0  0  0  0  0  0  0  0  0  0
   19.0475   76.5186   10.4112 H   0  0  0  0  0  0  0  0  0  0  0  0
   15.9932   70.3861   11.5246 Br  0  0  0  0  0  0  0  0  0  0  0  0
   17.0181   72.0000   11.7337 C   0  0  0  0  0  0  0  0  0  0  0  0
   17.8422   72.4601   10.7507 C   0  0  0  0  0  0  0  0  0  0  0  0
   18.5681   73.6334   10.9398 C   0  0  0  0  0  0  0  0  0  0  0  0
   18.4798   74.3582   12.1101 C   0  0  0  0  0  0  0  0  0  0  0  0
   17.6373   73.8626   13.0817 C   0  0  0  0  0  0  0  0  0  0  0  0
   16.9089   72.7064   12.9203 C   0  0  0  0  0  0  0  0  0  0  0  0
   21.4598   77.2501   15.3629 N   0  0  0  0  0  0  0  0  0  0  0  0
   21.9727   76.3585   15.4253 H   0  0  0  0  0  0  0  0  0  0  0  0
   20.9618   77.8734   16.5550 C   0  0  0  0  0  0  0  0  0  0  0  0
   21.8299   77.5475   17.7284 C   0  0  0  0  0  0  0  0  0  0  0  0
   21.3482   78.2757   18.8938 N   0  0  0  0  0  0  0  0  0  0  0  0
   21.4204   79.6991   18.5878 C   0  0  0  0  0  0  0  0  0  0  0  0
   20.5400   80.0578   17.5028 N   0  0  0  0  0  0  0  0  0  0  0  0
   19.1836   79.6136   17.8082 C   0  0  0  0  0  0  0  0  0  0  0  0
   19.1296   78.1909   18.0580 N   0  0  0  0  0  0  0  0  0  0  0  0
   19.9923   77.8762   19.1729 C   0  0  0  0  0  0  0  0  0  0  0  0
   19.5472   77.4590   16.8863 C   0  0  0  0  0  0  0  0  0  0  0  0
   20.9606   79.3843   16.3020 C   0  0  0  0  0  0  0  0  0  0  0  0
 10 11  1  0  0  0
 11 12  2  0  0  0
 11 16  1  0  0  0
 12 13  1  0  0  0
 13 14  2  0  0  0
 14 15  1  0  0  0
 14  1  1  0  0  0
 15 16  2  0  0  0
  1  2  1  0  0  0
  1  7  1  0  0  0
  2  3  1  0  0  0
  3  4  2  0  0  0
  3  5  1  0  0  0
  5  6  2  0  0  0
  5  7  1  0  0  0
  6 17  1  0  0  0
 17 19  1  0  0  0
 19 20  1  0  0  0
 19 27  1  0  0  0
 19 28  1  0  0  0
 20 21  1  0  0  0
 21 22  1  0  0  0
 21 26  1  0  0  0
 22 23  1  0  0  0
 23 24  1  0  0  0
 23 28  1  0  0  0
 24 25  1  0  0  0
 25 26  1  0  0  0
 25 27  1  0  0  0
  7  8  2  0  0  0
  2  9  1  0  0  0
 17 18  1  0  0  0
M  END
> <minimizedAffinity>
-9.41500

$$$$
441


 36 39  0  0  0  0  0  0  0  0999 V2000
   20.1279   76.1629   14.2303 C   0  0  0  0  0  0  0  0  0  0  0  0
   20.0505   76.8278   13.0627 N   0  0  0  0  0  0  0  0  0  0  0  0
   19.5713   76.2159   11.9921 C   0  0  0  0  0  0  0  0  0  0  0  0
   19.3989   76.6580   10.7395 N   0  0  0  0  0  0  0  0  0  0  0  0
   18.8755   75.6164   10.0535 C   0  0  0  0  0  0  0  0  0  0  0  0
   18.7285   74.5612   10.8601 N   0  0  0  0  0  0  0  0  0  0  0  0
   19.1489   74.8842   12.0847 C   0  0  0  0  0  0  0  0  0  0  0  0
   19.2254   74.1951   13.2806 C   0  0  0  0  0  0  0  0  0  0  0  0
   19.7169   74.8641   14.3271 N   0  0  0  0  0  0  0  0  0  0  0  0
   18.7932   72.8773   13.3151 O   0  0  0  0  0  0  0  0  0  0  0  0
   17.9235   72.6821   12.8067 H   0  0  0  0  0  0  0  0  0  0  0  0
   19.6665   77.9128   10.1484 C   0  0  0  0  0  0  0  0  0  0  0  0
   20.9007   77.9258    9.4853 O   0  0  0  0  0  0  0  0  0  0  0  0
   21.7426   78.5232   10.4197 C   0  0  0  0  0  0  0  0  0  0  0  0
   20.9333   79.7662   10.7582 C   0  0  0  0  0  0  0  0  0  0  0  0
   19.5786   79.1058   11.0027 C   0  0  0  0  0  0  0  0  0  0  0  0
   18.5410   79.9751   10.5977 O   0  0  0  0  0  0  0  0  0  0  0  0
   21.4080   80.4521   11.8407 O   0  0  0  0  0  0  0  0  0  0  0  0
   18.4785   80.6592   11.3105 H   0  0  0  0  0  0  0  0  0  0  0  0
   22.4051   80.3535   11.9688 H   0  0  0  0  0  0  0  0  0  0  0  0
   23.0889   78.8615    9.8482 C   0  0  0  0  0  0  0  0  0  0  0  0
   23.1692   80.1243    9.3273 O   0  0  0  0  0  0  0  0  0  0  0  0
   23.4656   80.7428   10.0448 H   0  0  0  0  0  0  0  0  0  0  0  0
   19.8325   77.1129   16.5112 C   0  0  0  0  0  0  0  0  0  0  0  0
   18.6146   76.8615   16.4933 O   0  0  0  0  0  0  0  0  0  0  0  0
   20.6423   76.7868   15.4046 N   0  0  0  0  0  0  0  0  0  0  0  0
   21.6809   77.0012   15.4192 H   0  0  0  0  0  0  0  0  0  0  0  0
   20.4350   77.7568   17.6929 C   0  0  0  0  0  0  0  0  0  0  0  0
   19.4991   78.4051   18.5048 O   0  0  0  0  0  0  0  0  0  0  0  0
   19.9640   84.3962   19.4611 Br  0  0  0  0  0  0  0  0  0  0  0  0
   19.8217   82.5065   19.1522 C   0  0  0  0  0  0  0  0  0  0  0  0
   19.1837   81.7101   20.0775 C   0  0  0  0  0  0  0  0  0  0  0  0
   19.0808   80.3347   19.8519 C   0  0  0  0  0  0  0  0  0  0  0  0
   19.6063   79.7618   18.7182 C   0  0  0  0  0  0  0  0  0  0  0  0
   20.2377   80.5727   17.8078 C   0  0  0  0  0  0  0  0  0  0  0  0
   20.3475   81.9279   18.0157 C   0  0  0  0  0  0  0  0  0  0  0  0
 30 31  1  0  0  0
 31 32  2  0  0  0
 31 36  1  0  0  0
 32 33  1  0  0  0
 33 34  2  0  0  0
 34 35  1  0  0  0
 34 29  1  0  0  0
 35 36  2  0  0  0
 29 28  1  0  0  0
 28 24  1  0  0  0
 24 25  2  0  0  0
 24 26  1  0  0  0
 26  1  1  0  0  0
  1  2  2  0  0  0
  1  9  1  0  0  0
  2  3  1  0  0  0
  3  4  1  0  0  0
  3  7  2  0  0  0
  4  5  1  0  0  0
  4 12  1  0  0  0
  5  6  2  0  0  0
  6  7  1  0  0  0
  7  8  1  0  0  0
  8  9  2  0  0  0
  8 10  1  0  0  0
 12 13  1  0  0  0
 12 16  1  0  0  0
 13 14  1  0  0  0
 14 15  1  0  0  0
 14 21  1  0  0  0
 15 16  1  0  0  0
 15 18  1  0  0  0
 16 17  1  0  0  0
 21 22  1  0  0  0
 26 27  1  0  0  0
 10 11  1  0  0  0
 17 19  1  0  0  0
 18 20  1  0  0  0
 22 23  1  0  0  0
M  END
> <minimizedAffinity>
-10.29092

$$$$
444


 33 36  0  0  0  0  0  0  0  0999 V2000
   21.9813   78.1721   14.1931 N   0  0  0  0  0  0  0  0  0  0  0  0
   22.7404   78.0605   15.3075 C   0  0  0  0  0  0  0  0  0  0  0  0
   23.9840   78.5855   15.0396 C   0  0  0  0  0  0  0  0  0  0  0  0
   23.9298   78.9864   13.7864 N   0  0  0  0  0  0  0  0  0  0  0  0
   22.7056   78.7468   13.2201 C   0  0  0  0  0  0  0  0  0  0  0  0
   25.0030   78.6342   15.9465 N   0  0  0  0  0  0  0  0  0  0  0  0
   24.7659   78.1391   17.1623 C   0  0  0  0  0  0  0  0  0  0  0  0
   25.6953   78.1768   18.0132 O   0  0  0  0  0  0  0  0  0  0  0  0
   23.5653   77.6201   17.4518 N   0  0  0  0  0  0  0  0  0  0  0  0
   22.5365   77.5582   16.5744 C   0  0  0  0  0  0  0  0  0  0  0  0
   21.4359   77.0707   16.8703 O   0  0  0  0  0  0  0  0  0  0  0  0
   26.2889   79.2217   15.5686 C   0  0  0  0  0  0  0  0  0  0  0  0
   23.4182   77.2433   18.4111 H   0  0  0  0  0  0  0  0  0  0  0  0
   22.3970   79.0223   11.8401 N   0  0  0  0  0  0  0  0  0  0  0  0
   21.1847   79.8519   11.6626 C   0  0  0  0  0  0  0  0  0  0  0  0
   21.0091   80.4026   10.3057 C   0  0  0  0  0  0  0  0  0  0  0  0
   21.4725   79.5218    9.2630 N   0  0  0  0  0  0  0  0  0  0  0  0
   22.8803   79.3799    9.4610 C   0  0  0  0  0  0  0  0  0  0  0  0
   23.1921   78.6042   10.7404 C   0  0  0  0  0  0  0  0  0  0  0  0
   20.7351   78.3031    9.2025 C   0  0  0  0  0  0  0  0  0  0  0  0
   20.5905   77.7929   14.0704 C   0  0  0  0  0  0  0  0  0  0  0  0
   20.3379   76.4608   13.4266 C   0  0  0  0  0  0  0  0  0  0  0  0
   19.4891   76.5630   12.3154 O   0  0  0  0  0  0  0  0  0  0  0  0
   19.6543   75.7721   11.7075 H   0  0  0  0  0  0  0  0  0  0  0  0
   19.7980   75.3775   14.3055 C   0  0  0  0  0  0  0  0  0  0  0  0
   19.5826   74.2204   13.7160 O   0  0  0  0  0  0  0  0  0  0  0  0
   16.1190   69.9221   11.3855 Br  0  0  0  0  0  0  0  0  0  0  0  0
   17.2212   71.2814   12.1248 C   0  0  0  0  0  0  0  0  0  0  0  0
   18.5539   71.0275   12.3068 C   0  0  0  0  0  0  0  0  0  0  0  0
   19.3570   72.0105   12.8428 C   0  0  0  0  0  0  0  0  0  0  0  0
   18.8661   73.2488   13.2048 C   0  0  0  0  0  0  0  0  0  0  0  0
   17.4861   73.4793   13.0057 C   0  0  0  0  0  0  0  0  0  0  0  0
   16.7005   72.5097   12.4782 C   0  0  0  0  0  0  0  0  0  0  0  0
 27 28  1  0  0  0
 28 29  2  0  0  0
 28 33  1  0  0  0
 29 30  1  0  0  0
 30 31  2  0  0  0
 31 32  1  0  0  0
 31 26  1  0  0  0
 32 33  2  0  0  0
 26 25  1  0  0  0
 25 22  1  0  0  0
 22 23  1  0  0  0
 22 21  1  0  0  0
 21  1  1  0  0  0
  1  2  1  0  0  0
  1  5  1  0  0  0
  2  3  2  0  0  0
  2 10  1  0  0  0
  3  4  1  0  0  0
  3  6  1  0  0  0
  4  5  2  0  0  0
  5 14  1  0  0  0
 14 15  1  0  0  0
 14 19  1  0  0  0
 15 16  1  0  0  0
 16 17  1  0  0  0
 17 18  1  0  0  0
 17 20  1  0  0  0
 18 19  1  0  0  0
  6  7  1  0  0  0
  6 12  1  0  0  0
  7  8  2  0  0  0
  7  9  1  0  0  0
  9 10  1  0  0  0
 10 11  2  0  0  0
 23 24  1  0  0  0
  9 13  1  0  0  0
M  END
> <minimizedAffinity>
-9.50790

$$$$
454


 21 25  0  0  0  0  0  0  0  0999 V2000
   20.7691   79.7698   16.7874 C   0  0  0  0  0  0  0  0  0  0  0  0
   19.7775   77.9141   19.1302 Br  0  0  0  0  0  0  0  0  0  0  0  0
   19.8582   79.8245   19.0642 C   0  0  0  0  0  0  0  0  0  0  0  0
   19.3717   80.5800   20.1149 C   0  0  0  0  0  0  0  0  0  0  0  0
   19.4174   81.9590   20.0795 C   0  0  0  0  0  0  0  0  0  0  0  0
   19.9253   82.6863   19.0292 C   0  0  0  0  0  0  0  0  0  0  0  0
   20.4036   81.9328   17.9924 C   0  0  0  0  0  0  0  0  0  0  0  0
   20.3858   80.5363   17.9735 C   0  0  0  0  0  0  0  0  0  0  0  0
   19.7654   84.0126   19.3967 O   0  0  0  0  0  0  0  0  0  0  0  0
   18.6272   84.0858   20.2997 C   0  0  0  0  0  0  0  0  0  0  0  0
   18.9627   82.8887   21.0642 O   0  0  0  0  0  0  0  0  0  0  0  0
   22.0481   79.2011   16.6929 N   0  0  0  0  0  0  0  0  0  0  0  0
   22.6959   80.1304   15.6986 C   0  0  0  0  0  0  0  0  0  0  0  0
   23.9011   79.6625   15.1579 N   0  0  0  0  0  0  0  0  0  0  0  0
   23.6312   78.3698   14.5529 C   0  0  0  0  0  0  0  0  0  0  0  0
   23.2565   77.4708   15.6163 N   0  0  0  0  0  0  0  0  0  0  0  0
   21.9974   77.8320   16.1831 C   0  0  0  0  0  0  0  0  0  0  0  0
   24.2446   77.3949   16.6986 C   0  0  0  0  0  0  0  0  0  0  0  0
   24.3165   78.7165   17.3002 N   0  0  0  0  0  0  0  0  0  0  0  0
   22.9894   79.1695   17.7686 C   0  0  0  0  0  0  0  0  0  0  0  0
   24.8468   79.5857   16.2773 C   0  0  0  0  0  0  0  0  0  0  0  0
  2  3  1  0  0  0
  3  4  2  0  0  0
  3  8  1  0  0  0
  4  5  1  0  0  0
  5  6  2  0  0  0
  5 11  1  0  0  0
  6  7  1  0  0  0
  6  9  1  0  0  0
  7  8  2  0  0  0
  8  1  1  0  0  0
  1 12  1  0  0  0
 12 13  1  0  0  0
 12 17  1  0  0  0
 12 20  1  0  0  0
 13 14  1  0  0  0
 14 15  1  0  0  0
 14 21  1  0  0  0
 15 16  1  0  0  0
 16 17  1  0  0  0
 16 18  1  0  0  0
 18 19  1  0  0  0
 19 20  1  0  0  0
 19 21  1  0  0  0
  9 10  1  0  0  0
 10 11  1  0  0  0
M  CHG 1  12   1
M  END
> <minimizedAffinity>
-8.60435

$$$$
455


 26 29  0  0  0  0  0  0  0  0999 V2000
   21.2481   77.6059   16.5857 N   0  0  0  0  0  0  0  0  0  0  0  0
   20.1111   76.7381   16.1820 C   0  0  0  0  0  0  0  0  0  0  0  0
   18.9598   77.2544   17.0386 C   0  0  0  0  0  0  0  0  0  0  0  0
   19.3621   78.1376   18.0708 N   0  0  0  0  0  0  0  0  0  0  0  0
   20.4694   77.6366   18.8424 C   0  0  0  0  0  0  0  0  0  0  0  0
   21.5455   77.1182   17.9339 C   0  0  0  0  0  0  0  0  0  0  0  0
   22.3704   77.3699   15.6987 C   0  0  0  0  0  0  0  0  0  0  0  0
   24.1810   79.8128   16.0711 Br  0  0  0  0  0  0  0  0  0  0  0  0
   23.0979   79.4682   14.5360 C   0  0  0  0  0  0  0  0  0  0  0  0
   23.0949   80.3437   13.4743 C   0  0  0  0  0  0  0  0  0  0  0  0
   22.3225   80.1096   12.3639 C   0  0  0  0  0  0  0  0  0  0  0  0
   21.5556   78.9793   12.3441 C   0  0  0  0  0  0  0  0  0  0  0  0
   21.5609   78.0949   13.4214 C   0  0  0  0  0  0  0  0  0  0  0  0
   22.3279   78.3069   14.5483 C   0  0  0  0  0  0  0  0  0  0  0  0
   20.7688   78.7246   11.2320 O   0  0  0  0  0  0  0  0  0  0  0  0
   20.5023   79.6758   10.2340 C   0  0  0  0  0  0  0  0  0  0  0  0
   21.6389   80.6341   10.0744 C   0  0  0  0  0  0  0  0  0  0  0  0
   22.2928   80.9674   11.2723 O   0  0  0  0  0  0  0  0  0  0  0  0
   19.3787   79.5236   17.7927 C   0  0  0  0  0  0  0  0  0  0  0  0
   19.1306   80.4108   18.9138 C   0  0  0  0  0  0  0  0  0  0  0  0
   18.3676   80.0766   19.8446 O   0  0  0  0  0  0  0  0  0  0  0  0
   19.7477   81.6810   18.9869 N   0  0  0  0  0  0  0  0  0  0  0  0
   20.4097   82.0361   18.2381 H   0  0  0  0  0  0  0  0  0  0  0  0
   19.5218   82.5987   20.0970 C   0  0  0  0  0  0  0  0  0  0  0  0
   20.2427   83.8797   20.1677 C   0  0  0  0  0  0  0  0  0  0  0  0
   20.7075   82.7569   21.0449 C   0  0  0  0  0  0  0  0  0  0  0  0
  8  9  1  0  0  0
  9 10  2  0  0  0
  9 14  1  0  0  0
 10 11  1  0  0  0
 11 12  2  0  0  0
 11 18  1  0  0  0
 12 13  1  0  0  0
 12 15  1  0  0  0
 13 14  2  0  0  0
 14  7  1  0  0  0
  7  1  1  0  0  0
  1  2  1  0  0  0
  1  6  1  0  0  0
  2  3  1  0  0  0
  3  4  1  0  0  0
  4  5  1  0  0  0
  4 19  1  0  0  0
  5  6  1  0  0  0
 19 20  1  0  0  0
 20 21  2  0  0  0
 20 22  1  0  0  0
 22 24  1  0  0  0
 24 25  1  0  0  0
 24 26  1  0  0  0
 25 26  1  0  0  0
 15 16  1  0  0  0
 16 17  1  0  0  0
 17 18  1  0  0  0
 22 23  1  0  0  0
M  END
> <minimizedAffinity>
-9.13424

$$$$
459


 29 32  0  0  0  0  0  0  0  0999 V2000
   21.4722   78.6065   11.6676 C   0  0  0  0  0  0  0  0  0  0  0  0
   20.3476   77.7788   11.7881 C   0  0  0  0  0  0  0  0  0  0  0  0
   19.7068   77.2260   10.7028 C   0  0  0  0  0  0  0  0  0  0  0  0
   20.1574   77.4727    9.4244 C   0  0  0  0  0  0  0  0  0  0  0  0
   21.2620   78.2861    9.2868 C   0  0  0  0  0  0  0  0  0  0  0  0
   21.9139   78.8475   10.3860 C   0  0  0  0  0  0  0  0  0  0  0  0
   19.4857   76.8916    8.2594 C   0  0  0  0  0  0  0  0  0  0  0  0
   19.4116   75.6032    7.8868 N   0  0  0  0  0  0  0  0  0  0  0  0
   18.6986   75.5241    6.7585 N   0  0  0  0  0  0  0  0  0  0  0  0
   18.3235   76.7474    6.4145 N   0  0  0  0  0  0  0  0  0  0  0  0
   18.8030   77.5753    7.3272 N   0  0  0  0  0  0  0  0  0  0  0  0
   18.3599   74.3419    5.9940 C   0  0  0  0  0  0  0  0  0  0  0  0
   17.0448   74.5159    5.3394 C   0  0  0  0  0  0  0  0  0  0  0  0
   16.9891   74.7017    4.1132 O   0  0  0  0  0  0  0  0  0  0  0  0
   15.8717   74.4682    6.1229 N   0  0  0  0  0  0  0  0  0  0  0  0
   15.8486   74.7724    7.1358 H   0  0  0  0  0  0  0  0  0  0  0  0
   14.9811   74.1231    5.7062 H   0  0  0  0  0  0  0  0  0  0  0  0
   22.0758   79.1394   12.7931 O   0  0  0  0  0  0  0  0  0  0  0  0
   23.0185   78.4613   13.5681 C   0  0  0  0  0  0  0  0  0  0  0  0
   25.3444   78.5060   15.5404 Br  0  0  0  0  0  0  0  0  0  0  0  0
   23.5113   78.1921   15.9981 C   0  0  0  0  0  0  0  0  0  0  0  0
   23.1200   77.9780   17.2963 C   0  0  0  0  0  0  0  0  0  0  0  0
   21.7944   77.7534   17.6074 C   0  0  0  0  0  0  0  0  0  0  0  0
   20.8594   77.7465   16.5941 C   0  0  0  0  0  0  0  0  0  0  0  0
   21.2654   77.9654   15.2787 C   0  0  0  0  0  0  0  0  0  0  0  0
   22.5825   78.1901   14.9488 C   0  0  0  0  0  0  0  0  0  0  0  0
   19.6332   77.5017   17.1798 O   0  0  0  0  0  0  0  0  0  0  0  0
   19.7186   77.6502   18.5862 C   0  0  0  0  0  0  0  0  0  0  0  0
   21.1067   77.5109   18.7985 O   0  0  0  0  0  0  0  0  0  0  0  0
 20 21  1  0  0  0
 21 22  2  0  0  0
 21 26  1  0  0  0
 22 23  1  0  0  0
 23 24  2  0  0  0
 23 29  1  0  0  0
 24 25  1  0  0  0
 24 27  1  0  0  0
 25 26  2  0  0  0
 26 19  1  0  0  0
 19 18  1  0  0  0
 18  1  1  0  0  0
  1  2  2  0  0  0
  1  6  1  0  0  0
  2  3  1  0  0  0
  3  4  2  0  0  0
  4  5  1  0  0  0
  4  7  1  0  0  0
  5  6  2  0  0  0
  7  8  2  0  0  0
  7 11  1  0  0  0
  8  9  1  0  0  0
  9 10  1  0  0  0
  9 12  1  0  0  0
 10 11  2  0  0  0
 12 13  1  0  0  0
 13 14  2  0  0  0
 13 15  1  0  0  0
 27 28  1  0  0  0
 28 29  1  0  0  0
 15 16  1  0  0  0
 15 17  1  0  0  0
M  END
> <minimizedAffinity>
-9.85261

$$$$
467


 28 31  0  0  0  0  0  0  0  0999 V2000
   21.0908   76.8776   15.2580 N   0  0  0  0  0  0  0  0  0  0  0  0
   20.7643   77.0545   16.2325 H   0  0  0  0  0  0  0  0  0  0  0  0
   22.1800   77.6267   14.7622 C   0  0  0  0  0  0  0  0  0  0  0  0
   22.0424   78.1369   13.5273 N   0  0  0  0  0  0  0  0  0  0  0  0
   22.9989   78.9037   12.9377 C   0  0  0  0  0  0  0  0  0  0  0  0
   24.0954   79.1237   13.6615 N   0  0  0  0  0  0  0  0  0  0  0  0
   24.2932   78.6482   14.8885 C   0  0  0  0  0  0  0  0  0  0  0  0
   23.3013   77.8830   15.4344 N   0  0  0  0  0  0  0  0  0  0  0  0
   22.7801   79.3863   11.6456 N   0  0  0  0  0  0  0  0  0  0  0  0
   23.2629   78.6752   10.4859 C   0  0  0  0  0  0  0  0  0  0  0  0
   22.5739   79.1548    9.2256 C   0  0  0  0  0  0  0  0  0  0  0  0
   21.2802   79.5357    9.3683 O   0  0  0  0  0  0  0  0  0  0  0  0
   20.9023   80.2011   10.4927 C   0  0  0  0  0  0  0  0  0  0  0  0
   22.0473   80.6054   11.4165 C   0  0  0  0  0  0  0  0  0  0  0  0
   25.4452   78.8952   15.6154 O   0  0  0  0  0  0  0  0  0  0  0  0
   25.3821   79.1464   16.9938 C   0  0  0  0  0  0  0  0  0  0  0  0
   19.7333   76.0807   13.4701 C   0  0  0  0  0  0  0  0  0  0  0  0
   20.4401   75.9194   14.5062 N   0  0  0  0  0  0  0  0  0  0  0  0
   19.4421   76.4655   10.4082 Br  0  0  0  0  0  0  0  0  0  0  0  0
   18.8979   74.9650   11.4292 C   0  0  0  0  0  0  0  0  0  0  0  0
   18.2953   73.8857   10.8104 C   0  0  0  0  0  0  0  0  0  0  0  0
   17.8767   72.7595   11.5215 C   0  0  0  0  0  0  0  0  0  0  0  0
   18.0861   72.7488   12.8983 C   0  0  0  0  0  0  0  0  0  0  0  0
   18.6895   73.8373   13.4936 C   0  0  0  0  0  0  0  0  0  0  0  0
   19.1093   74.9642   12.7900 C   0  0  0  0  0  0  0  0  0  0  0  0
   17.5927   71.5491   13.3588 O   0  0  0  0  0  0  0  0  0  0  0  0
   16.9026   70.8575   12.3367 C   0  0  0  0  0  0  0  0  0  0  0  0
   17.2613   71.5662   11.1795 O   0  0  0  0  0  0  0  0  0  0  0  0
 19 20  1  0  0  0
 20 21  2  0  0  0
 20 25  1  0  0  0
 21 22  1  0  0  0
 22 23  2  0  0  0
 22 28  1  0  0  0
 23 24  1  0  0  0
 23 26  1  0  0  0
 24 25  2  0  0  0
 25 17  1  0  0  0
 17 18  2  0  0  0
 18  1  1  0  0  0
  1  3  1  0  0  0
  3  4  2  0  0  0
  3  8  1  0  0  0
  4  5  1  0  0  0
  5  6  2  0  0  0
  5  9  1  0  0  0
  6  7  1  0  0  0
  7  8  2  0  0  0
  7 15  1  0  0  0
 15 16  1  0  0  0
  9 10  1  0  0  0
  9 14  1  0  0  0
 10 11  1  0  0  0
 11 12  1  0  0  0
 12 13  1  0  0  0
 13 14  1  0  0  0
 26 27  1  0  0  0
 27 28  1  0  0  0
  1  2  1  0  0  0
M  END
> <minimizedAffinity>
-9.39225

$$$$
469


 32 36  0  0  0  0  0  0  0  0999 V2000
   22.7496   78.5825   12.0894 C   0  0  0  0  0  0  0  0  0  0  0  0
   21.7655   78.5514   11.0323 N   0  0  0  0  0  0  0  0  0  0  0  0
   22.0184   79.3639    9.9394 C   0  0  0  0  0  0  0  0  0  0  0  0
   20.9049   79.9387    9.1517 C   0  0  0  0  0  0  0  0  0  0  0  0
   19.7103   79.1905    9.4194 N   0  0  0  0  0  0  0  0  0  0  0  0
   19.3737   79.1005   10.8179 C   0  0  0  0  0  0  0  0  0  0  0  0
   20.4523   78.2723   11.4665 C   0  0  0  0  0  0  0  0  0  0  0  0
   18.8832   78.5664    8.4711 C   0  0  0  0  0  0  0  0  0  0  0  0
   17.8038   79.1604    7.9020 N   0  0  0  0  0  0  0  0  0  0  0  0
   17.0311   78.5369    6.9946 C   0  0  0  0  0  0  0  0  0  0  0  0
   17.2975   77.2782    6.6035 N   0  0  0  0  0  0  0  0  0  0  0  0
   18.3506   76.6099    7.1157 C   0  0  0  0  0  0  0  0  0  0  0  0
   18.8470   75.3626    6.9126 N   0  0  0  0  0  0  0  0  0  0  0  0
   19.9049   75.2550    7.6962 N   0  0  0  0  0  0  0  0  0  0  0  0
   20.1186   76.3702    8.3980 C   0  0  0  0  0  0  0  0  0  0  0  0
   19.1292   77.2588    8.0403 C   0  0  0  0  0  0  0  0  0  0  0  0
   18.2956   74.3600    5.9995 C   0  0  0  0  0  0  0  0  0  0  0  0
   21.7757   77.8725   14.2779 N   0  0  0  0  0  0  0  0  0  0  0  0
   22.1238   78.9360   13.4198 C   0  0  0  0  0  0  0  0  0  0  0  0
   21.9615   80.1442   13.6585 O   0  0  0  0  0  0  0  0  0  0  0  0
   21.9776   76.8812   13.9349 H   0  0  0  0  0  0  0  0  0  0  0  0
   19.6689   75.7692   14.6606 Br  0  0  0  0  0  0  0  0  0  0  0  0
   20.1693   77.1076   15.9097 C   0  0  0  0  0  0  0  0  0  0  0  0
   19.5660   77.2100   17.1408 C   0  0  0  0  0  0  0  0  0  0  0  0
   19.9167   78.1643   18.0435 C   0  0  0  0  0  0  0  0  0  0  0  0
   20.9086   79.0659   17.7244 C   0  0  0  0  0  0  0  0  0  0  0  0
   21.5366   78.9812   16.4770 C   0  0  0  0  0  0  0  0  0  0  0  0
   21.1819   78.0110   15.5557 C   0  0  0  0  0  0  0  0  0  0  0  0
   21.2460   80.0195   18.6508 O   0  0  0  0  0  0  0  0  0  0  0  0
   20.3867   80.4736   19.6678 C   0  0  0  0  0  0  0  0  0  0  0  0
   19.1700   79.6213   19.8384 C   0  0  0  0  0  0  0  0  0  0  0  0
   19.3346   78.3044   19.2961 O   0  0  0  0  0  0  0  0  0  0  0  0
 22 23  1  0  0  0
 23 24  2  0  0  0
 23 28  1  0  0  0
 24 25  1  0  0  0
 25 26  2  0  0  0
 25 32  1  0  0  0
 26 27  1  0  0  0
 26 29  1  0  0  0
 27 28  2  0  0  0
 28 18  1  0  0  0
 18 19  1  0  0  0
 19 20  2  0  0  0
 19  1  1  0  0  0
  1  2  1  0  0  0
  2  3  1  0  0  0
  2  7  1  0  0  0
  3  4  1  0  0  0
  4  5  1  0  0  0
  5  6  1  0  0  0
  5  8  1  0  0  0
  6  7  1  0  0  0
  8  9  2  0  0  0
  8 16  1  0  0  0
  9 10  1  0  0  0
 10 11  2  0  0  0
 11 12  1  0  0  0
 12 13  1  0  0  0
 12 16  2  0  0  0
 13 14  1  0  0  0
 13 17  1  0  0  0
 14 15  2  0  0  0
 15 16  1  0  0  0
 29 30  1  0  0  0
 30 31  1  0  0  0
 31 32  1  0  0  0
 18 21  1  0  0  0
M  END
> <minimizedAffinity>
-9.63125

$$$$
471


 27 30  0  0  0  0  0  0  0  0999 V2000
   22.6960   78.9323   12.7513 C   0  0  0  0  0  0  0  0  0  0  0  0
   23.9362   78.6835   12.7299 O   0  0  0  0  0  0  0  0  0  0  0  0
   22.0916   79.5294   11.6270 N   0  0  0  0  0  0  0  0  0  0  0  0
   22.9072   79.8407   10.4808 C   0  0  0  0  0  0  0  0  0  0  0  0
   22.3789   79.2301    9.2000 C   0  0  0  0  0  0  0  0  0  0  0  0
   20.9691   79.1444    9.2917 N   0  0  0  0  0  0  0  0  0  0  0  0
   20.4020   80.1894   10.0494 C   0  0  0  0  0  0  0  0  0  0  0  0
   20.6913   79.8625   11.5261 C   0  0  0  0  0  0  0  0  0  0  0  0
   20.0925   80.9525   19.6617 Br  0  0  0  0  0  0  0  0  0  0  0  0
   20.2676   79.6817   18.2503 C   0  0  0  0  0  0  0  0  0  0  0  0
   20.9725   80.0029   17.1027 C   0  0  0  0  0  0  0  0  0  0  0  0
   21.1167   79.0994   16.0597 C   0  0  0  0  0  0  0  0  0  0  0  0
   20.5184   77.8667   16.2354 C   0  0  0  0  0  0  0  0  0  0  0  0
   19.8131   77.5216   17.3621 C   0  0  0  0  0  0  0  0  0  0  0  0
   19.6859   78.4348   18.3804 C   0  0  0  0  0  0  0  0  0  0  0  0
   20.6585   76.9624   15.1985 C   0  0  0  0  0  0  0  0  0  0  0  0
   20.1299   75.8060   15.2961 O   0  0  0  0  0  0  0  0  0  0  0  0
   21.3714   77.3363   14.0789 C   0  0  0  0  0  0  0  0  0  0  0  0
   21.9463   78.5805   13.9637 C   0  0  0  0  0  0  0  0  0  0  0  0
   21.7837   79.3999   14.9722 O   0  0  0  0  0  0  0  0  0  0  0  0
   20.4087   77.8596    9.4214 C   0  0  0  0  0  0  0  0  0  0  0  0
   19.6602   77.3750    8.2651 C   0  0  0  0  0  0  0  0  0  0  0  0
   19.0232   78.1471    7.3698 N   0  0  0  0  0  0  0  0  0  0  0  0
   18.4842   77.3637    6.5052 O   0  0  0  0  0  0  0  0  0  0  0  0
   18.7311   76.1071    6.7798 N   0  0  0  0  0  0  0  0  0  0  0  0
   19.4829   76.0684    7.9018 C   0  0  0  0  0  0  0  0  0  0  0  0
   20.0041   74.8503    8.5914 C   0  0  0  0  0  0  0  0  0  0  0  0
  9 10  1  0  0  0
 10 11  2  0  0  0
 10 15  1  0  0  0
 11 12  1  0  0  0
 12 13  2  0  0  0
 12 20  1  0  0  0
 13 14  1  0  0  0
 13 16  1  0  0  0
 14 15  2  0  0  0
 16 17  2  0  0  0
 16 18  1  0  0  0
 18 19  2  0  0  0
 19 20  1  0  0  0
 19  1  1  0  0  0
  1  2  2  0  0  0
  1  3  1  0  0  0
  3  4  1  0  0  0
  3  8  1  0  0  0
  4  5  1  0  0  0
  5  6  1  0  0  0
  6  7  1  0  0  0
  6 21  1  0  0  0
  7  8  1  0  0  0
 21 22  1  0  0  0
 22 23  2  0  0  0
 22 26  1  0  0  0
 23 24  1  0  0  0
 24 25  1  0  0  0
 25 26  2  0  0  0
 26 27  1  0  0  0
M  END
> <minimizedAffinity>
-10.05357

$$$$
473


 29 32  0  0  0  0  0  0  0  0999 V2000
   22.7367   78.5215   17.7403 C   0  0  0  0  0  0  0  0  0  0  0  0
   23.5045   77.9760   16.5976 C   0  0  0  0  0  0  0  0  0  0  0  0
   23.8489   76.7694   16.5021 O   0  0  0  0  0  0  0  0  0  0  0  0
   23.9028   78.8328   15.5092 N   0  0  0  0  0  0  0  0  0  0  0  0
   24.6507   78.3099   14.3890 C   0  0  0  0  0  0  0  0  0  0  0  0
   24.1596   78.7950   13.0661 C   0  0  0  0  0  0  0  0  0  0  0  0
   23.0399   79.7028   13.1433 N   0  0  0  0  0  0  0  0  0  0  0  0
   22.7776   80.5851   14.2486 C   0  0  0  0  0  0  0  0  0  0  0  0
   23.5778   80.2465   15.4826 C   0  0  0  0  0  0  0  0  0  0  0  0
   22.1266   79.7271   12.0417 C   0  0  0  0  0  0  0  0  0  0  0  0
   22.2080   80.6751   11.0691 N   0  0  0  0  0  0  0  0  0  0  0  0
   21.3785   80.7326   10.0283 C   0  0  0  0  0  0  0  0  0  0  0  0
   20.3744   79.7821    9.9200 C   0  0  0  0  0  0  0  0  0  0  0  0
   20.2652   78.8237   10.8714 N   0  0  0  0  0  0  0  0  0  0  0  0
   21.1205   78.7982   11.9063 C   0  0  0  0  0  0  0  0  0  0  0  0
   21.4052   77.8619   17.9633 C   0  0  0  0  0  0  0  0  0  0  0  0
   20.3164   78.7546   17.4955 C   0  0  0  0  0  0  0  0  0  0  0  0
   18.7210   84.2157   22.9426 Br  0  0  0  0  0  0  0  0  0  0  0  0
   19.3041   83.3852   21.3270 C   0  0  0  0  0  0  0  0  0  0  0  0
   19.1725   82.0178   21.1929 C   0  0  0  0  0  0  0  0  0  0  0  0
   19.5783   81.3673   20.0422 C   0  0  0  0  0  0  0  0  0  0  0  0
   20.1224   82.1337   19.0301 C   0  0  0  0  0  0  0  0  0  0  0  0
   20.2491   83.5002   19.1752 C   0  0  0  0  0  0  0  0  0  0  0  0
   19.8455   84.1568   20.3202 C   0  0  0  0  0  0  0  0  0  0  0  0
   20.4647   81.2295   17.9463 C   0  0  0  0  0  0  0  0  0  0  0  0
   20.9909   81.6062   16.8500 O   0  0  0  0  0  0  0  0  0  0  0  0
   20.1119   79.9115   18.3390 N   0  0  0  0  0  0  0  0  0  0  0  0
   19.5607   79.9550   19.6315 C   0  0  0  0  0  0  0  0  0  0  0  0
   19.1271   78.9949   20.3257 O   0  0  0  0  0  0  0  0  0  0  0  0
 18 19  1  0  0  0
 19 20  2  0  0  0
 19 24  1  0  0  0
 20 21  1  0  0  0
 21 22  2  0  0  0
 21 28  1  0  0  0
 22 23  1  0  0  0
 22 25  1  0  0  0
 23 24  2  0  0  0
 25 26  2  0  0  0
 25 27  1  0  0  0
 27 28  1  0  0  0
 27 17  1  0  0  0
 28 29  2  0  0  0
 17 16  1  0  0  0
 16  1  1  0  0  0
  1  2  1  0  0  0
  2  3  2  0  0  0
  2  4  1  0  0  0
  4  5  1  0  0  0
  4  9  1  0  0  0
  5  6  1  0  0  0
  6  7  1  0  0  0
  7  8  1  0  0  0
  7 10  1  0  0  0
  8  9  1  0  0  0
 10 11  2  0  0  0
 10 15  1  0  0  0
 11 12  1  0  0  0
 12 13  2  0  0  0
 13 14  1  0  0  0
 14 15  2  0  0  0
M  END
> <minimizedAffinity>
-10.27406

$$$$
483


 31 34  0  0  0  0  0  0  0  0999 V2000
   20.7668   76.3696   15.6871 N   0  0  0  0  0  0  0  0  0  0  0  0
   20.1193   76.9448   16.8081 C   0  0  0  0  0  0  0  0  0  0  0  0
   18.8710   77.0424   16.8073 O   0  0  0  0  0  0  0  0  0  0  0  0
   21.8041   76.2962   15.6822 H   0  0  0  0  0  0  0  0  0  0  0  0
   23.3477   80.8505   14.2687 Br  0  0  0  0  0  0  0  0  0  0  0  0
   22.2183   79.7048   13.2564 C   0  0  0  0  0  0  0  0  0  0  0  0
   21.6310   78.5651   13.8186 C   0  0  0  0  0  0  0  0  0  0  0  0
   20.8111   77.7308   13.0890 C   0  0  0  0  0  0  0  0  0  0  0  0
   20.5570   78.0298   11.7450 C   0  0  0  0  0  0  0  0  0  0  0  0
   21.1441   79.1618   11.1993 C   0  0  0  0  0  0  0  0  0  0  0  0
   21.9593   79.9815   11.9430 C   0  0  0  0  0  0  0  0  0  0  0  0
   19.6936   77.0537   11.1729 N   0  0  0  0  0  0  0  0  0  0  0  0
   19.3996   76.1136   12.1945 C   0  0  0  0  0  0  0  0  0  0  0  0
   18.6787   75.0789   12.1579 O   0  0  0  0  0  0  0  0  0  0  0  0
   20.0957   76.5118   13.4371 C   0  0  0  0  0  0  0  0  0  0  0  0
   20.0664   75.9023   14.5723 N   0  0  0  0  0  0  0  0  0  0  0  0
   19.1687   76.9598    9.8253 C   0  0  0  0  0  0  0  0  0  0  0  0
   19.7553   75.8256    9.1290 C   0  0  0  0  0  0  0  0  0  0  0  0
   20.2255   74.8840    8.5455 C   0  0  0  0  0  0  0  0  0  0  0  0
   20.8982   77.4162   17.9443 C   0  0  0  0  0  0  0  0  0  0  0  0
   20.2682   78.5165   18.6484 N   0  0  0  0  0  0  0  0  0  0  0  0
   19.3303   78.4390   19.5768 N   0  0  0  0  0  0  0  0  0  0  0  0
   18.9956   79.6485   19.9954 N   0  0  0  0  0  0  0  0  0  0  0  0
   19.7375   80.5415   19.3185 C   0  0  0  0  0  0  0  0  0  0  0  0
   20.5080   79.8119   18.5011 N   0  0  0  0  0  0  0  0  0  0  0  0
   19.6760   81.9906   19.4806 C   0  0  0  0  0  0  0  0  0  0  0  0
   19.0325   82.5374   20.5699 C   0  0  0  0  0  0  0  0  0  0  0  0
   18.9719   83.9239   20.7284 C   0  0  0  0  0  0  0  0  0  0  0  0
   19.5443   84.7805   19.8158 C   0  0  0  0  0  0  0  0  0  0  0  0
   20.1916   84.2338   18.7215 C   0  0  0  0  0  0  0  0  0  0  0  0
   20.2470   82.8548   18.5717 C   0  0  0  0  0  0  0  0  0  0  0  0
  5  6  1  0  0  0
  6  7  2  0  0  0
  6 11  1  0  0  0
  7  8  1  0  0  0
  8  9  2  0  0  0
  8 15  1  0  0  0
  9 10  1  0  0  0
  9 12  1  0  0  0
 10 11  2  0  0  0
 12 13  1  0  0  0
 12 17  1  0  0  0
 13 14  2  0  0  0
 13 15  1  0  0  0
 15 16  2  0  0  0
 16  1  1  0  0  0
  1  2  1  0  0  0
  2  3  2  0  0  0
  2 20  1  0  0  0
 20 21  1  0  0  0
 21 22  1  0  0  0
 21 25  1  0  0  0
 22 23  2  0  0  0
 23 24  1  0  0  0
 24 25  2  0  0  0
 24 26  1  0  0  0
 26 27  2  0  0  0
 26 31  1  0  0  0
 27 28  1  0  0  0
 28 29  2  0  0  0
 29 30  1  0  0  0
 30 31  2  0  0  0
 17 18  1  0  0  0
 18 19  3  0  0  0
  1  4  1  0  0  0
M  END
> <minimizedAffinity>
-10.93664

$$$$
484


 35 38  0  0  0  0  0  0  0  0999 V2000
   21.9951   80.2796   10.0540 Br  0  0  0  0  0  0  0  0  0  0  0  0
   21.1884   78.8674   11.0547 C   0  0  0  0  0  0  0  0  0  0  0  0
   21.4921   78.6600   12.4084 C   0  0  0  0  0  0  0  0  0  0  0  0
   20.8487   77.6260   13.0250 C   0  0  0  0  0  0  0  0  0  0  0  0
   19.9423   76.7946   12.4009 C   0  0  0  0  0  0  0  0  0  0  0  0
   19.6506   76.9970   11.0712 C   0  0  0  0  0  0  0  0  0  0  0  0
   20.2869   78.0539   10.4037 C   0  0  0  0  0  0  0  0  0  0  0  0
   19.4303   75.8066   13.2861 N   0  0  0  0  0  0  0  0  0  0  0  0
   20.0795   76.0380   14.5636 C   0  0  0  0  0  0  0  0  0  0  0  0
   19.8757   75.3774   15.6031 O   0  0  0  0  0  0  0  0  0  0  0  0
   20.9661   77.1643   14.3730 C   0  0  0  0  0  0  0  0  0  0  0  0
   21.8519   77.6224   15.1709 N   0  0  0  0  0  0  0  0  0  0  0  0
   22.7464   78.3540   15.3300 N   0  0  0  0  0  0  0  0  0  0  0  0
   23.8426   79.2241   15.5277 C   0  0  0  0  0  0  0  0  0  0  0  0
   25.0050   79.0282   15.8034 O   0  0  0  0  0  0  0  0  0  0  0  0
   23.5980   77.3330   15.7314 H   0  0  0  0  0  0  0  0  0  0  0  0
   23.3688   80.6849   15.3530 C   0  0  0  0  0  0  0  0  0  0  0  0
   21.9477   80.6205   15.6004 O   0  0  0  0  0  0  0  0  0  0  0  0
   21.5082   81.3968   16.7106 N   0  0  0  0  0  0  0  0  0  0  0  0
   20.6397   80.9519   17.5320 C   0  0  0  0  0  0  0  0  0  0  0  0
   20.1983   81.7653   18.6415 C   0  0  0  0  0  0  0  0  0  0  0  0
   19.6269   81.3019   19.7789 C   0  0  0  0  0  0  0  0  0  0  0  0
   19.1962   82.2781   20.7136 C   0  0  0  0  0  0  0  0  0  0  0  0
   19.3049   83.6002   20.5988 C   0  0  0  0  0  0  0  0  0  0  0  0
   19.8858   84.0130   19.4482 C   0  0  0  0  0  0  0  0  0  0  0  0
   20.3446   83.2478   18.4444 C   0  0  0  0  0  0  0  0  0  0  0  0
   18.8403   84.4505   21.6086 O   0  0  0  0  0  0  0  0  0  0  0  0
   18.8702   84.0426   22.9715 C   0  0  0  0  0  0  0  0  0  0  0  0
   18.4287   74.7672   13.1138 C   0  0  0  0  0  0  0  0  0  0  0  0
   18.9139   73.6929   12.3975 N   0  0  0  0  0  0  0  0  0  0  0  0
   19.5419   72.7352   13.2138 C   0  0  0  0  0  0  0  0  0  0  0  0
   19.0881   71.3326   12.8025 C   0  0  0  0  0  0  0  0  0  0  0  0
   17.6700   71.4354   12.8154 O   0  0  0  0  0  0  0  0  0  0  0  0
   17.2518   72.1270   11.6707 C   0  0  0  0  0  0  0  0  0  0  0  0
   18.1550   73.2600   11.2939 C   0  0  0  0  0  0  0  0  0  0  0  0
  1  2  1  0  0  0
  2  3  2  0  0  0
  2  7  1  0  0  0
  3  4  1  0  0  0
  4  5  2  0  0  0
  4 11  1  0  0  0
  5  6  1  0  0  0
  5  8  1  0  0  0
  6  7  2  0  0  0
  8  9  1  0  0  0
  8 29  1  0  0  0
  9 10  2  0  0  0
  9 11  1  0  0  0
 11 12  2  0  0  0
 12 13  1  0  0  0
 13 14  1  0  0  0
 14 15  2  0  0  0
 14 17  1  0  0  0
 17 18  1  0  0  0
 18 19  1  0  0  0
 19 20  2  0  0  0
 20 21  1  0  0  0
 21 22  2  0  0  0
 21 26  1  0  0  0
 22 23  1  0  0  0
 23 24  2  0  0  0
 24 25  1  0  0  0
 24 27  1  0  0  0
 25 26  2  0  0  0
 27 28  1  0  0  0
 29 30  1  0  0  0
 30 31  1  0  0  0
 30 35  1  0  0  0
 31 32  1  0  0  0
 32 33  1  0  0  0
 33 34  1  0  0  0
 34 35  1  0  0  0
 13 16  1  0  0  0
M  END
> <minimizedAffinity>
-10.10713

$$$$
485


 34 37  0  0  0  0  0  0  0  0999 V2000
   17.8540   70.8116   13.3477 Br  0  0  0  0  0  0  0  0  0  0  0  0
   18.3311   72.5542   12.6916 C   0  0  0  0  0  0  0  0  0  0  0  0
   18.9389   73.4854   13.5018 C   0  0  0  0  0  0  0  0  0  0  0  0
   19.3015   74.7579   13.0733 C   0  0  0  0  0  0  0  0  0  0  0  0
   19.0335   75.1078   11.7466 C   0  0  0  0  0  0  0  0  0  0  0  0
   18.4243   74.1740   10.9336 C   0  0  0  0  0  0  0  0  0  0  0  0
   18.0698   72.9054   11.3843 C   0  0  0  0  0  0  0  0  0  0  0  0
   19.4787   76.4480   11.4941 N   0  0  0  0  0  0  0  0  0  0  0  0
   20.0353   76.9284   12.7104 C   0  0  0  0  0  0  0  0  0  0  0  0
   20.5298   78.0649   12.8811 O   0  0  0  0  0  0  0  0  0  0  0  0
   19.9390   75.8904   13.7187 C   0  0  0  0  0  0  0  0  0  0  0  0
   20.3345   75.9512   14.9400 N   0  0  0  0  0  0  0  0  0  0  0  0
   20.9388   77.0758   15.4893 N   0  0  0  0  0  0  0  0  0  0  0  0
   20.9522   77.2519   16.8885 C   0  0  0  0  0  0  0  0  0  0  0  0
   20.4186   76.3962   17.6763 O   0  0  0  0  0  0  0  0  0  0  0  0
   21.3729   77.7737   14.8691 H   0  0  0  0  0  0  0  0  0  0  0  0
   21.5753   78.4207   17.5587 C   0  0  0  0  0  0  0  0  0  0  0  0
   22.2973   79.2038   16.6089 O   0  0  0  0  0  0  0  0  0  0  0  0
   23.6593   79.0123   16.4499 C   0  0  0  0  0  0  0  0  0  0  0  0
   24.1679   78.6409   15.2234 C   0  0  0  0  0  0  0  0  0  0  0  0
   25.5378   78.4503   15.0711 C   0  0  0  0  0  0  0  0  0  0  0  0
   26.3940   78.6292   16.1407 C   0  0  0  0  0  0  0  0  0  0  0  0
   25.8761   78.9962   17.3473 C   0  0  0  0  0  0  0  0  0  0  0  0
   24.5123   79.1856   17.4979 C   0  0  0  0  0  0  0  0  0  0  0  0
   23.3450   78.4548   14.1417 O   0  0  0  0  0  0  0  0  0  0  0  0
   23.8149   78.6860   12.8377 C   0  0  0  0  0  0  0  0  0  0  0  0
   19.3617   77.1358   10.2193 C   0  0  0  0  0  0  0  0  0  0  0  0
   20.1549   78.3055   10.0959 N   0  0  0  0  0  0  0  0  0  0  0  0
   21.3428   78.1738    9.3239 C   0  0  0  0  0  0  0  0  0  0  0  0
   22.1674   79.4642    9.3155 C   0  0  0  0  0  0  0  0  0  0  0  0
   21.6324   80.3051   10.3476 N   0  0  0  0  0  0  0  0  0  0  0  0
   20.3021   80.7523   10.0735 C   0  0  0  0  0  0  0  0  0  0  0  0
   19.4306   79.5246    9.8789 C   0  0  0  0  0  0  0  0  0  0  0  0
   22.5303   81.3364   10.7819 C   0  0  0  0  0  0  0  0  0  0  0  0
  1  2  1  0  0  0
  2  3  2  0  0  0
  2  7  1  0  0  0
  3  4  1  0  0  0
  4  5  2  0  0  0
  4 11  1  0  0  0
  5  6  1  0  0  0
  5  8  1  0  0  0
  6  7  2  0  0  0
  8  9  1  0  0  0
  8 27  1  0  0  0
  9 10  2  0  0  0
  9 11  1  0  0  0
 11 12  2  0  0  0
 12 13  1  0  0  0
 13 14  1  0  0  0
 14 15  2  0  0  0
 14 17  1  0  0  0
 17 18  1  0  0  0
 18 19  1  0  0  0
 19 20  2  0  0  0
 19 24  1  0  0  0
 20 21  1  0  0  0
 20 25  1  0  0  0
 21 22  2  0  0  0
 22 23  1  0  0  0
 23 24  2  0  0  0
 25 26  1  0  0  0
 27 28  1  0  0  0
 28 29  1  0  0  0
 28 33  1  0  0  0
 29 30  1  0  0  0
 30 31  1  0  0  0
 31 32  1  0  0  0
 31 34  1  0  0  0
 32 33  1  0  0  0
 13 16  1  0  0  0
M  END
> <minimizedAffinity>
-10.03661

$$$$
500


 32 35  0  0  0  0  0  0  0  0999 V2000
   25.8965   77.7032    9.6146 Br  0  0  0  0  0  0  0  0  0  0  0  0
   24.1779   78.5264    9.8900 C   0  0  0  0  0  0  0  0  0  0  0  0
   23.0629   77.8342   10.2637 C   0  0  0  0  0  0  0  0  0  0  0  0
   21.8496   78.4536   10.4197 C   0  0  0  0  0  0  0  0  0  0  0  0
   21.7987   79.7989   10.1871 C   0  0  0  0  0  0  0  0  0  0  0  0
   22.9287   80.5335    9.8055 C   0  0  0  0  0  0  0  0  0  0  0  0
   24.1440   79.8990    9.6502 C   0  0  0  0  0  0  0  0  0  0  0  0
   20.4849   80.2983   10.3441 N   0  0  0  0  0  0  0  0  0  0  0  0
   19.6694   79.2227   10.6887 C   0  0  0  0  0  0  0  0  0  0  0  0
   18.4293   79.3200   10.8828 O   0  0  0  0  0  0  0  0  0  0  0  0
   20.5060   77.9701   10.7838 C   0  0  0  0  0  0  0  0  0  0  0  0
   20.3240   77.5037   12.1496 C   0  0  0  0  0  0  0  0  0  0  0  0
   19.6795   76.3292   12.3919 C   0  0  0  0  0  0  0  0  0  0  0  0
   19.6575   76.1701   13.7449 N   0  0  0  0  0  0  0  0  0  0  0  0
   20.2531   77.1878   14.3108 N   0  0  0  0  0  0  0  0  0  0  0  0
   20.6969   78.0652   13.3813 C   0  0  0  0  0  0  0  0  0  0  0  0
   19.1672   75.5123   11.3642 O   0  0  0  0  0  0  0  0  0  0  0  0
   19.3440   75.9597   10.0693 C   0  0  0  0  0  0  0  0  0  0  0  0
   19.9500   77.0762    9.7783 C   0  0  0  0  0  0  0  0  0  0  0  0
   18.8179   75.1229    9.0115 N   0  0  0  0  0  0  0  0  0  0  0  0
   20.0583   81.7025   10.1771 C   0  0  0  0  0  0  0  0  0  0  0  0
   20.3946   77.3489   15.3500 H   0  0  0  0  0  0  0  0  0  0  0  0
   18.5937   74.1201    9.1337 H   0  0  0  0  0  0  0  0  0  0  0  0
   18.6602   75.5596    8.0894 H   0  0  0  0  0  0  0  0  0  0  0  0
   20.0814   77.4675    8.3715 C   0  0  0  0  0  0  0  0  0  0  0  0
   20.1675   77.7624    7.2678 N   0  0  0  0  0  0  0  0  0  0  0  0
   21.4351   79.3195   13.6766 C   0  0  0  0  0  0  0  0  0  0  0  0
   22.8109   79.0414   14.1435 C   0  0  0  0  0  0  0  0  0  0  0  0
   23.8577   79.2094   13.4672 O   0  0  0  0  0  0  0  0  0  0  0  0
   22.9570   78.5588   15.4251 O   0  0  0  0  0  0  0  0  0  0  0  0
   23.1533   79.3244   16.5840 C   0  0  0  0  0  0  0  0  0  0  0  0
   24.6245   79.3649   16.9245 C   0  0  0  0  0  0  0  0  0  0  0  0
  1  2  1  0  0  0
  2  3  2  0  0  0
  2  7  1  0  0  0
  3  4  1  0  0  0
  4  5  2  0  0  0
  4 11  1  0  0  0
  5  6  1  0  0  0
  5  8  1  0  0  0
  6  7  2  0  0  0
  8  9  1  0  0  0
  8 21  1  0  0  0
  9 10  2  0  0  0
  9 11  1  0  0  0
 11 12  1  0  0  0
 11 19  1  0  0  0
 12 13  1  0  0  0
 12 16  2  0  0  0
 13 14  2  0  0  0
 13 17  1  0  0  0
 14 15  1  0  0  0
 15 16  1  0  0  0
 16 27  1  0  0  0
 27 28  1  0  0  0
 28 29  2  0  0  0
 28 30  1  0  0  0
 30 31  1  0  0  0
 31 32  1  0  0  0
 17 18  1  0  0  0
 18 19  2  0  0  0
 18 20  1  0  0  0
 19 25  1  0  0  0
 25 26  3  0  0  0
 15 22  1  0  0  0
 20 23  1  0  0  0
 20 24  1  0  0  0
M  END
> <minimizedAffinity>
-5.73797

$$$$
502


 27 30  0  0  0  0  0  0  0  0999 V2000
   18.8940   80.8522   18.3582 Br  0  0  0  0  0  0  0  0  0  0  0  0
   20.3855   79.8706   17.6329 C   0  0  0  0  0  0  0  0  0  0  0  0
   20.4927   79.6409   16.2866 C   0  0  0  0  0  0  0  0  0  0  0  0
   21.5696   78.9366   15.7906 C   0  0  0  0  0  0  0  0  0  0  0  0
   22.5031   78.4889   16.6857 C   0  0  0  0  0  0  0  0  0  0  0  0
   22.3915   78.7265   18.0706 C   0  0  0  0  0  0  0  0  0  0  0  0
   21.3156   79.4280   18.5457 C   0  0  0  0  0  0  0  0  0  0  0  0
   23.5491   77.7826   16.0254 N   0  0  0  0  0  0  0  0  0  0  0  0
   23.2682   77.7810   14.6533 C   0  0  0  0  0  0  0  0  0  0  0  0
   23.9894   77.2395   13.7606 O   0  0  0  0  0  0  0  0  0  0  0  0
   21.9786   78.5235   14.4256 C   0  0  0  0  0  0  0  0  0  0  0  0
   22.3138   79.6504   13.5627 C   0  0  0  0  0  0  0  0  0  0  0  0
   21.7908   79.7616   12.3120 C   0  0  0  0  0  0  0  0  0  0  0  0
   22.2979   80.9120   11.7783 N   0  0  0  0  0  0  0  0  0  0  0  0
   23.0997   81.4992   12.6416 N   0  0  0  0  0  0  0  0  0  0  0  0
   23.1404   80.7621   13.7493 C   0  0  0  0  0  0  0  0  0  0  0  0
   23.9018   80.9981   15.0157 C   0  0  0  0  0  0  0  0  0  0  0  0
   20.9077   78.8196   11.7734 O   0  0  0  0  0  0  0  0  0  0  0  0
   20.5909   77.7459   12.5992 C   0  0  0  0  0  0  0  0  0  0  0  0
   21.0611   77.5841   13.8084 C   0  0  0  0  0  0  0  0  0  0  0  0
   19.6763   76.7329   12.0932 N   0  0  0  0  0  0  0  0  0  0  0  0
   24.7211   77.1598   16.6592 C   0  0  0  0  0  0  0  0  0  0  0  0
   23.6402   82.3955   12.5289 H   0  0  0  0  0  0  0  0  0  0  0  0
   20.1330   75.9562   11.5748 H   0  0  0  0  0  0  0  0  0  0  0  0
   18.6679   76.7690   12.2274 H   0  0  0  0  0  0  0  0  0  0  0  0
   20.6157   76.3856   14.5405 C   0  0  0  0  0  0  0  0  0  0  0  0
   20.2416   75.4375   15.1107 N   0  0  0  0  0  0  0  0  0  0  0  0
  1  2  1  0  0  0
  2  3  2  0  0  0
  2  7  1  0  0  0
  3  4  1  0  0  0
  4  5  2  0  0  0
  4 11  1  0  0  0
  5  6  1  0  0  0
  5  8  1  0  0  0
  6  7  2  0  0  0
  8  9  1  0  0  0
  8 22  1  0  0  0
  9 10  2  0  0  0
  9 11  1  0  0  0
 11 12  1  0  0  0
 11 20  1  0  0  0
 12 13  1  0  0  0
 12 16  2  0  0  0
 13 14  2  0  0  0
 13 18  1  0  0  0
 14 15  1  0  0  0
 15 16  1  0  0  0
 16 17  1  0  0  0
 18 19  1  0  0  0
 19 20  2  0  0  0
 19 21  1  0  0  0
 20 26  1  0  0  0
 26 27  3  0  0  0
 15 23  1  0  0  0
 21 24  1  0  0  0
 21 25  1  0  0  0
M  END
> <minimizedAffinity>
-6.42472

$$$$
504


 29 32  0  0  0  0  0  0  0  0999 V2000
   26.3006   75.6471   15.1063 Br  0  0  0  0  0  0  0  0  0  0  0  0
   24.9809   76.8749   15.7066 C   0  0  0  0  0  0  0  0  0  0  0  0
   23.8537   77.1778   14.9811 C   0  0  0  0  0  0  0  0  0  0  0  0
   22.9317   78.0907   15.4916 C   0  0  0  0  0  0  0  0  0  0  0  0
   23.0841   78.7097   16.6865 C   0  0  0  0  0  0  0  0  0  0  0  0
   24.2303   78.4009   17.4244 C   0  0  0  0  0  0  0  0  0  0  0  0
   25.1517   77.5019   16.9359 C   0  0  0  0  0  0  0  0  0  0  0  0
   22.0121   79.5864   16.9753 N   0  0  0  0  0  0  0  0  0  0  0  0
   21.1126   79.5263   15.8932 C   0  0  0  0  0  0  0  0  0  0  0  0
   20.0326   80.1706   15.7869 O   0  0  0  0  0  0  0  0  0  0  0  0
   21.6470   78.5682   14.8853 C   0  0  0  0  0  0  0  0  0  0  0  0
   21.9283   79.2663   13.6056 C   0  0  0  0  0  0  0  0  0  0  0  0
   21.4624   78.8618   12.4798 C   0  0  0  0  0  0  0  0  0  0  0  0
   20.6174   77.6842   12.3557 N   0  0  0  0  0  0  0  0  0  0  0  0
   20.3425   77.0105   13.5661 C   0  0  0  0  0  0  0  0  0  0  0  0
   20.8049   77.4041   14.7207 C   0  0  0  0  0  0  0  0  0  0  0  0
   19.5021   75.8252   13.5030 N   0  0  0  0  0  0  0  0  0  0  0  0
   21.9353   79.7870   11.4040 C   0  0  0  0  0  0  0  0  0  0  0  0
   22.7033   80.7350   12.0477 O   0  0  0  0  0  0  0  0  0  0  0  0
   22.7554   80.4976   13.3876 C   0  0  0  0  0  0  0  0  0  0  0  0
   23.3503   81.1354   14.3076 O   0  0  0  0  0  0  0  0  0  0  0  0
   20.7473   80.3712   10.6640 C   0  0  0  0  0  0  0  0  0  0  0  0
   22.8239   79.0518   10.4174 C   0  0  0  0  0  0  0  0  0  0  0  0
   21.8323   80.4247   18.1704 C   0  0  0  0  0  0  0  0  0  0  0  0
   20.2692   77.4027   11.4233 H   0  0  0  0  0  0  0  0  0  0  0  0
   18.5511   75.9011   13.9179 H   0  0  0  0  0  0  0  0  0  0  0  0
   19.8336   74.9520   13.0701 H   0  0  0  0  0  0  0  0  0  0  0  0
   20.4360   76.6078   15.8850 C   0  0  0  0  0  0  0  0  0  0  0  0
   20.1494   75.9913   16.8228 N   0  0  0  0  0  0  0  0  0  0  0  0
  1  2  1  0  0  0
  2  3  2  0  0  0
  2  7  1  0  0  0
  3  4  1  0  0  0
  4  5  2  0  0  0
  4 11  1  0  0  0
  5  6  1  0  0  0
  5  8  1  0  0  0
  6  7  2  0  0  0
  8  9  1  0  0  0
  8 24  1  0  0  0
  9 10  2  0  0  0
  9 11  1  0  0  0
 11 12  1  0  0  0
 11 16  1  0  0  0
 12 13  2  0  0  0
 12 20  1  0  0  0
 13 14  1  0  0  0
 13 18  1  0  0  0
 14 15  1  0  0  0
 15 16  2  0  0  0
 15 17  1  0  0  0
 16 28  1  0  0  0
 28 29  3  0  0  0
 18 19  1  0  0  0
 18 22  1  0  0  0
 18 23  1  0  0  0
 19 20  1  0  0  0
 20 21  2  0  0  0
 14 25  1  0  0  0
 17 26  1  0  0  0
 17 27  1  0  0  0
M  END
> <minimizedAffinity>
-6.78916

$$$$
505


 30 33  0  0  0  0  0  0  0  0999 V2000
   16.0521   81.5698   11.3140 Br  0  0  0  0  0  0  0  0  0  0  0  0
   17.8631   81.1519   10.9042 C   0  0  0  0  0  0  0  0  0  0  0  0
   18.2742   79.8371   10.8792 C   0  0  0  0  0  0  0  0  0  0  0  0
   19.5992   79.5036   10.5807 C   0  0  0  0  0  0  0  0  0  0  0  0
   20.4608   80.5194   10.3177 C   0  0  0  0  0  0  0  0  0  0  0  0
   20.0388   81.8649   10.3443 C   0  0  0  0  0  0  0  0  0  0  0  0
   18.7334   82.1843   10.6381 C   0  0  0  0  0  0  0  0  0  0  0  0
   21.7446   79.9743   10.0414 N   0  0  0  0  0  0  0  0  0  0  0  0
   21.6946   78.5716   10.1320 C   0  0  0  0  0  0  0  0  0  0  0  0
   22.6343   77.7569    9.9526 O   0  0  0  0  0  0  0  0  0  0  0  0
   20.2966   78.1867   10.4879 C   0  0  0  0  0  0  0  0  0  0  0  0
   20.2585   77.4752   11.7703 C   0  0  0  0  0  0  0  0  0  0  0  0
   19.6903   76.2487   11.8882 C   0  0  0  0  0  0  0  0  0  0  0  0
   19.1219   75.6261   10.7726 O   0  0  0  0  0  0  0  0  0  0  0  0
   19.1323   76.2529    9.5425 C   0  0  0  0  0  0  0  0  0  0  0  0
   19.6698   77.4270    9.4026 C   0  0  0  0  0  0  0  0  0  0  0  0
   18.5293   75.5521    8.4422 N   0  0  0  0  0  0  0  0  0  0  0  0
   19.6765   75.6088   13.1307 C   0  0  0  0  0  0  0  0  0  0  0  0
   19.1512   74.4801   13.2253 O   0  0  0  0  0  0  0  0  0  0  0  0
   20.2401   76.2336   14.2183 C   0  0  0  0  0  0  0  0  0  0  0  0
   20.8025   77.4799   14.0395 C   0  0  0  0  0  0  0  0  0  0  0  0
   20.7858   78.0217   12.8688 O   0  0  0  0  0  0  0  0  0  0  0  0
   22.9188   80.8064    9.7143 C   0  0  0  0  0  0  0  0  0  0  0  0
   17.8546   76.0450    7.8601 H   0  0  0  0  0  0  0  0  0  0  0  0
   18.7969   74.5822    8.2809 H   0  0  0  0  0  0  0  0  0  0  0  0
   21.4294   78.1878   15.2220 C   0  0  0  0  0  0  0  0  0  0  0  0
   21.9097   77.2352   16.1205 O   0  0  0  0  0  0  0  0  0  0  0  0
   21.3659   76.3962   16.0292 H   0  0  0  0  0  0  0  0  0  0  0  0
   19.6360   78.0187    8.0574 C   0  0  0  0  0  0  0  0  0  0  0  0
   19.6039   78.4711    7.0126 N   0  0  0  0  0  0  0  0  0  0  0  0
  1  2  1  0  0  0
  2  3  2  0  0  0
  2  7  1  0  0  0
  3  4  1  0  0  0
  4  5  2  0  0  0
  4 11  1  0  0  0
  5  6  1  0  0  0
  5  8  1  0  0  0
  6  7  2  0  0  0
  8  9  1  0  0  0
  8 23  1  0  0  0
  9 10  2  0  0  0
  9 11  1  0  0  0
 11 12  1  0  0  0
 11 16  1  0  0  0
 12 13  2  0  0  0
 12 22  1  0  0  0
 13 14  1  0  0  0
 13 18  1  0  0  0
 14 15  1  0  0  0
 15 16  2  0  0  0
 15 17  1  0  0  0
 16 29  1  0  0  0
 29 30  3  0  0  0
 18 19  2  0  0  0
 18 20  1  0  0  0
 20 21  2  0  0  0
 21 22  1  0  0  0
 21 26  1  0  0  0
 26 27  1  0  0  0
 17 24  1  0  0  0
 17 25  1  0  0  0
 27 28  1  0  0  0
M  END
> <minimizedAffinity>
-6.80528

$$$$
513


 33 36  0  0  0  0  0  0  0  0999 V2000
   20.5340   76.8120   14.7411 N   0  0  0  0  0  0  0  0  0  0  0  0
   21.7456   77.4884   15.0465 C   0  0  0  0  0  0  0  0  0  0  0  0
   22.3387   78.0402   14.1061 O   0  0  0  0  0  0  0  0  0  0  0  0
   20.0445   76.3374   15.5305 H   0  0  0  0  0  0  0  0  0  0  0  0
   19.9878   76.7506   13.4723 N   0  0  0  0  0  0  0  0  0  0  0  0
   20.0194   77.6023   12.8481 H   0  0  0  0  0  0  0  0  0  0  0  0
   21.3011   79.7795    9.1201 Br  0  0  0  0  0  0  0  0  0  0  0  0
   20.4266   78.0775    9.1755 C   0  0  0  0  0  0  0  0  0  0  0  0
   20.1723   77.4509   10.3952 C   0  0  0  0  0  0  0  0  0  0  0  0
   19.5504   76.2257   10.4979 C   0  0  0  0  0  0  0  0  0  0  0  0
   19.1744   75.6195    9.3226 C   0  0  0  0  0  0  0  0  0  0  0  0
   19.4136   76.2203    8.0781 C   0  0  0  0  0  0  0  0  0  0  0  0
   20.0357   77.4409    8.0258 C   0  0  0  0  0  0  0  0  0  0  0  0
   18.5627   74.3814    9.6567 N   0  0  0  0  0  0  0  0  0  0  0  0
   18.5500   74.1998   11.0607 C   0  0  0  0  0  0  0  0  0  0  0  0
   18.0946   73.2359   11.7227 O   0  0  0  0  0  0  0  0  0  0  0  0
   19.1901   75.3884   11.6471 C   0  0  0  0  0  0  0  0  0  0  0  0
   19.3773   75.6122   12.9297 C   0  0  0  0  0  0  0  0  0  0  0  0
   18.1709   73.6917    8.9734 H   0  0  0  0  0  0  0  0  0  0  0  0
   22.3117   77.5619   16.4117 C   0  0  0  0  0  0  0  0  0  0  0  0
   21.3556   77.8773   17.3669 N   0  0  0  0  0  0  0  0  0  0  0  0
   20.8933   79.0425   17.8177 C   0  0  0  0  0  0  0  0  0  0  0  0
   19.9755   78.7998   18.8309 C   0  0  0  0  0  0  0  0  0  0  0  0
   19.9010   77.4629   18.9722 N   0  0  0  0  0  0  0  0  0  0  0  0
   20.7186   76.9130   18.1037 C   0  0  0  0  0  0  0  0  0  0  0  0
   19.3434   79.8551   19.4576 C   0  0  0  0  0  0  0  0  0  0  0  0
   18.5188   79.6037   20.3739 O   0  0  0  0  0  0  0  0  0  0  0  0
   19.6494   81.0787   19.0531 N   0  0  0  0  0  0  0  0  0  0  0  0
   20.5381   81.3020   18.0689 C   0  0  0  0  0  0  0  0  0  0  0  0
   20.7980   82.4766   17.7157 O   0  0  0  0  0  0  0  0  0  0  0  0
   21.1890   80.2964   17.4186 N   0  0  0  0  0  0  0  0  0  0  0  0
   22.1050   80.5663   16.3475 C   0  0  0  0  0  0  0  0  0  0  0  0
   19.0062   82.2400   19.6900 C   0  0  0  0  0  0  0  0  0  0  0  0
  7  8  1  0  0  0
  8  9  2  0  0  0
  8 13  1  0  0  0
  9 10  1  0  0  0
 10 11  2  0  0  0
 10 17  1  0  0  0
 11 12  1  0  0  0
 11 14  1  0  0  0
 12 13  2  0  0  0
 14 15  1  0  0  0
 15 16  2  0  0  0
 15 17  1  0  0  0
 17 18  2  0  0  0
 18  5  1  0  0  0
  5  1  1  0  0  0
  1  2  1  0  0  0
  2  3  2  0  0  0
  2 20  1  0  0  0
 20 21  1  0  0  0
 21 22  1  0  0  0
 21 25  1  0  0  0
 22 23  2  0  0  0
 22 31  1  0  0  0
 23 24  1  0  0  0
 23 26  1  0  0  0
 24 25  2  0  0  0
 26 27  2  0  0  0
 26 28  1  0  0  0
 28 29  1  0  0  0
 28 33  1  0  0  0
 29 30  2  0  0  0
 29 31  1  0  0  0
 31 32  1  0  0  0
 14 19  1  0  0  0
  5  6  1  0  0  0
  1  4  1  0  0  0
M  END
> <minimizedAffinity>
-10.30459

$$$$
526


 31 34  0  0  0  0  0  0  0  0999 V2000
   21.0013   76.7898   16.5355 N   0  0  0  0  0  0  0  0  0  0  0  0
   20.1999   77.2384   17.6018 C   0  0  0  0  0  0  0  0  0  0  0  0
   18.9292   77.0982   17.5032 O   0  0  0  0  0  0  0  0  0  0  0  0
   22.0489   76.9096   16.5962 H   0  0  0  0  0  0  0  0  0  0  0  0
   17.4342   72.1052   12.4291 Br  0  0  0  0  0  0  0  0  0  0  0  0
   18.3435   73.7657   12.2960 C   0  0  0  0  0  0  0  0  0  0  0  0
   18.9243   74.3621   13.3787 C   0  0  0  0  0  0  0  0  0  0  0  0
   19.5785   75.5699   13.2698 C   0  0  0  0  0  0  0  0  0  0  0  0
   19.6859   76.2349   12.0897 C   0  0  0  0  0  0  0  0  0  0  0  0
   19.0943   75.6311   10.9755 C   0  0  0  0  0  0  0  0  0  0  0  0
   18.4417   74.4286   11.0784 C   0  0  0  0  0  0  0  0  0  0  0  0
   20.3969   77.4457   12.2319 N   0  0  0  0  0  0  0  0  0  0  0  0
   20.7863   77.6003   13.5991 C   0  0  0  0  0  0  0  0  0  0  0  0
   21.4134   78.4989   14.1637 O   0  0  0  0  0  0  0  0  0  0  0  0
   20.2575   76.3841   14.2857 C   0  0  0  0  0  0  0  0  0  0  0  0
   20.4387   76.2171   15.4511 N   0  0  0  0  0  0  0  0  0  0  0  0
   20.6198   78.1478   11.4863 H   0  0  0  0  0  0  0  0  0  0  0  0
   20.6457   77.8562   18.8541 C   0  0  0  0  0  0  0  0  0  0  0  0
   20.6932   79.2907   18.8739 N   0  0  0  0  0  0  0  0  0  0  0  0
   19.6509   80.0649   19.4570 C   0  0  0  0  0  0  0  0  0  0  0  0
   18.6675   79.3920   19.9575 O   0  0  0  0  0  0  0  0  0  0  0  0
   21.4718   79.8202   18.4528 H   0  0  0  0  0  0  0  0  0  0  0  0
   19.5934   81.4924   19.5345 C   0  0  0  0  0  0  0  0  0  0  0  0
   18.8565   82.2187   20.4581 C   0  0  0  0  0  0  0  0  0  0  0  0
   18.8521   83.5717   20.4820 C   0  0  0  0  0  0  0  0  0  0  0  0
   19.5922   84.3033   19.5748 C   0  0  0  0  0  0  0  0  0  0  0  0
   20.3267   83.6332   18.6480 C   0  0  0  0  0  0  0  0  0  0  0  0
   20.3463   82.2309   18.6097 C   0  0  0  0  0  0  0  0  0  0  0  0
   19.4019   85.6687   19.8434 O   0  0  0  0  0  0  0  0  0  0  0  0
   19.1938   85.6679   21.2763 C   0  0  0  0  0  0  0  0  0  0  0  0
   18.2117   84.5715   21.3045 O   0  0  0  0  0  0  0  0  0  0  0  0
  5  6  1  0  0  0
  6  7  2  0  0  0
  6 11  1  0  0  0
  7  8  1  0  0  0
  8  9  2  0  0  0
  8 15  1  0  0  0
  9 10  1  0  0  0
  9 12  1  0  0  0
 10 11  2  0  0  0
 12 13  1  0  0  0
 13 14  2  0  0  0
 13 15  1  0  0  0
 15 16  2  0  0  0
 16  1  1  0  0  0
  1  2  1  0  0  0
  2  3  2  0  0  0
  2 18  1  0  0  0
 18 19  1  0  0  0
 19 20  1  0  0  0
 20 21  2  0  0  0
 20 23  1  0  0  0
 23 24  2  0  0  0
 23 28  1  0  0  0
 24 25  1  0  0  0
 25 26  2  0  0  0
 25 31  1  0  0  0
 26 27  1  0  0  0
 26 29  1  0  0  0
 27 28  2  0  0  0
 29 30  1  0  0  0
 30 31  1  0  0  0
 12 17  1  0  0  0
  1  4  1  0  0  0
 19 22  1  0  0  0
M  END
> <minimizedAffinity>
-10.88224

$$$$
550


 30 35  0  0  0  0  0  0  0  0999 V2000
   23.0921   80.3640    9.9690 Br  0  0  0  0  0  0  0  0  0  0  0  0
   22.1670   79.2829   11.2392 C   0  0  0  0  0  0  0  0  0  0  0  0
   22.6220   79.1216   12.5426 C   0  0  0  0  0  0  0  0  0  0  0  0
   21.9531   78.3439   13.4492 C   0  0  0  0  0  0  0  0  0  0  0  0
   20.7942   77.7177   13.0158 C   0  0  0  0  0  0  0  0  0  0  0  0
   20.3371   77.8730   11.7240 C   0  0  0  0  0  0  0  0  0  0  0  0
   21.0182   78.6564   10.8217 C   0  0  0  0  0  0  0  0  0  0  0  0
   20.2205   76.9533   14.0794 N   0  0  0  0  0  0  0  0  0  0  0  0
   21.0329   77.0931   15.2253 C   0  0  0  0  0  0  0  0  0  0  0  0
   20.7999   76.5547   16.3170 O   0  0  0  0  0  0  0  0  0  0  0  0
   22.1572   77.9760   14.8481 C   0  0  0  0  0  0  0  0  0  0  0  0
   23.3676   77.2699   15.1434 N   0  0  0  0  0  0  0  0  0  0  0  0
   23.4843   77.3588   16.5976 C   0  0  0  0  0  0  0  0  0  0  0  0
   22.8889   78.6713   16.9883 C   0  0  0  0  0  0  0  0  0  0  0  0
   22.2634   79.1883   15.7394 C   0  0  0  0  0  0  0  0  0  0  0  0
   20.9707   79.7210   16.1572 C   0  0  0  0  0  0  0  0  0  0  0  0
   20.1773   80.3814   15.4498 O   0  0  0  0  0  0  0  0  0  0  0  0
   20.7362   79.3773   17.5000 N   0  0  0  0  0  0  0  0  0  0  0  0
   21.7819   78.5215   17.9863 C   0  0  0  0  0  0  0  0  0  0  0  0
   21.7973   77.7955   19.0116 O   0  0  0  0  0  0  0  0  0  0  0  0
   24.9780   77.4109   16.8826 C   0  0  0  0  0  0  0  0  0  0  0  0
   25.6636   77.3056   15.5362 C   0  0  0  0  0  0  0  0  0  0  0  0
   24.5717   77.8878   14.6283 C   0  0  0  0  0  0  0  0  0  0  0  0
   19.3291   76.3813   13.9971 H   0  0  0  0  0  0  0  0  0  0  0  0
   19.6278   79.8007   18.2964 C   0  0  0  0  0  0  0  0  0  0  0  0
   19.8927   80.9574   19.1894 C   0  0  0  0  0  0  0  0  0  0  0  0
   18.8536   81.2379   20.0693 O   0  0  0  0  0  0  0  0  0  0  0  0
   19.2079   82.4646   20.6144 C   0  0  0  0  0  0  0  0  0  0  0  0
   19.8589   83.2816   19.5428 C   0  0  0  0  0  0  0  0  0  0  0  0
   20.2514   82.2314   18.5041 C   0  0  0  0  0  0  0  0  0  0  0  0
  1  2  1  0  0  0
  2  3  2  0  0  0
  2  7  1  0  0  0
  3  4  1  0  0  0
  4  5  2  0  0  0
  4 11  1  0  0  0
  5  6  1  0  0  0
  5  8  1  0  0  0
  6  7  2  0  0  0
  8  9  1  0  0  0
  9 10  2  0  0  0
  9 11  1  0  0  0
 11 12  1  0  0  0
 11 15  1  0  0  0
 12 13  1  0  0  0
 12 23  1  0  0  0
 13 14  1  0  0  0
 13 21  1  0  0  0
 14 15  1  0  0  0
 14 19  1  0  0  0
 15 16  1  0  0  0
 16 17  2  0  0  0
 16 18  1  0  0  0
 18 19  1  0  0  0
 18 25  1  0  0  0
 19 20  2  0  0  0
 25 26  1  0  0  0
 26 27  1  0  0  0
 26 30  1  0  0  0
 27 28  1  0  0  0
 28 29  1  0  0  0
 29 30  1  0  0  0
 21 22  1  0  0  0
 22 23  1  0  0  0
  8 24  1  0  0  0
M  END
> <minimizedAffinity>
-9.19597

$$$$
556


 30 33  0  0  0  0  0  0  0  0999 V2000
   26.6447   75.2912   15.0219 Br  0  0  0  0  0  0  0  0  0  0  0  0
   25.6833   76.9000   15.3745 C   0  0  0  0  0  0  0  0  0  0  0  0
   24.3522   76.9216   15.0369 C   0  0  0  0  0  0  0  0  0  0  0  0
   23.6041   78.0793   15.2767 C   0  0  0  0  0  0  0  0  0  0  0  0
   24.2105   79.1562   15.8367 C   0  0  0  0  0  0  0  0  0  0  0  0
   25.5734   79.1550   16.1904 C   0  0  0  0  0  0  0  0  0  0  0  0
   26.2832   78.0038   15.9432 C   0  0  0  0  0  0  0  0  0  0  0  0
   23.2933   80.2232   15.9920 N   0  0  0  0  0  0  0  0  0  0  0  0
   22.0583   79.7916   15.5047 C   0  0  0  0  0  0  0  0  0  0  0  0
   20.9592   80.4684   15.4576 O   0  0  0  0  0  0  0  0  0  0  0  0
   22.2031   78.3823   15.0319 C   0  0  0  0  0  0  0  0  0  0  0  0
   21.2301   77.6147   15.7644 C   0  0  0  0  0  0  0  0  0  0  0  0
   20.1703   77.0591   15.1515 C   0  0  0  0  0  0  0  0  0  0  0  0
   19.4477   76.4040   16.1194 N   0  0  0  0  0  0  0  0  0  0  0  0
   20.0568   76.5639   17.2745 N   0  0  0  0  0  0  0  0  0  0  0  0
   21.1615   77.2978   17.1363 C   0  0  0  0  0  0  0  0  0  0  0  0
   22.1388   77.7150   18.1830 C   0  0  0  0  0  0  0  0  0  0  0  0
   19.9250   77.1769   13.7711 O   0  0  0  0  0  0  0  0  0  0  0  0
   20.8529   77.9140   13.0460 C   0  0  0  0  0  0  0  0  0  0  0  0
   21.8939   78.4733   13.5842 C   0  0  0  0  0  0  0  0  0  0  0  0
   20.6699   78.0804   11.6221 N   0  0  0  0  0  0  0  0  0  0  0  0
   23.4731   81.1858   16.3977 H   0  0  0  0  0  0  0  0  0  0  0  0
   18.5626   75.8711   15.9609 H   0  0  0  0  0  0  0  0  0  0  0  0
   20.2601   78.9560   11.2886 H   0  0  0  0  0  0  0  0  0  0  0  0
   20.9517   77.3294   10.9914 H   0  0  0  0  0  0  0  0  0  0  0  0
   22.8298   79.2437   12.7149 C   0  0  0  0  0  0  0  0  0  0  0  0
   22.7317   80.4838   12.7110 O   0  0  0  0  0  0  0  0  0  0  0  0
   23.7832   78.6529   11.9315 O   0  0  0  0  0  0  0  0  0  0  0  0
   23.7841   78.6600   10.5240 C   0  0  0  0  0  0  0  0  0  0  0  0
   25.1170   78.0568   10.0684 C   0  0  0  0  0  0  0  0  0  0  0  0
  1  2  1  0  0  0
  2  3  2  0  0  0
  2  7  1  0  0  0
  3  4  1  0  0  0
  4  5  2  0  0  0
  4 11  1  0  0  0
  5  6  1  0  0  0
  5  8  1  0  0  0
  6  7  2  0  0  0
  8  9  1  0  0  0
  9 10  2  0  0  0
  9 11  1  0  0  0
 11 12  1  0  0  0
 11 20  1  0  0  0
 12 13  2  0  0  0
 12 16  1  0  0  0
 13 14  1  0  0  0
 13 18  1  0  0  0
 14 15  1  0  0  0
 15 16  2  0  0  0
 16 17  1  0  0  0
 18 19  1  0  0  0
 19 20  2  0  0  0
 19 21  1  0  0  0
 20 26  1  0  0  0
 26 27  2  0  0  0
 26 28  1  0  0  0
 28 29  1  0  0  0
 29 30  1  0  0  0
  8 22  1  0  0  0
 14 23  1  0  0  0
 21 24  1  0  0  0
 21 25  1  0  0  0
M  END
> <minimizedAffinity>
-7.35435

$$$$
558


 29 32  0  0  0  0  0  0  0  0999 V2000
   26.4639   75.5443   14.9740 Br  0  0  0  0  0  0  0  0  0  0  0  0
   25.3152   76.9391   15.5588 C   0  0  0  0  0  0  0  0  0  0  0  0
   24.0553   77.1515   14.9902 C   0  0  0  0  0  0  0  0  0  0  0  0
   23.2328   78.1595   15.4183 C   0  0  0  0  0  0  0  0  0  0  0  0
   23.6504   78.9812   16.4239 C   0  0  0  0  0  0  0  0  0  0  0  0
   24.9048   78.8094   17.0255 C   0  0  0  0  0  0  0  0  0  0  0  0
   25.7078   77.7889   16.5758 C   0  0  0  0  0  0  0  0  0  0  0  0
   22.6651   79.9557   16.7218 N   0  0  0  0  0  0  0  0  0  0  0  0
   21.5779   79.7321   15.8589 C   0  0  0  0  0  0  0  0  0  0  0  0
   20.4967   80.3741   15.7929 O   0  0  0  0  0  0  0  0  0  0  0  0
   21.8868   78.5777   14.9869 C   0  0  0  0  0  0  0  0  0  0  0  0
   21.9010   79.0229   13.5557 C   0  0  0  0  0  0  0  0  0  0  0  0
   21.1786   78.5096   12.5949 C   0  0  0  0  0  0  0  0  0  0  0  0
   20.3040   77.4435   12.9119 N   0  0  0  0  0  0  0  0  0  0  0  0
   20.2222   76.9541   14.2412 C   0  0  0  0  0  0  0  0  0  0  0  0
   20.9451   77.4664   15.2066 C   0  0  0  0  0  0  0  0  0  0  0  0
   19.3163   75.8579   14.5430 N   0  0  0  0  0  0  0  0  0  0  0  0
   21.4880   79.2307   11.3361 C   0  0  0  0  0  0  0  0  0  0  0  0
   22.4503   80.2054   11.6452 O   0  0  0  0  0  0  0  0  0  0  0  0
   22.7261   80.1074   12.9950 C   0  0  0  0  0  0  0  0  0  0  0  0
   23.5592   80.8406   13.6308 O   0  0  0  0  0  0  0  0  0  0  0  0
   20.2590   79.9877   10.8278 C   0  0  0  0  0  0  0  0  0  0  0  0
   21.9870   78.2720   10.2641 C   0  0  0  0  0  0  0  0  0  0  0  0
   22.7528   80.7125   17.4701 H   0  0  0  0  0  0  0  0  0  0  0  0
   19.6986   76.9908   12.1794 H   0  0  0  0  0  0  0  0  0  0  0  0
   19.4425   75.2212   15.3465 H   0  0  0  0  0  0  0  0  0  0  0  0
   18.5076   75.7180   13.9160 H   0  0  0  0  0  0  0  0  0  0  0  0
   20.8012   76.9030   16.5525 C   0  0  0  0  0  0  0  0  0  0  0  0
   20.6905   76.4765   17.6215 N   0  0  0  0  0  0  0  0  0  0  0  0
  1  2  1  0  0  0
  2  3  2  0  0  0
  2  7  1  0  0  0
  3  4  1  0  0  0
  4  5  2  0  0  0
  4 11  1  0  0  0
  5  6  1  0  0  0
  5  8  1  0  0  0
  6  7  2  0  0  0
  8  9  1  0  0  0
  9 10  2  0  0  0
  9 11  1  0  0  0
 11 12  1  0  0  0
 11 16  1  0  0  0
 12 13  2  0  0  0
 12 20  1  0  0  0
 13 14  1  0  0  0
 13 18  1  0  0  0
 14 15  1  0  0  0
 15 16  2  0  0  0
 15 17  1  0  0  0
 16 28  1  0  0  0
 28 29  3  0  0  0
 18 19  1  0  0  0
 18 22  1  0  0  0
 18 23  1  0  0  0
 19 20  1  0  0  0
 20 21  2  0  0  0
  8 24  1  0  0  0
 14 25  1  0  0  0
 17 26  1  0  0  0
 17 27  1  0  0  0
M  END
> <minimizedAffinity>
-8.25792

$$$$
559


 32 35  0  0  0  0  0  0  0  0999 V2000
   18.8888   74.2419   10.7436 Br  0  0  0  0  0  0  0  0  0  0  0  0
   19.0293   75.0486   12.4797 C   0  0  0  0  0  0  0  0  0  0  0  0
   20.0830   75.8795   12.8126 C   0  0  0  0  0  0  0  0  0  0  0  0
   20.1928   76.4635   14.0580 C   0  0  0  0  0  0  0  0  0  0  0  0
   19.1912   76.1741   14.9613 C   0  0  0  0  0  0  0  0  0  0  0  0
   18.1294   75.3381   14.6302 C   0  0  0  0  0  0  0  0  0  0  0  0
   18.0446   74.7749   13.3939 C   0  0  0  0  0  0  0  0  0  0  0  0
   19.4704   76.8561   16.1943 N   0  0  0  0  0  0  0  0  0  0  0  0
   20.6762   77.5872   16.0562 C   0  0  0  0  0  0  0  0  0  0  0  0
   21.1877   78.2785   16.9675 O   0  0  0  0  0  0  0  0  0  0  0  0
   21.1788   77.3752   14.6828 C   0  0  0  0  0  0  0  0  0  0  0  0
   22.5075   76.8254   14.6965 N   0  0  0  0  0  0  0  0  0  0  0  0
   23.3575   77.9758   14.9221 C   0  0  0  0  0  0  0  0  0  0  0  0
   22.7608   79.0366   14.0360 C   0  0  0  0  0  0  0  0  0  0  0  0
   21.2919   78.6896   13.9964 C   0  0  0  0  0  0  0  0  0  0  0  0
   20.9285   78.6973   12.5724 C   0  0  0  0  0  0  0  0  0  0  0  0
   19.7739   78.5803   12.0894 O   0  0  0  0  0  0  0  0  0  0  0  0
   22.1175   78.8635   11.7665 N   0  0  0  0  0  0  0  0  0  0  0  0
   23.2337   78.9565   12.6369 C   0  0  0  0  0  0  0  0  0  0  0  0
   24.4269   78.9662   12.2510 O   0  0  0  0  0  0  0  0  0  0  0  0
   18.8529   76.7914   17.0324 H   0  0  0  0  0  0  0  0  0  0  0  0
   22.7205   76.4389   13.7628 H   0  0  0  0  0  0  0  0  0  0  0  0
   22.1819   78.9272   10.3276 C   0  0  0  0  0  0  0  0  0  0  0  0
   21.2774   77.9091    9.6764 C   0  0  0  0  0  0  0  0  0  0  0  0
   21.7800   80.3347    9.8767 C   0  0  0  0  0  0  0  0  0  0  0  0
   23.5873   78.6545    9.8386 C   0  0  0  0  0  0  0  0  0  0  0  0
   24.7877   77.6450   14.5909 C   0  0  0  0  0  0  0  0  0  0  0  0
   25.2709   76.5160   15.4025 C   0  0  0  0  0  0  0  0  0  0  0  0
   24.9762   76.4820   16.6286 O   0  0  0  0  0  0  0  0  0  0  0  0
   26.0546   75.4432   14.9068 N   0  0  0  0  0  0  0  0  0  0  0  0
   26.8884   75.5404   14.3095 H   0  0  0  0  0  0  0  0  0  0  0  0
   25.7524   74.4700   15.1755 H   0  0  0  0  0  0  0  0  0  0  0  0
  1  2  1  0  0  0
  2  3  2  0  0  0
  2  7  1  0  0  0
  3  4  1  0  0  0
  4  5  2  0  0  0
  4 11  1  0  0  0
  5  6  1  0  0  0
  5  8  1  0  0  0
  6  7  2  0  0  0
  8  9  1  0  0  0
  9 10  2  0  0  0
  9 11  1  0  0  0
 11 12  1  0  0  0
 11 15  1  0  0  0
 12 13  1  0  0  0
 13 14  1  0  0  0
 13 27  1  0  0  0
 14 15  1  0  0  0
 14 19  1  0  0  0
 15 16  1  0  0  0
 16 17  2  0  0  0
 16 18  1  0  0  0
 18 19  1  0  0  0
 18 23  1  0  0  0
 19 20  2  0  0  0
 23 24  1  0  0  0
 23 25  1  0  0  0
 23 26  1  0  0  0
 27 28  1  0  0  0
 28 29  2  0  0  0
 28 30  1  0  0  0
  8 21  1  0  0  0
 12 22  1  0  0  0
 30 31  1  0  0  0
 30 32  1  0  0  0
M  END
> <minimizedAffinity>
-7.81466

$$$$
566


 30 33  0  0  0  0  0  0  0  0999 V2000
   20.3414   84.4253   18.5219 Br  0  0  0  0  0  0  0  0  0  0  0  0
   20.0412   82.6086   19.0220 C   0  0  0  0  0  0  0  0  0  0  0  0
   20.6879   81.5866   18.3744 C   0  0  0  0  0  0  0  0  0  0  0  0
   20.4738   80.2437   18.7344 C   0  0  0  0  0  0  0  0  0  0  0  0
   19.6136   79.9099   19.7427 C   0  0  0  0  0  0  0  0  0  0  0  0
   18.9530   80.9549   20.4048 C   0  0  0  0  0  0  0  0  0  0  0  0
   19.1766   82.2610   20.0364 C   0  0  0  0  0  0  0  0  0  0  0  0
   19.5634   78.5017   19.9225 N   0  0  0  0  0  0  0  0  0  0  0  0
   20.4398   77.9248   18.9751 C   0  0  0  0  0  0  0  0  0  0  0  0
   20.6109   76.6635   18.8907 O   0  0  0  0  0  0  0  0  0  0  0  0
   21.0437   78.9901   18.1935 C   0  0  0  0  0  0  0  0  0  0  0  0
   22.4932   78.9896   18.2348 N   0  0  0  0  0  0  0  0  0  0  0  0
   22.9176   78.1402   17.1368 C   0  0  0  0  0  0  0  0  0  0  0  0
   21.9703   78.5457   16.0444 C   0  0  0  0  0  0  0  0  0  0  0  0
   20.6766   78.8135   16.7350 C   0  0  0  0  0  0  0  0  0  0  0  0
   19.8406   77.6273   16.4924 C   0  0  0  0  0  0  0  0  0  0  0  0
   18.7778   77.2633   17.0948 O   0  0  0  0  0  0  0  0  0  0  0  0
   20.3926   76.8673   15.4248 N   0  0  0  0  0  0  0  0  0  0  0  0
   21.6530   77.4322   15.1245 C   0  0  0  0  0  0  0  0  0  0  0  0
   22.4388   77.0652   14.1988 O   0  0  0  0  0  0  0  0  0  0  0  0
   18.9638   78.0293   20.6465 H   0  0  0  0  0  0  0  0  0  0  0  0
   22.8693   78.6855   19.1508 H   0  0  0  0  0  0  0  0  0  0  0  0
   24.3509   78.4269   16.8173 C   0  0  0  0  0  0  0  0  0  0  0  0
   24.3808   79.2332   15.6725 O   0  0  0  0  0  0  0  0  0  0  0  0
   25.0744   77.1469   16.4787 C   0  0  0  0  0  0  0  0  0  0  0  0
   25.0779   78.9229   15.0393 H   0  0  0  0  0  0  0  0  0  0  0  0
   19.7853   75.7289   14.7638 C   0  0  0  0  0  0  0  0  0  0  0  0
   19.4947   75.9937   13.3220 C   0  0  0  0  0  0  0  0  0  0  0  0
   18.8435   74.7234   12.7610 C   0  0  0  0  0  0  0  0  0  0  0  0
   19.3720   73.5059   13.4682 C   0  0  0  0  0  0  0  0  0  0  0  0
  1  2  1  0  0  0
  2  3  2  0  0  0
  2  7  1  0  0  0
  3  4  1  0  0  0
  4  5  2  0  0  0
  4 11  1  0  0  0
  5  6  1  0  0  0
  5  8  1  0  0  0
  6  7  2  0  0  0
  8  9  1  0  0  0
  9 10  2  0  0  0
  9 11  1  0  0  0
 11 12  1  0  0  0
 11 15  1  0  0  0
 12 13  1  0  0  0
 13 14  1  0  0  0
 13 23  1  0  0  0
 14 15  1  0  0  0
 14 19  1  0  0  0
 15 16  1  0  0  0
 16 17  2  0  0  0
 16 18  1  0  0  0
 18 19  1  0  0  0
 18 27  1  0  0  0
 19 20  2  0  0  0
 27 28  1  0  0  0
 28 29  1  0  0  0
 29 30  1  0  0  0
 23 24  1  0  0  0
 23 25  1  0  0  0
  8 21  1  0  0  0
 12 22  1  0  0  0
 24 26  1  0  0  0
M  END
> <minimizedAffinity>
-10.57570

$$$$
571


 34 38  0  0  0  0  0  0  0  0999 V2000
   26.0463   77.3267   10.1070 Br  0  0  0  0  0  0  0  0  0  0  0  0
   24.4658   78.3952   10.0306 C   0  0  0  0  0  0  0  0  0  0  0  0
   23.4184   78.2343   10.9102 C   0  0  0  0  0  0  0  0  0  0  0  0
   22.2562   79.0179   10.8455 C   0  0  0  0  0  0  0  0  0  0  0  0
   22.1938   79.9713    9.8587 C   0  0  0  0  0  0  0  0  0  0  0  0
   23.2457   80.1398    8.9694 C   0  0  0  0  0  0  0  0  0  0  0  0
   24.3813   79.3638    9.0421 C   0  0  0  0  0  0  0  0  0  0  0  0
   20.9648   80.6699    9.9065 N   0  0  0  0  0  0  0  0  0  0  0  0
   20.2139   80.1333   10.9726 C   0  0  0  0  0  0  0  0  0  0  0  0
   19.0600   80.5523   11.2700 O   0  0  0  0  0  0  0  0  0  0  0  0
   21.0092   79.0627   11.6095 C   0  0  0  0  0  0  0  0  0  0  0  0
   20.2997   77.7820   11.5295 N   0  0  0  0  0  0  0  0  0  0  0  0
   20.6651   77.0608   12.7281 C   0  0  0  0  0  0  0  0  0  0  0  0
   21.0318   78.0471   13.7656 C   0  0  0  0  0  0  0  0  0  0  0  0
   21.1221   79.3838   13.0525 C   0  0  0  0  0  0  0  0  0  0  0  0
   22.3597   79.9952   13.5218 C   0  0  0  0  0  0  0  0  0  0  0  0
   22.8809   81.0531   13.0895 O   0  0  0  0  0  0  0  0  0  0  0  0
   22.9334   79.2037   14.5843 N   0  0  0  0  0  0  0  0  0  0  0  0
   22.3685   77.8928   14.3730 C   0  0  0  0  0  0  0  0  0  0  0  0
   22.9304   76.8259   14.6628 O   0  0  0  0  0  0  0  0  0  0  0  0
   20.6678   81.4517    9.2597 H   0  0  0  0  0  0  0  0  0  0  0  0
   20.5653   77.2510   10.6689 H   0  0  0  0  0  0  0  0  0  0  0  0
   19.5495   76.1287   13.1380 C   0  0  0  0  0  0  0  0  0  0  0  0
   19.0751   75.4466   12.0341 O   0  0  0  0  0  0  0  0  0  0  0  0
   19.9566   75.2031   14.2586 C   0  0  0  0  0  0  0  0  0  0  0  0
   18.4076   74.7739   12.2675 H   0  0  0  0  0  0  0  0  0  0  0  0
   23.8220   79.5994   15.6298 C   0  0  0  0  0  0  0  0  0  0  0  0
   23.3763   79.2874   17.0287 C   0  0  0  0  0  0  0  0  0  0  0  0
   21.9415   79.4995   17.2865 C   0  0  0  0  0  0  0  0  0  0  0  0
   21.1698   78.4427   17.7540 C   0  0  0  0  0  0  0  0  0  0  0  0
   19.8552   78.6316   18.0196 C   0  0  0  0  0  0  0  0  0  0  0  0
   19.2353   79.8357   17.8489 C   0  0  0  0  0  0  0  0  0  0  0  0
   20.0146   80.8835   17.3827 C   0  0  0  0  0  0  0  0  0  0  0  0
   21.3414   80.7180   17.1068 C   0  0  0  0  0  0  0  0  0  0  0  0
  1  2  1  0  0  0
  2  3  2  0  0  0
  2  7  1  0  0  0
  3  4  1  0  0  0
  4  5  2  0  0  0
  4 11  1  0  0  0
  5  6  1  0  0  0
  5  8  1  0  0  0
  6  7  2  0  0  0
  8  9  1  0  0  0
  9 10  2  0  0  0
  9 11  1  0  0  0
 11 12  1  0  0  0
 11 15  1  0  0  0
 12 13  1  0  0  0
 13 14  1  0  0  0
 13 23  1  0  0  0
 14 15  1  0  0  0
 14 19  1  0  0  0
 15 16  1  0  0  0
 16 17  2  0  0  0
 16 18  1  0  0  0
 18 19  1  0  0  0
 18 27  1  0  0  0
 19 20  2  0  0  0
 27 28  1  0  0  0
 28 29  1  0  0  0
 29 30  2  0  0  0
 29 34  1  0  0  0
 30 31  1  0  0  0
 31 32  2  0  0  0
 32 33  1  0  0  0
 33 34  2  0  0  0
 23 24  1  0  0  0
 23 25  1  0  0  0
  8 21  1  0  0  0
 12 22  1  0  0  0
 24 26  1  0  0  0
M  END
> <minimizedAffinity>
-9.11776

$$$$
578


 27 30  0  0  0  0  0  0  0  0999 V2000
   20.2016   77.3601   10.9227 Br  0  0  0  0  0  0  0  0  0  0  0  0
   20.0683   76.8592   12.7609 C   0  0  0  0  0  0  0  0  0  0  0  0
   20.6666   77.5823   13.7621 C   0  0  0  0  0  0  0  0  0  0  0  0
   20.5903   77.2438   15.1248 C   0  0  0  0  0  0  0  0  0  0  0  0
   19.8731   76.1288   15.4395 C   0  0  0  0  0  0  0  0  0  0  0  0
   19.2533   75.3741   14.4257 C   0  0  0  0  0  0  0  0  0  0  0  0
   19.3472   75.7316   13.1011 C   0  0  0  0  0  0  0  0  0  0  0  0
   19.8702   75.9109   16.8436 N   0  0  0  0  0  0  0  0  0  0  0  0
   20.6247   76.9465   17.4288 C   0  0  0  0  0  0  0  0  0  0  0  0
   20.8381   77.0974   18.6874 O   0  0  0  0  0  0  0  0  0  0  0  0
   21.1180   77.8160   16.3455 C   0  0  0  0  0  0  0  0  0  0  0  0
   20.4719   79.1114   16.6230 N   0  0  0  0  0  0  0  0  0  0  0  0
   21.4264   79.9697   17.2527 C   0  0  0  0  0  0  0  0  0  0  0  0
   22.7388   79.5020   16.7411 C   0  0  0  0  0  0  0  0  0  0  0  0
   22.5832   78.0447   16.4001 C   0  0  0  0  0  0  0  0  0  0  0  0
   23.3485   77.8940   15.1836 C   0  0  0  0  0  0  0  0  0  0  0  0
   23.7130   76.7882   14.6859 O   0  0  0  0  0  0  0  0  0  0  0  0
   23.6224   79.1793   14.6437 N   0  0  0  0  0  0  0  0  0  0  0  0
   22.9927   80.1799   15.4307 C   0  0  0  0  0  0  0  0  0  0  0  0
   22.7411   81.3400   15.0489 O   0  0  0  0  0  0  0  0  0  0  0  0
   21.3516   80.0000   18.7612 C   0  0  0  0  0  0  0  0  0  0  0  0
   19.3948   75.1221   17.3727 H   0  0  0  0  0  0  0  0  0  0  0  0
   20.0863   79.5294   15.7477 H   0  0  0  0  0  0  0  0  0  0  0  0
   24.4369   79.3775   13.4524 C   0  0  0  0  0  0  0  0  0  0  0  0
   23.6941   79.0257   12.1991 C   0  0  0  0  0  0  0  0  0  0  0  0
   22.6356   80.0317   11.8349 C   0  0  0  0  0  0  0  0  0  0  0  0
   22.5866   80.0745   10.3035 C   0  0  0  0  0  0  0  0  0  0  0  0
  1  2  1  0  0  0
  2  3  2  0  0  0
  2  7  1  0  0  0
  3  4  1  0  0  0
  4  5  2  0  0  0
  4 11  1  0  0  0
  5  6  1  0  0  0
  5  8  1  0  0  0
  6  7  2  0  0  0
  8  9  1  0  0  0
  9 10  2  0  0  0
  9 11  1  0  0  0
 11 12  1  0  0  0
 11 15  1  0  0  0
 12 13  1  0  0  0
 13 14  1  0  0  0
 13 21  1  0  0  0
 14 15  1  0  0  0
 14 19  1  0  0  0
 15 16  1  0  0  0
 16 17  2  0  0  0
 16 18  1  0  0  0
 18 19  1  0  0  0
 18 24  1  0  0  0
 19 20  2  0  0  0
 24 25  1  0  0  0
 25 26  1  0  0  0
 26 27  1  0  0  0
  8 22  1  0  0  0
 12 23  1  0  0  0
M  END
> <minimizedAffinity>
-7.69716

$$$$
579


 32 35  0  0  0  0  0  0  0  0999 V2000
   19.7094   82.3224   19.5141 Br  0  0  0  0  0  0  0  0  0  0  0  0
   19.8469   80.7453   18.4505 C   0  0  0  0  0  0  0  0  0  0  0  0
   20.8539   80.5483   17.5320 C   0  0  0  0  0  0  0  0  0  0  0  0
   20.9493   79.3925   16.7578 C   0  0  0  0  0  0  0  0  0  0  0  0
   20.0065   78.4064   16.9081 C   0  0  0  0  0  0  0  0  0  0  0  0
   18.9808   78.5761   17.8241 C   0  0  0  0  0  0  0  0  0  0  0  0
   18.9092   79.7462   18.5892 C   0  0  0  0  0  0  0  0  0  0  0  0
   20.2928   77.3143   16.0292 N   0  0  0  0  0  0  0  0  0  0  0  0
   21.4647   77.6304   15.2970 C   0  0  0  0  0  0  0  0  0  0  0  0
   21.9727   76.8648   14.4549 O   0  0  0  0  0  0  0  0  0  0  0  0
   21.9162   78.9487   15.7127 C   0  0  0  0  0  0  0  0  0  0  0  0
   23.2527   78.7881   16.2844 N   0  0  0  0  0  0  0  0  0  0  0  0
   23.9952   79.9382   15.8627 C   0  0  0  0  0  0  0  0  0  0  0  0
   23.5028   80.1953   14.4854 C   0  0  0  0  0  0  0  0  0  0  0  0
   22.0147   79.9712   14.6204 C   0  0  0  0  0  0  0  0  0  0  0  0
   21.5865   79.5336   13.2988 C   0  0  0  0  0  0  0  0  0  0  0  0
   20.4118   79.5310   12.8723 O   0  0  0  0  0  0  0  0  0  0  0  0
   22.7416   79.1103   12.5851 N   0  0  0  0  0  0  0  0  0  0  0  0
   23.8784   79.1718   13.4790 C   0  0  0  0  0  0  0  0  0  0  0  0
   24.8898   78.4678   13.3264 O   0  0  0  0  0  0  0  0  0  0  0  0
   19.7090   76.4347   15.9600 H   0  0  0  0  0  0  0  0  0  0  0  0
   23.7200   77.9398   15.8845 H   0  0  0  0  0  0  0  0  0  0  0  0
   22.7389   78.7017   11.2103 C   0  0  0  0  0  0  0  0  0  0  0  0
   22.5930   79.8044   10.2153 C   0  0  0  0  0  0  0  0  0  0  0  0
   21.3339   79.8619    9.6410 O   0  0  0  0  0  0  0  0  0  0  0  0
   20.8544   78.5932    9.3238 C   0  0  0  0  0  0  0  0  0  0  0  0
   25.4713   79.7846   15.9973 C   0  0  0  0  0  0  0  0  0  0  0  0
   25.7826   78.5040   16.6419 C   0  0  0  0  0  0  0  0  0  0  0  0
   26.1078   78.4816   17.8628 O   0  0  0  0  0  0  0  0  0  0  0  0
   25.7225   77.2818   15.9092 N   0  0  0  0  0  0  0  0  0  0  0  0
   25.4829   76.3920   16.3918 H   0  0  0  0  0  0  0  0  0  0  0  0
   25.9201   77.2873   14.8876 H   0  0  0  0  0  0  0  0  0  0  0  0
  1  2  1  0  0  0
  2  3  2  0  0  0
  2  7  1  0  0  0
  3  4  1  0  0  0
  4  5  2  0  0  0
  4 11  1  0  0  0
  5  6  1  0  0  0
  5  8  1  0  0  0
  6  7  2  0  0  0
  8  9  1  0  0  0
  9 10  2  0  0  0
  9 11  1  0  0  0
 11 12  1  0  0  0
 11 15  1  0  0  0
 12 13  1  0  0  0
 13 14  1  0  0  0
 13 27  1  0  0  0
 14 15  1  0  0  0
 14 19  1  0  0  0
 15 16  1  0  0  0
 16 17  2  0  0  0
 16 18  1  0  0  0
 18 19  1  0  0  0
 18 23  1  0  0  0
 19 20  2  0  0  0
 23 24  1  0  0  0
 24 25  1  0  0  0
 25 26  1  0  0  0
 27 28  1  0  0  0
 28 29  2  0  0  0
 28 30  1  0  0  0
  8 21  1  0  0  0
 12 22  1  0  0  0
 30 31  1  0  0  0
 30 32  1  0  0  0
M  END
> <minimizedAffinity>
-7.72446

$$$$
588


 24 27  0  0  0  0  0  0  0  0999 V2000
   20.5435   78.9911    9.7456 Br  0  0  0  0  0  0  0  0  0  0  0  0
   21.4377   78.8519   11.4224 C   0  0  0  0  0  0  0  0  0  0  0  0
   20.9068   78.0299   12.3736 C   0  0  0  0  0  0  0  0  0  0  0  0
   21.5356   77.9100   13.6013 C   0  0  0  0  0  0  0  0  0  0  0  0
   22.7000   78.6209   13.8652 C   0  0  0  0  0  0  0  0  0  0  0  0
   23.2492   79.4559   12.9135 C   0  0  0  0  0  0  0  0  0  0  0  0
   22.5896   79.5443   11.7083 C   0  0  0  0  0  0  0  0  0  0  0  0
   23.4267   78.5773   15.0767 N   0  0  0  0  0  0  0  0  0  0  0  0
   24.7230   78.9072   15.1163 N   0  0  0  0  0  0  0  0  0  0  0  0
   25.0915   78.7643   16.3605 N   0  0  0  0  0  0  0  0  0  0  0  0
   24.0729   78.3576   17.1007 N   0  0  0  0  0  0  0  0  0  0  0  0
   22.9920   78.2345   16.2771 C   0  0  0  0  0  0  0  0  0  0  0  0
   21.6520   77.7878   16.7938 C   0  0  0  0  0  0  0  0  0  0  0  0
   21.0312   76.8419   15.8700 N   0  0  0  0  0  0  0  0  0  0  0  0
   20.8050   76.9813   14.4723 C   0  0  0  0  0  0  0  0  0  0  0  0
   19.9163   76.2596   13.9395 O   0  0  0  0  0  0  0  0  0  0  0  0
   20.7765   79.0116   16.7924 C   0  0  0  0  0  0  0  0  0  0  0  0
   19.6252   78.8097   17.7224 C   0  0  0  0  0  0  0  0  0  0  0  0
   20.1416   78.6671   18.9832 O   0  0  0  0  0  0  0  0  0  0  0  0
   20.8934   77.5424   19.1909 C   0  0  0  0  0  0  0  0  0  0  0  0
   21.8241   77.1528   18.1247 C   0  0  0  0  0  0  0  0  0  0  0  0
   18.7596   80.0760   17.7383 C   0  0  0  0  0  0  0  0  0  0  0  0
   18.7145   77.6829   17.3146 C   0  0  0  0  0  0  0  0  0  0  0  0
   20.6955   75.9176   16.2787 H   0  0  0  0  0  0  0  0  0  0  0  0
  1  2  1  0  0  0
  2  3  2  0  0  0
  2  7  1  0  0  0
  3  4  1  0  0  0
  4  5  2  0  0  0
  4 15  1  0  0  0
  5  6  1  0  0  0
  5  8  1  0  0  0
  6  7  2  0  0  0
  8  9  1  0  0  0
  8 12  1  0  0  0
  9 10  2  0  0  0
 10 11  1  0  0  0
 11 12  2  0  0  0
 12 13  1  0  0  0
 13 14  1  0  0  0
 13 17  1  0  0  0
 13 21  1  0  0  0
 14 15  1  0  0  0
 15 16  2  0  0  0
 17 18  1  0  0  0
 18 19  1  0  0  0
 18 22  1  0  0  0
 18 23  1  0  0  0
 19 20  1  0  0  0
 20 21  1  0  0  0
 14 24  1  0  0  0
M  END
> <minimizedAffinity>
-9.74227

$$$$
591


 23 26  0  0  0  0  0  0  0  0999 V2000
   22.6115   80.7477    9.4923 Br  0  0  0  0  0  0  0  0  0  0  0  0
   22.1921   79.8721   11.1488 C   0  0  0  0  0  0  0  0  0  0  0  0
   22.5902   80.4214   12.3489 C   0  0  0  0  0  0  0  0  0  0  0  0
   22.2858   79.7885   13.5361 C   0  0  0  0  0  0  0  0  0  0  0  0
   21.5840   78.5994   13.5917 C   0  0  0  0  0  0  0  0  0  0  0  0
   21.1906   78.0583   12.3702 C   0  0  0  0  0  0  0  0  0  0  0  0
   21.4902   78.6858   11.1792 C   0  0  0  0  0  0  0  0  0  0  0  0
   21.1953   77.8302   14.7062 N   0  0  0  0  0  0  0  0  0  0  0  0
   20.7561   76.5853   14.6168 N   0  0  0  0  0  0  0  0  0  0  0  0
   20.4805   76.1663   15.8418 N   0  0  0  0  0  0  0  0  0  0  0  0
   20.7435   77.1353   16.6856 N   0  0  0  0  0  0  0  0  0  0  0  0
   21.2010   78.2122   15.9999 C   0  0  0  0  0  0  0  0  0  0  0  0
   21.5706   79.4422   16.7029 C   0  0  0  0  0  0  0  0  0  0  0  0
   22.5651   80.2539   16.0911 N   0  0  0  0  0  0  0  0  0  0  0  0
   22.7825   80.5058   14.7122 C   0  0  0  0  0  0  0  0  0  0  0  0
   23.5061   81.4844   14.3854 O   0  0  0  0  0  0  0  0  0  0  0  0
   20.3511   80.3492   16.9294 C   0  0  0  0  0  0  0  0  0  0  0  0
   20.5276   81.0793   18.2367 C   0  0  0  0  0  0  0  0  0  0  0  0
   20.2141   80.1501   19.2986 N   0  0  0  0  0  0  0  0  0  0  0  0
   20.9130   78.9146   19.0633 C   0  0  0  0  0  0  0  0  0  0  0  0
   22.0608   79.0570   18.0943 C   0  0  0  0  0  0  0  0  0  0  0  0
   18.7645   79.9590   19.3050 C   0  0  0  0  0  0  0  0  0  0  0  0
   23.2201   80.7263   16.7473 H   0  0  0  0  0  0  0  0  0  0  0  0
  1  2  1  0  0  0
  2  3  2  0  0  0
  2  7  1  0  0  0
  3  4  1  0  0  0
  4  5  2  0  0  0
  4 15  1  0  0  0
  5  6  1  0  0  0
  5  8  1  0  0  0
  6  7  2  0  0  0
  8  9  1  0  0  0
  8 12  1  0  0  0
  9 10  2  0  0  0
 10 11  1  0  0  0
 11 12  2  0  0  0
 12 13  1  0  0  0
 13 14  1  0  0  0
 13 17  1  0  0  0
 13 21  1  0  0  0
 14 15  1  0  0  0
 15 16  2  0  0  0
 17 18  1  0  0  0
 18 19  1  0  0  0
 19 20  1  0  0  0
 19 22  1  0  0  0
 20 21  1  0  0  0
 14 23  1  0  0  0
M  END
> <minimizedAffinity>
-9.51663

$$$$
592


 27 30  0  0  0  0  0  0  0  0999 V2000
   23.0070   80.8543   10.4563 Br  0  0  0  0  0  0  0  0  0  0  0  0
   22.1606   79.6090   11.6139 C   0  0  0  0  0  0  0  0  0  0  0  0
   22.4740   79.6236   12.9446 C   0  0  0  0  0  0  0  0  0  0  0  0
   21.8506   78.7057   13.7961 C   0  0  0  0  0  0  0  0  0  0  0  0
   20.9550   77.8319   13.2748 C   0  0  0  0  0  0  0  0  0  0  0  0
   20.6343   77.8198   11.9015 C   0  0  0  0  0  0  0  0  0  0  0  0
   21.2494   78.7224   11.0682 C   0  0  0  0  0  0  0  0  0  0  0  0
   20.3112   76.9052   14.0749 O   0  0  0  0  0  0  0  0  0  0  0  0
   20.5983   76.8855   15.4227 C   0  0  0  0  0  0  0  0  0  0  0  0
   21.4515   77.6989   15.9978 C   0  0  0  0  0  0  0  0  0  0  0  0
   22.1771   78.7075   15.2376 C   0  0  0  0  0  0  0  0  0  0  0  0
   23.6418   78.6532   15.4610 C   0  0  0  0  0  0  0  0  0  0  0  0
   24.0359   79.8238   16.0474 C   0  0  0  0  0  0  0  0  0  0  0  0
   25.3851   79.7701   16.2521 N   0  0  0  0  0  0  0  0  0  0  0  0
   25.7858   78.5957   15.7988 N   0  0  0  0  0  0  0  0  0  0  0  0
   24.7618   77.8846   15.3099 C   0  0  0  0  0  0  0  0  0  0  0  0
   24.8915   76.5160   14.7241 C   0  0  0  0  0  0  0  0  0  0  0  0
   22.9385   80.6888   16.2464 N   0  0  0  0  0  0  0  0  0  0  0  0
   21.7933   80.0359   15.7622 C   0  0  0  0  0  0  0  0  0  0  0  0
   20.6125   80.4756   15.7573 O   0  0  0  0  0  0  0  0  0  0  0  0
   19.9217   75.9168   16.2405 N   0  0  0  0  0  0  0  0  0  0  0  0
   26.7990   78.3058   15.8416 H   0  0  0  0  0  0  0  0  0  0  0  0
   22.9954   81.6654   16.6894 H   0  0  0  0  0  0  0  0  0  0  0  0
   19.5651   75.0377   15.8073 H   0  0  0  0  0  0  0  0  0  0  0  0
   19.7697   76.0578   17.2643 H   0  0  0  0  0  0  0  0  0  0  0  0
   21.6989   77.6166   17.4175 C   0  0  0  0  0  0  0  0  0  0  0  0
   21.8783   77.5456   18.5593 N   0  0  0  0  0  0  0  0  0  0  0  0
  1  2  1  0  0  0
  2  3  2  0  0  0
  2  7  1  0  0  0
  3  4  1  0  0  0
  4  5  2  0  0  0
  4 11  1  0  0  0
  5  6  1  0  0  0
  5  8  1  0  0  0
  6  7  2  0  0  0
  8  9  1  0  0  0
  9 10  2  0  0  0
  9 21  1  0  0  0
 10 11  1  0  0  0
 10 26  1  0  0  0
 11 12  1  0  0  0
 11 19  1  0  0  0
 12 13  1  0  0  0
 12 16  2  0  0  0
 13 14  2  0  0  0
 13 18  1  0  0  0
 14 15  1  0  0  0
 15 16  1  0  0  0
 16 17  1  0  0  0
 18 19  1  0  0  0
 19 20  2  0  0  0
 26 27  3  0  0  0
 15 22  1  0  0  0
 18 23  1  0  0  0
 21 24  1  0  0  0
 21 25  1  0  0  0
M  END
> <minimizedAffinity>
-6.83257

$$$$
596


 29 32  0  0  0  0  0  0  0  0999 V2000
   20.9065   79.9008   17.8978 C   0  0  0  0  0  0  0  0  0  0  0  0
   20.4290   78.8977   18.7260 C   0  0  0  0  0  0  0  0  0  0  0  0
   19.7117   79.2131   19.8604 C   0  0  0  0  0  0  0  0  0  0  0  0
   19.3092   78.2385   20.5709 O   0  0  0  0  0  0  0  0  0  0  0  0
   19.4692   80.4496   20.1707 O   0  0  0  0  0  0  0  0  0  0  0  0
   19.8796   81.4211   19.4500 C   0  0  0  0  0  0  0  0  0  0  0  0
   20.6198   81.1896   18.2747 C   0  0  0  0  0  0  0  0  0  0  0  0
   21.0343   82.2469   17.5184 C   0  0  0  0  0  0  0  0  0  0  0  0
   20.7033   83.5340   17.9562 C   0  0  0  0  0  0  0  0  0  0  0  0
   19.9793   83.7275   19.1157 C   0  0  0  0  0  0  0  0  0  0  0  0
   19.5431   82.6840   19.9009 C   0  0  0  0  0  0  0  0  0  0  0  0
   19.7036   85.0660   19.4701 O   0  0  0  0  0  0  0  0  0  0  0  0
   21.6233   79.2394   10.2074 Br  0  0  0  0  0  0  0  0  0  0  0  0
   22.3152   79.1704   11.9698 C   0  0  0  0  0  0  0  0  0  0  0  0
   21.5200   79.4380   13.0693 C   0  0  0  0  0  0  0  0  0  0  0  0
   21.9787   79.3884   14.3730 C   0  0  0  0  0  0  0  0  0  0  0  0
   23.3019   79.0514   14.5730 C   0  0  0  0  0  0  0  0  0  0  0  0
   24.1479   78.7732   13.5098 C   0  0  0  0  0  0  0  0  0  0  0  0
   23.6520   78.8353   12.2284 C   0  0  0  0  0  0  0  0  0  0  0  0
   23.7706   78.9966   15.8212 O   0  0  0  0  0  0  0  0  0  0  0  0
   23.0487   79.2433   16.8568 C   0  0  0  0  0  0  0  0  0  0  0  0
   23.4865   79.1911   18.0481 O   0  0  0  0  0  0  0  0  0  0  0  0
   21.7200   79.5866   16.7244 C   0  0  0  0  0  0  0  0  0  0  0  0
   21.1842   79.6593   15.4586 C   0  0  0  0  0  0  0  0  0  0  0  0
   18.8815   82.9689   21.1456 C   0  0  0  0  0  0  0  0  0  0  0  0
   19.5124   83.5461   22.2613 N   0  0  0  0  0  0  0  0  0  0  0  0
   18.6756   84.0070   23.3345 C   0  0  0  0  0  0  0  0  0  0  0  0
   20.6613   82.7360   22.7414 C   0  0  0  0  0  0  0  0  0  0  0  0
   19.9826   84.4352   21.9229 H   0  0  0  0  0  0  0  0  0  0  0  0
 13 14  1  0  0  0
 14 15  2  0  0  0
 14 19  1  0  0  0
 15 16  1  0  0  0
 16 17  2  0  0  0
 16 24  1  0  0  0
 17 18  1  0  0  0
 17 20  1  0  0  0
 18 19  2  0  0  0
 20 21  1  0  0  0
 21 22  2  0  0  0
 21 23  1  0  0  0
 23 24  2  0  0  0
 23  1  1  0  0  0
  1  2  2  0  0  0
  1  7  1  0  0  0
  2  3  1  0  0  0
  3  4  2  0  0  0
  3  5  1  0  0  0
  5  6  1  0  0  0
  6  7  2  0  0  0
  6 11  1  0  0  0
  7  8  1  0  0  0
  8  9  2  0  0  0
  9 10  1  0  0  0
 10 11  2  0  0  0
 10 12  1  0  0  0
 11 25  1  0  0  0
 25 26  1  0  0  0
 26 27  1  0  0  0
 26 28  1  0  0  0
 26 29  1  0  0  0
M  CHG 1  12  -1
M  CHG 1  26   1
M  END
> <minimizedAffinity>
-9.51249

$$$$
610


 32 35  0  0  0  0  0  0  0  0999 V2000
   17.4882   73.7982   12.8046 Br  0  0  0  0  0  0  0  0  0  0  0  0
   18.8735   75.0548   13.1825 C   0  0  0  0  0  0  0  0  0  0  0  0
   19.2931   75.9625   12.2141 C   0  0  0  0  0  0  0  0  0  0  0  0
   20.3003   76.8776   12.4882 C   0  0  0  0  0  0  0  0  0  0  0  0
   20.8968   76.8937   13.7306 C   0  0  0  0  0  0  0  0  0  0  0  0
   21.8787   77.7902   14.0017 N   0  0  0  0  0  0  0  0  0  0  0  0
   22.2988   78.6798   13.0847 C   0  0  0  0  0  0  0  0  0  0  0  0
   21.7082   78.6493   11.8840 N   0  0  0  0  0  0  0  0  0  0  0  0
   20.7305   77.7887   11.5459 C   0  0  0  0  0  0  0  0  0  0  0  0
   20.4615   75.9777   14.6796 C   0  0  0  0  0  0  0  0  0  0  0  0
   19.4634   75.0615   14.4289 C   0  0  0  0  0  0  0  0  0  0  0  0
   23.3368   79.6133   13.4085 N   0  0  0  0  0  0  0  0  0  0  0  0
   24.3528   78.9672   14.1942 C   0  0  0  0  0  0  0  0  0  0  0  0
   23.9720   78.7232   15.6148 C   0  0  0  0  0  0  0  0  0  0  0  0
   22.7883   79.4562   16.0056 N   0  0  0  0  0  0  0  0  0  0  0  0
   22.6399   80.7889   15.4632 C   0  0  0  0  0  0  0  0  0  0  0  0
   22.8462   80.8290   13.9808 C   0  0  0  0  0  0  0  0  0  0  0  0
   21.8626   78.8374   16.8799 C   0  0  0  0  0  0  0  0  0  0  0  0
   22.0586   77.6790   17.3085 O   0  0  0  0  0  0  0  0  0  0  0  0
   23.7945   79.8313   12.4732 H   0  0  0  0  0  0  0  0  0  0  0  0
   20.6603   79.6380   17.2523 C   0  0  0  0  0  0  0  0  0  0  0  0
   20.6048   79.8935   18.7281 C   0  0  0  0  0  0  0  0  0  0  0  0
   19.5068   79.1829   19.4010 C   0  0  0  0  0  0  0  0  0  0  0  0
   19.5282   77.9441   19.5554 O   0  0  0  0  0  0  0  0  0  0  0  0
   18.4273   79.8999   19.8748 O   0  0  0  0  0  0  0  0  0  0  0  0
   20.1537   77.8392   10.2121 C   0  0  0  0  0  0  0  0  0  0  0  0
   19.3584   78.9112    9.8311 C   0  0  0  0  0  0  0  0  0  0  0  0
   18.8056   79.0006    8.5715 C   0  0  0  0  0  0  0  0  0  0  0  0
   19.0241   78.0181    7.6280 C   0  0  0  0  0  0  0  0  0  0  0  0
   19.8207   76.9459    8.0109 C   0  0  0  0  0  0  0  0  0  0  0  0
   20.3687   76.8643    9.2720 C   0  0  0  0  0  0  0  0  0  0  0  0
   19.0606   80.1838   11.0177 Cl  0  0  0  0  0  0  0  0  0  0  0  0
  1  2  1  0  0  0
  2  3  2  0  0  0
  2 11  1  0  0  0
  3  4  1  0  0  0
  4  5  2  0  0  0
  4  9  1  0  0  0
  5  6  1  0  0  0
  5 10  1  0  0  0
  6  7  2  0  0  0
  7  8  1  0  0  0
  7 12  1  0  0  0
  8  9  2  0  0  0
  9 26  1  0  0  0
 26 27  2  0  0  0
 26 31  1  0  0  0
 27 28  1  0  0  0
 27 32  1  0  0  0
 28 29  2  0  0  0
 29 30  1  0  0  0
 30 31  2  0  0  0
 12 13  1  0  0  0
 12 17  1  0  0  0
 13 14  1  0  0  0
 14 15  1  0  0  0
 15 16  1  0  0  0
 15 18  1  0  0  0
 16 17  1  0  0  0
 18 19  2  0  0  0
 18 21  1  0  0  0
 21 22  1  0  0  0
 22 23  1  0  0  0
 23 24  2  0  0  0
 23 25  1  0  0  0
 10 11  2  0  0  0
 12 20  1  0  0  0
M  CHG 1  12   1
M  END
> <minimizedAffinity>
-9.79402

$$$$
611


 33 36  0  0  0  0  0  0  0  0999 V2000
   18.9844   74.9570    7.6896 Br  0  0  0  0  0  0  0  0  0  0  0  0
   19.3740   75.7316    9.3935 C   0  0  0  0  0  0  0  0  0  0  0  0
   19.1038   75.0714   10.5790 C   0  0  0  0  0  0  0  0  0  0  0  0
   19.3724   75.6022   11.8218 C   0  0  0  0  0  0  0  0  0  0  0  0
   19.9419   76.8583   11.9210 C   0  0  0  0  0  0  0  0  0  0  0  0
   20.2071   77.4026   13.1345 N   0  0  0  0  0  0  0  0  0  0  0  0
   19.9376   76.7634   14.2853 C   0  0  0  0  0  0  0  0  0  0  0  0
   19.3847   75.5408   14.1904 N   0  0  0  0  0  0  0  0  0  0  0  0
   19.1003   74.9536   13.0042 C   0  0  0  0  0  0  0  0  0  0  0  0
   20.2156   77.5231   10.7462 C   0  0  0  0  0  0  0  0  0  0  0  0
   19.9418   76.9827    9.4955 C   0  0  0  0  0  0  0  0  0  0  0  0
   20.2304   77.3657   15.5411 N   0  0  0  0  0  0  0  0  0  0  0  0
   21.5794   77.8857   15.5649 C   0  0  0  0  0  0  0  0  0  0  0  0
   21.6872   78.8760   16.6810 C   0  0  0  0  0  0  0  0  0  0  0  0
   20.5497   78.7066   17.5620 N   0  0  0  0  0  0  0  0  0  0  0  0
   20.1810   77.3479   17.9172 C   0  0  0  0  0  0  0  0  0  0  0  0
   20.0851   76.4729   16.6614 C   0  0  0  0  0  0  0  0  0  0  0  0
   19.8687   79.8453   18.0233 C   0  0  0  0  0  0  0  0  0  0  0  0
   18.8833   79.6723   18.7825 O   0  0  0  0  0  0  0  0  0  0  0  0
   19.5561   78.1488   15.6698 H   0  0  0  0  0  0  0  0  0  0  0  0
   20.2656   81.2047   17.6506 C   0  0  0  0  0  0  0  0  0  0  0  0
   19.9823   82.1483   18.7836 C   0  0  0  0  0  0  0  0  0  0  0  0
   20.7652   83.4382   18.6766 C   0  0  0  0  0  0  0  0  0  0  0  0
   19.9034   84.6331   18.5818 C   0  0  0  0  0  0  0  0  0  0  0  0
   20.1232   85.4296   17.6390 O   0  0  0  0  0  0  0  0  0  0  0  0
   18.8973   84.8406   19.5134 O   0  0  0  0  0  0  0  0  0  0  0  0
   18.4996   73.6291   12.9596 C   0  0  0  0  0  0  0  0  0  0  0  0
   19.2236   72.4861   13.2621 C   0  0  0  0  0  0  0  0  0  0  0  0
   18.6692   71.2199   13.2043 C   0  0  0  0  0  0  0  0  0  0  0  0
   17.3257   71.1203   12.8241 C   0  0  0  0  0  0  0  0  0  0  0  0
   16.5771   72.2371   12.5165 C   0  0  0  0  0  0  0  0  0  0  0  0
   17.1636   73.4605   12.5861 C   0  0  0  0  0  0  0  0  0  0  0  0
   20.9078   72.6399   13.7360 Cl  0  0  0  0  0  0  0  0  0  0  0  0
  1  2  1  0  0  0
  2  3  2  0  0  0
  2 11  1  0  0  0
  3  4  1  0  0  0
  4  5  2  0  0  0
  4  9  1  0  0  0
  5  6  1  0  0  0
  5 10  1  0  0  0
  6  7  2  0  0  0
  7  8  1  0  0  0
  7 12  1  0  0  0
  8  9  2  0  0  0
  9 27  1  0  0  0
 27 28  2  0  0  0
 27 32  1  0  0  0
 28 29  1  0  0  0
 28 33  1  0  0  0
 29 30  2  0  0  0
 30 31  1  0  0  0
 31 32  2  0  0  0
 12 13  1  0  0  0
 12 17  1  0  0  0
 13 14  1  0  0  0
 14 15  1  0  0  0
 15 16  1  0  0  0
 15 18  1  0  0  0
 16 17  1  0  0  0
 18 19  2  0  0  0
 18 21  1  0  0  0
 21 22  1  0  0  0
 22 23  1  0  0  0
 23 24  1  0  0  0
 24 25  2  0  0  0
 24 26  1  0  0  0
 10 11  2  0  0  0
 12 20  1  0  0  0
M  CHG 1  12   1
M  END
> <minimizedAffinity>
-10.86358

$$$$
616


 28 31  0  0  0  0  0  0  0  0999 V2000
   22.1771   79.5805   16.3046 C   0  0  0  0  0  0  0  0  0  0  0  0
   23.2963   80.0902   15.9163 O   0  0  0  0  0  0  0  0  0  0  0  0
   21.7627   78.4381   15.6193 N   0  0  0  0  0  0  0  0  0  0  0  0
   20.5529   77.6956   15.8490 C   0  0  0  0  0  0  0  0  0  0  0  0
   20.3953   76.5277   14.8665 C   0  0  0  0  0  0  0  0  0  0  0  0
   20.6457   77.0190   13.5203 N   0  0  0  0  0  0  0  0  0  0  0  0
   21.7727   77.9194   13.2725 C   0  0  0  0  0  0  0  0  0  0  0  0
   22.6269   77.8841   14.5429 C   0  0  0  0  0  0  0  0  0  0  0  0
   19.8169   76.6463   12.4394 C   0  0  0  0  0  0  0  0  0  0  0  0
   18.8575   75.8787   12.6917 O   0  0  0  0  0  0  0  0  0  0  0  0
   18.3564   84.6724   20.9261 Br  0  0  0  0  0  0  0  0  0  0  0  0
   19.1930   83.0869   20.2430 C   0  0  0  0  0  0  0  0  0  0  0  0
   19.7883   83.0564   19.0084 C   0  0  0  0  0  0  0  0  0  0  0  0
   20.3951   81.8970   18.5177 C   0  0  0  0  0  0  0  0  0  0  0  0
   20.4017   80.7600   19.2781 C   0  0  0  0  0  0  0  0  0  0  0  0
   21.0496   79.7775   18.5787 N   0  0  0  0  0  0  0  0  0  0  0  0
   21.4665   80.2251   17.3915 C   0  0  0  0  0  0  0  0  0  0  0  0
   21.0457   81.5786   17.3597 C   0  0  0  0  0  0  0  0  0  0  0  0
   19.8041   80.7824   20.5241 C   0  0  0  0  0  0  0  0  0  0  0  0
   19.2037   81.9380   21.0029 C   0  0  0  0  0  0  0  0  0  0  0  0
   21.1693   78.8354   18.9786 H   0  0  0  0  0  0  0  0  0  0  0  0
   20.1032   77.1595   11.1092 C   0  0  0  0  0  0  0  0  0  0  0  0
   19.1732   78.1547   10.6236 N   0  0  0  0  0  0  0  0  0  0  0  0
   18.8111   77.8326    9.2415 C   0  0  0  0  0  0  0  0  0  0  0  0
   19.6336   78.6125    8.2755 C   0  0  0  0  0  0  0  0  0  0  0  0
   20.9289   78.7854    8.7575 O   0  0  0  0  0  0  0  0  0  0  0  0
   20.9506   79.6543    9.8509 C   0  0  0  0  0  0  0  0  0  0  0  0
   19.7034   79.5051   10.6917 C   0  0  0  0  0  0  0  0  0  0  0  0
 11 12  1  0  0  0
 12 13  2  0  0  0
 12 20  1  0  0  0
 13 14  1  0  0  0
 14 15  2  0  0  0
 14 18  1  0  0  0
 15 16  1  0  0  0
 15 19  1  0  0  0
 16 17  1  0  0  0
 17 18  2  0  0  0
 17  1  1  0  0  0
  1  2  2  0  0  0
  1  3  1  0  0  0
  3  4  1  0  0  0
  3  8  1  0  0  0
  4  5  1  0  0  0
  5  6  1  0  0  0
  6  7  1  0  0  0
  6  9  1  0  0  0
  7  8  1  0  0  0
  9 10  2  0  0  0
  9 22  1  0  0  0
 22 23  1  0  0  0
 23 24  1  0  0  0
 23 28  1  0  0  0
 24 25  1  0  0  0
 25 26  1  0  0  0
 26 27  1  0  0  0
 27 28  1  0  0  0
 19 20  2  0  0  0
 16 21  1  0  0  0
M  END
> <minimizedAffinity>
-8.40243

$$$$
617


 25 28  0  0  0  0  0  0  0  0999 V2000
   18.4798   84.3121   23.3638 Br  0  0  0  0  0  0  0  0  0  0  0  0
   19.1162   83.8944   21.6206 C   0  0  0  0  0  0  0  0  0  0  0  0
   19.1977   82.5901   21.1786 C   0  0  0  0  0  0  0  0  0  0  0  0
   19.6572   82.2704   19.9172 C   0  0  0  0  0  0  0  0  0  0  0  0
   20.0442   83.3036   19.0848 C   0  0  0  0  0  0  0  0  0  0  0  0
   20.4411   82.7154   17.9421 N   0  0  0  0  0  0  0  0  0  0  0  0
   20.3197   81.3667   18.0204 C   0  0  0  0  0  0  0  0  0  0  0  0
   19.8221   81.0647   19.2701 C   0  0  0  0  0  0  0  0  0  0  0  0
   19.6159   79.7703   19.5829 N   0  0  0  0  0  0  0  0  0  0  0  0
   19.8796   78.7749   18.7151 C   0  0  0  0  0  0  0  0  0  0  0  0
   20.3631   79.0387   17.4939 N   0  0  0  0  0  0  0  0  0  0  0  0
   20.5762   80.3208   17.1629 C   0  0  0  0  0  0  0  0  0  0  0  0
   21.0297   80.5873   16.0218 O   0  0  0  0  0  0  0  0  0  0  0  0
   19.9583   84.6061   19.5405 C   0  0  0  0  0  0  0  0  0  0  0  0
   19.5006   84.9352   20.8005 C   0  0  0  0  0  0  0  0  0  0  0  0
   20.7962   83.2037   17.0992 H   0  0  0  0  0  0  0  0  0  0  0  0
   20.6558   77.9545   16.5407 C   0  0  0  0  0  0  0  0  0  0  0  0
   21.8286   77.1720   16.9912 C   0  0  0  0  0  0  0  0  0  0  0  0
   23.0331   77.3486   16.2648 N   0  0  0  0  0  0  0  0  0  0  0  0
   24.1326   77.8472   17.0160 C   0  0  0  0  0  0  0  0  0  0  0  0
   24.3142   79.3336   16.8996 C   0  0  0  0  0  0  0  0  0  0  0  0
   24.0181   79.8275   15.5719 N   0  0  0  0  0  0  0  0  0  0  0  0
   24.0160   78.7491   14.5976 C   0  0  0  0  0  0  0  0  0  0  0  0
   22.8524   77.8560   14.9519 C   0  0  0  0  0  0  0  0  0  0  0  0
   23.1203   80.3622   15.5383 H   0  0  0  0  0  0  0  0  0  0  0  0
  1  2  1  0  0  0
  2  3  2  0  0  0
  2 15  1  0  0  0
  3  4  1  0  0  0
  4  5  2  0  0  0
  4  8  1  0  0  0
  5  6  1  0  0  0
  5 14  1  0  0  0
  6  7  1  0  0  0
  7  8  2  0  0  0
  7 12  1  0  0  0
  8  9  1  0  0  0
  9 10  2  0  0  0
 10 11  1  0  0  0
 11 12  1  0  0  0
 11 17  1  0  0  0
 12 13  2  0  0  0
 17 18  1  0  0  0
 18 19  1  0  0  0
 19 20  1  0  0  0
 19 24  1  0  0  0
 20 21  1  0  0  0
 21 22  1  0  0  0
 22 23  1  0  0  0
 23 24  1  0  0  0
 14 15  2  0  0  0
  6 16  1  0  0  0
 22 25  1  0  0  0
M  END
> <minimizedAffinity>
-8.40370

$$$$
624


 22 25  0  0  0  0  0  0  0  0999 V2000
   20.0612   82.6984   19.4264 Br  0  0  0  0  0  0  0  0  0  0  0  0
   20.3516   81.1584   18.3441 C   0  0  0  0  0  0  0  0  0  0  0  0
   19.7873   79.9594   18.7258 C   0  0  0  0  0  0  0  0  0  0  0  0
   19.9826   78.8088   17.9512 C   0  0  0  0  0  0  0  0  0  0  0  0
   20.7356   78.9131   16.8265 C   0  0  0  0  0  0  0  0  0  0  0  0
   21.3191   80.0878   16.4050 C   0  0  0  0  0  0  0  0  0  0  0  0
   21.1145   81.2002   17.1796 C   0  0  0  0  0  0  0  0  0  0  0  0
   22.0547   80.0504   15.2506 C   0  0  0  0  0  0  0  0  0  0  0  0
   22.5855   81.1027   14.8590 O   0  0  0  0  0  0  0  0  0  0  0  0
   22.2260   78.8912   14.5087 C   0  0  0  0  0  0  0  0  0  0  0  0
   21.6163   77.7506   14.9850 C   0  0  0  0  0  0  0  0  0  0  0  0
   20.8780   77.7776   16.1408 N   0  0  0  0  0  0  0  0  0  0  0  0
   20.1474   76.7521   16.8515 C   0  0  0  0  0  0  0  0  0  0  0  0
   19.5407   77.4080   18.0620 C   0  0  0  0  0  0  0  0  0  0  0  0
   23.0122   78.8687   13.2799 C   0  0  0  0  0  0  0  0  0  0  0  0
   24.2613   78.9188   13.3533 O   0  0  0  0  0  0  0  0  0  0  0  0
   22.3708   78.7906   11.9994 N   0  0  0  0  0  0  0  0  0  0  0  0
   23.1267   78.7674   10.7655 C   0  0  0  0  0  0  0  0  0  0  0  0
   22.5629   79.9025    9.9013 C   0  0  0  0  0  0  0  0  0  0  0  0
   21.2002   79.7604    9.7967 O   0  0  0  0  0  0  0  0  0  0  0  0
   20.5233   79.9035   10.9896 C   0  0  0  0  0  0  0  0  0  0  0  0
   20.9267   78.7323   11.8894 C   0  0  0  0  0  0  0  0  0  0  0  0
  1  2  1  0  0  0
  2  3  2  0  0  0
  2  7  1  0  0  0
  3  4  1  0  0  0
  4  5  2  0  0  0
  4 14  1  0  0  0
  5  6  1  0  0  0
  5 12  1  0  0  0
  6  7  2  0  0  0
  6  8  1  0  0  0
  8  9  2  0  0  0
  8 10  1  0  0  0
 10 11  2  0  0  0
 10 15  1  0  0  0
 11 12  1  0  0  0
 12 13  1  0  0  0
 13 14  1  0  0  0
 15 16  2  0  0  0
 15 17  1  0  0  0
 17 18  1  0  0  0
 17 22  1  0  0  0
 18 19  1  0  0  0
 19 20  1  0  0  0
 20 21  1  0  0  0
 21 22  1  0  0  0
M  END
> <minimizedAffinity>
-8.86943

$$$$
625


 31 34  0  0  0  0  0  0  0  0999 V2000
   22.2851   80.9413   10.4164 Br  0  0  0  0  0  0  0  0  0  0  0  0
   21.6288   79.5569   11.5137 C   0  0  0  0  0  0  0  0  0  0  0  0
   21.7982   79.5864   12.8883 C   0  0  0  0  0  0  0  0  0  0  0  0
   21.3475   78.5887   13.7031 C   0  0  0  0  0  0  0  0  0  0  0  0
   21.3719   78.4774   15.0653 N   0  0  0  0  0  0  0  0  0  0  0  0
   20.7286   77.3403   15.3827 C   0  0  0  0  0  0  0  0  0  0  0  0
   20.3095   76.6945   14.1882 C   0  0  0  0  0  0  0  0  0  0  0  0
   20.7126   77.5220   13.1717 C   0  0  0  0  0  0  0  0  0  0  0  0
   20.5273   77.4694   11.7877 C   0  0  0  0  0  0  0  0  0  0  0  0
   20.9778   78.4772   10.9475 C   0  0  0  0  0  0  0  0  0  0  0  0
   20.7988   78.4582    9.5526 O   0  0  0  0  0  0  0  0  0  0  0  0
   21.1522   79.2476    8.9929 H   0  0  0  0  0  0  0  0  0  0  0  0
   19.7448   75.3467   14.0384 C   0  0  0  0  0  0  0  0  0  0  0  0
   20.4891   74.3734   14.3335 O   0  0  0  0  0  0  0  0  0  0  0  0
   18.4877   75.0583   13.6229 O   0  0  0  0  0  0  0  0  0  0  0  0
   17.9874   74.0453   12.8268 C   0  0  0  0  0  0  0  0  0  0  0  0
   18.4616   74.0830   11.3793 C   0  0  0  0  0  0  0  0  0  0  0  0
   22.2602   79.3253   15.8840 C   0  0  0  0  0  0  0  0  0  0  0  0
   23.6286   78.6066   15.8717 C   0  0  0  0  0  0  0  0  0  0  0  0
   24.6452   79.2738   16.4910 C   0  0  0  0  0  0  0  0  0  0  0  0
   25.9163   78.6769   16.5307 C   0  0  0  0  0  0  0  0  0  0  0  0
   26.1752   77.4562   15.9825 C   0  0  0  0  0  0  0  0  0  0  0  0
   25.1030   76.8118   15.3646 C   0  0  0  0  0  0  0  0  0  0  0  0
   23.8321   77.3977   15.3135 C   0  0  0  0  0  0  0  0  0  0  0  0
   20.3884   76.7972   16.6976 C   0  0  0  0  0  0  0  0  0  0  0  0
   19.7413   77.6444   17.6505 N   0  0  0  0  0  0  0  0  0  0  0  0
   19.0206   78.7792   17.4788 C   0  0  0  0  0  0  0  0  0  0  0  0
   19.2743   79.6883   18.7058 C   0  0  0  0  0  0  0  0  0  0  0  0
   19.6336   78.6322   19.7481 C   0  0  0  0  0  0  0  0  0  0  0  0
   20.5346   77.7587   18.8861 C   0  0  0  0  0  0  0  0  0  0  0  0
   18.9692   76.8596   18.0751 H   0  0  0  0  0  0  0  0  0  0  0  0
  1  2  1  0  0  0
  2  3  2  0  0  0
  2 10  1  0  0  0
  3  4  1  0  0  0
  4  5  1  0  0  0
  4  8  2  0  0  0
  5  6  1  0  0  0
  5 18  1  0  0  0
  6  7  2  0  0  0
  6 25  1  0  0  0
  7  8  1  0  0  0
  7 13  1  0  0  0
  8  9  1  0  0  0
  9 10  2  0  0  0
 10 11  1  0  0  0
 13 14  2  0  0  0
 13 15  1  0  0  0
 15 16  1  0  0  0
 16 17  1  0  0  0
 25 26  1  0  0  0
 26 27  1  0  0  0
 26 30  1  0  0  0
 27 28  1  0  0  0
 28 29  1  0  0  0
 29 30  1  0  0  0
 18 19  1  0  0  0
 19 20  2  0  0  0
 19 24  1  0  0  0
 20 21  1  0  0  0
 21 22  2  0  0  0
 22 23  1  0  0  0
 23 24  2  0  0  0
 11 12  1  0  0  0
 26 31  1  0  0  0
M  CHG 1  26   1
M  END
> <minimizedAffinity>
-9.79090

$$$$
626


 32 35  0  0  0  0  0  0  0  0999 V2000
   20.5610   78.2240   11.3947 N   0  0  0  0  0  0  0  0  0  0  0  0
   21.8937   78.6124   11.5830 C   0  0  0  0  0  0  0  0  0  0  0  0
   22.6743   78.6916   10.6005 O   0  0  0  0  0  0  0  0  0  0  0  0
   19.9728   78.2042   12.2832 H   0  0  0  0  0  0  0  0  0  0  0  0
   18.8025   80.4713   10.4864 Br  0  0  0  0  0  0  0  0  0  0  0  0
   19.0755   78.8004    9.5844 C   0  0  0  0  0  0  0  0  0  0  0  0
   18.4193   78.5716    8.3966 C   0  0  0  0  0  0  0  0  0  0  0  0
   18.5829   77.3836    7.7272 C   0  0  0  0  0  0  0  0  0  0  0  0
   18.1149   76.8443    6.5857 N   0  0  0  0  0  0  0  0  0  0  0  0
   18.6226   75.6104    6.4068 C   0  0  0  0  0  0  0  0  0  0  0  0
   19.4189   75.3996    7.4695 N   0  0  0  0  0  0  0  0  0  0  0  0
   19.4177   76.4647    8.2971 C   0  0  0  0  0  0  0  0  0  0  0  0
   20.0891   76.6933    9.5068 C   0  0  0  0  0  0  0  0  0  0  0  0
   19.9270   77.8830   10.1797 C   0  0  0  0  0  0  0  0  0  0  0  0
   18.3639   74.7404    5.3293 O   0  0  0  0  0  0  0  0  0  0  0  0
   19.9778   74.5188    7.6448 H   0  0  0  0  0  0  0  0  0  0  0  0
   19.0308   74.8030    4.5487 H   0  0  0  0  0  0  0  0  0  0  0  0
   22.4717   78.9484   12.8887 C   0  0  0  0  0  0  0  0  0  0  0  0
   21.7264   78.6455   14.0446 N   0  0  0  0  0  0  0  0  0  0  0  0
   21.7450   77.3121   14.5266 C   0  0  0  0  0  0  0  0  0  0  0  0
   20.5709   77.0193   15.4613 C   0  0  0  0  0  0  0  0  0  0  0  0
   20.5761   77.9824   16.4778 N   0  0  0  0  0  0  0  0  0  0  0  0
   21.4864   79.0565   16.3922 C   0  0  0  0  0  0  0  0  0  0  0  0
   21.6797   79.6661   15.0362 C   0  0  0  0  0  0  0  0  0  0  0  0
   19.4139   78.1017   17.2356 C   0  0  0  0  0  0  0  0  0  0  0  0
   19.4648   78.8609   18.4855 C   0  0  0  0  0  0  0  0  0  0  0  0
   19.8892   78.1996   19.5112 O   0  0  0  0  0  0  0  0  0  0  0  0
   19.1176   80.1903   18.6979 N   0  0  0  0  0  0  0  0  0  0  0  0
   18.7783   80.7784   17.9098 H   0  0  0  0  0  0  0  0  0  0  0  0
   19.2116   80.8450   19.9994 C   0  0  0  0  0  0  0  0  0  0  0  0
   20.4373   81.5522   20.4032 C   0  0  0  0  0  0  0  0  0  0  0  0
   19.2090   82.3585   20.0247 C   0  0  0  0  0  0  0  0  0  0  0  0
  5  6  1  0  0  0
  6  7  2  0  0  0
  6 14  1  0  0  0
  7  8  1  0  0  0
  8  9  1  0  0  0
  8 12  2  0  0  0
  9 10  2  0  0  0
 10 11  1  0  0  0
 10 15  1  0  0  0
 11 12  1  0  0  0
 12 13  1  0  0  0
 13 14  2  0  0  0
 14  1  1  0  0  0
  1  2  1  0  0  0
  2  3  2  0  0  0
  2 18  1  0  0  0
 18 19  1  0  0  0
 19 20  1  0  0  0
 19 24  1  0  0  0
 20 21  1  0  0  0
 21 22  1  0  0  0
 22 23  1  0  0  0
 22 25  1  0  0  0
 23 24  1  0  0  0
 25 26  1  0  0  0
 26 27  2  0  0  0
 26 28  1  0  0  0
 28 30  1  0  0  0
 30 31  1  0  0  0
 30 32  1  0  0  0
 31 32  1  0  0  0
 11 16  1  0  0  0
  1  4  1  0  0  0
 28 29  1  0  0  0
 15 17  1  0  0  0
M  END
> <minimizedAffinity>
-9.17827

$$$$
631


 29 32  0  0  0  0  0  0  0  0999 V2000
   21.4803   78.5477   16.8493 N   0  0  0  0  0  0  0  0  0  0  0  0
   21.0013   79.7781   17.5170 C   0  0  0  0  0  0  0  0  0  0  0  0
   20.6318   79.2885   18.9081 C   0  0  0  0  0  0  0  0  0  0  0  0
   20.1466   77.8781   18.6484 C   0  0  0  0  0  0  0  0  0  0  0  0
   20.6460   77.4854   17.3056 C   0  0  0  0  0  0  0  0  0  0  0  0
   20.3963   76.4433   16.6847 O   0  0  0  0  0  0  0  0  0  0  0  0
   23.0486   79.0596    9.9730 Br  0  0  0  0  0  0  0  0  0  0  0  0
   22.8643   78.9060   11.8733 C   0  0  0  0  0  0  0  0  0  0  0  0
   23.9832   78.7707   12.6926 C   0  0  0  0  0  0  0  0  0  0  0  0
   23.7686   78.6649   14.0474 C   0  0  0  0  0  0  0  0  0  0  0  0
   24.5996   78.5244   15.0952 N   0  0  0  0  0  0  0  0  0  0  0  0
   23.8937   78.4665   16.2209 N   0  0  0  0  0  0  0  0  0  0  0  0
   22.5800   78.5657   15.9721 C   0  0  0  0  0  0  0  0  0  0  0  0
   22.5051   78.6932   14.5711 C   0  0  0  0  0  0  0  0  0  0  0  0
   21.4010   78.8263   13.7770 C   0  0  0  0  0  0  0  0  0  0  0  0
   21.5895   78.9325   12.4214 C   0  0  0  0  0  0  0  0  0  0  0  0
   24.3375   78.3580   17.1535 H   0  0  0  0  0  0  0  0  0  0  0  0
   19.5924   80.2139   19.3867 C   0  0  0  0  0  0  0  0  0  0  0  0
   18.4988   79.7901   19.8275 O   0  0  0  0  0  0  0  0  0  0  0  0
   19.8631   81.6082   19.3369 N   0  0  0  0  0  0  0  0  0  0  0  0
   20.7793   81.9157   18.9562 H   0  0  0  0  0  0  0  0  0  0  0  0
   18.9007   82.5862   19.7947 C   0  0  0  0  0  0  0  0  0  0  0  0
   19.5421   83.7172   20.5702 C   0  0  0  0  0  0  0  0  0  0  0  0
   20.0635   83.2364   21.8645 C   0  0  0  0  0  0  0  0  0  0  0  0
   21.1380   82.4406   21.9880 N   0  0  0  0  0  0  0  0  0  0  0  0
   21.3684   82.1786   23.2750 C   0  0  0  0  0  0  0  0  0  0  0  0
   20.4164   82.8226   24.0030 N   0  0  0  0  0  0  0  0  0  0  0  0
   19.6287   83.4631   23.1338 C   0  0  0  0  0  0  0  0  0  0  0  0
   20.3797   82.7718   25.0463 H   0  0  0  0  0  0  0  0  0  0  0  0
  7  8  1  0  0  0
  8  9  2  0  0  0
  8 16  1  0  0  0
  9 10  1  0  0  0
 10 11  2  0  0  0
 10 14  1  0  0  0
 11 12  1  0  0  0
 12 13  1  0  0  0
 13 14  2  0  0  0
 13  1  1  0  0  0
 14 15  1  0  0  0
 15 16  2  0  0  0
  1  2  1  0  0  0
  1  5  1  0  0  0
  2  3  1  0  0  0
  3  4  1  0  0  0
  3 18  1  0  0  0
  4  5  1  0  0  0
  5  6  2  0  0  0
 18 19  2  0  0  0
 18 20  1  0  0  0
 20 22  1  0  0  0
 22 23  1  0  0  0
 23 24  1  0  0  0
 24 25  1  0  0  0
 24 28  2  0  0  0
 25 26  2  0  0  0
 26 27  1  0  0  0
 27 28  1  0  0  0
 12 17  1  0  0  0
 20 21  1  0  0  0
 27 29  1  0  0  0
M  END
> <minimizedAffinity>
-9.05065

$$$$
648


 32 35  0  0  0  0  0  0  0  0999 V2000
   21.5553   80.5738   17.2599 C   0  0  0  0  0  0  0  0  0  0  0  0
   21.5998   81.4900   16.3618 O   0  0  0  0  0  0  0  0  0  0  0  0
   22.2264   79.4064   17.0096 N   0  0  0  0  0  0  0  0  0  0  0  0
   22.2814   78.2695   17.8752 C   0  0  0  0  0  0  0  0  0  0  0  0
   21.4601   77.1728   17.2806 C   0  0  0  0  0  0  0  0  0  0  0  0
   21.3888   77.2846   15.8309 N   0  0  0  0  0  0  0  0  0  0  0  0
   22.3445   77.9981   15.0510 C   0  0  0  0  0  0  0  0  0  0  0  0
   22.9748   79.1969   15.7531 C   0  0  0  0  0  0  0  0  0  0  0  0
   20.2275   76.6585   15.2640 C   0  0  0  0  0  0  0  0  0  0  0  0
   19.3629   76.1641   16.1018 O   0  0  0  0  0  0  0  0  0  0  0  0
   18.5231   79.1439   17.7522 Br  0  0  0  0  0  0  0  0  0  0  0  0
   19.5321   80.4030   18.7995 C   0  0  0  0  0  0  0  0  0  0  0  0
   19.1665   80.9640   19.9929 C   0  0  0  0  0  0  0  0  0  0  0  0
   20.1596   81.7776   20.3662 N   0  0  0  0  0  0  0  0  0  0  0  0
   21.1040   81.7391   19.4642 N   0  0  0  0  0  0  0  0  0  0  0  0
   20.7906   80.8947   18.4381 C   0  0  0  0  0  0  0  0  0  0  0  0
   20.0981   82.5496   21.6013 C   0  0  0  0  0  0  0  0  0  0  0  0
   21.3187   82.3733   22.4644 C   0  0  0  0  0  0  0  0  0  0  0  0
   19.9600   76.5452   13.8725 C   0  0  0  0  0  0  0  0  0  0  0  0
   19.6030   75.3487   13.2641 N   0  0  0  0  0  0  0  0  0  0  0  0
   19.4814   75.5250   11.9890 N   0  0  0  0  0  0  0  0  0  0  0  0
   19.7334   76.7854   11.6483 C   0  0  0  0  0  0  0  0  0  0  0  0
   20.0409   77.4359   12.8604 C   0  0  0  0  0  0  0  0  0  0  0  0
   19.3923   74.0922   13.9433 C   0  0  0  0  0  0  0  0  0  0  0  0
   19.6925   77.4178   10.3421 C   0  0  0  0  0  0  0  0  0  0  0  0
   19.5773   78.6952   10.3321 O   0  0  0  0  0  0  0  0  0  0  0  0
   19.7652   76.7589    9.1247 N   0  0  0  0  0  0  0  0  0  0  0  0
   19.7320   77.5662    7.9010 C   0  0  0  0  0  0  0  0  0  0  0  0
   18.6235   76.9807    7.0514 C   0  0  0  0  0  0  0  0  0  0  0  0
   19.0697   75.6957    6.6919 O   0  0  0  0  0  0  0  0  0  0  0  0
   19.0261   74.8660    7.7776 C   0  0  0  0  0  0  0  0  0  0  0  0
   19.8500   75.3406    8.9676 C   0  0  0  0  0  0  0  0  0  0  0  0
 11 12  1  0  0  0
 12 13  2  0  0  0
 12 16  1  0  0  0
 13 14  1  0  0  0
 14 15  1  0  0  0
 14 17  1  0  0  0
 15 16  2  0  0  0
 16  1  1  0  0  0
  1  2  2  0  0  0
  1  3  1  0  0  0
  3  4  1  0  0  0
  3  8  1  0  0  0
  4  5  1  0  0  0
  5  6  1  0  0  0
  6  7  1  0  0  0
  6  9  1  0  0  0
  7  8  1  0  0  0
  9 10  2  0  0  0
  9 19  1  0  0  0
 19 20  1  0  0  0
 19 23  2  0  0  0
 20 21  1  0  0  0
 20 24  1  0  0  0
 21 22  2  0  0  0
 22 23  1  0  0  0
 22 25  1  0  0  0
 25 26  2  0  0  0
 25 27  1  0  0  0
 27 28  1  0  0  0
 27 32  1  0  0  0
 28 29  1  0  0  0
 29 30  1  0  0  0
 30 31  1  0  0  0
 31 32  1  0  0  0
 17 18  1  0  0  0
M  END
> <minimizedAffinity>
-7.93913

$$$$
653


 29 32  0  0  0  0  0  0  0  0999 V2000
   21.3042   77.5658   13.8812 C   0  0  0  0  0  0  0  0  0  0  0  0
   20.3450   76.5995   13.7150 C   0  0  0  0  0  0  0  0  0  0  0  0
   19.6821   76.4457   12.5112 C   0  0  0  0  0  0  0  0  0  0  0  0
   19.9643   77.2616   11.4381 C   0  0  0  0  0  0  0  0  0  0  0  0
   20.9460   78.2587   11.5950 C   0  0  0  0  0  0  0  0  0  0  0  0
   21.6028   78.4099   12.7875 C   0  0  0  0  0  0  0  0  0  0  0  0
   22.6293   79.4445   12.9350 C   0  0  0  0  0  0  0  0  0  0  0  0
   22.5975   80.5794   11.9908 C   0  0  0  0  0  0  0  0  0  0  0  0
   22.1442   80.2222   10.6525 N   0  0  0  0  0  0  0  0  0  0  0  0
   21.2046   79.1694   10.4846 C   0  0  0  0  0  0  0  0  0  0  0  0
   20.6104   79.0451    9.3712 O   0  0  0  0  0  0  0  0  0  0  0  0
   22.6793   80.9949    9.5550 C   0  0  0  0  0  0  0  0  0  0  0  0
   18.7986   75.3978   12.6806 O   0  0  0  0  0  0  0  0  0  0  0  0
   19.0164   74.7630   13.9152 C   0  0  0  0  0  0  0  0  0  0  0  0
   19.8697   75.6433   14.6419 O   0  0  0  0  0  0  0  0  0  0  0  0
   19.3234   77.1362   10.2187 O   0  0  0  0  0  0  0  0  0  0  0  0
   19.3781   75.9314    9.4836 C   0  0  0  0  0  0  0  0  0  0  0  0
   21.9987   77.7830   15.1681 C   0  0  0  0  0  0  0  0  0  0  0  0
   21.3439   77.8483   17.6402 C   0  0  0  0  0  0  0  0  0  0  0  0
   22.4998   77.5510   18.0831 O   0  0  0  0  0  0  0  0  0  0  0  0
   21.0938   77.9587   16.2896 N   0  0  0  0  0  0  0  0  0  0  0  0
   20.1019   78.2156   15.9854 H   0  0  0  0  0  0  0  0  0  0  0  0
   20.2663   78.0720   18.6412 C   0  0  0  0  0  0  0  0  0  0  0  0
   19.1583   82.9974   20.6571 Br  0  0  0  0  0  0  0  0  0  0  0  0
   19.6896   81.5428   19.5402 C   0  0  0  0  0  0  0  0  0  0  0  0
   19.6633   80.1999   19.8382 C   0  0  0  0  0  0  0  0  0  0  0  0
   20.1140   79.5330   18.7806 N   0  0  0  0  0  0  0  0  0  0  0  0
   20.4157   80.4273   17.8426 N   0  0  0  0  0  0  0  0  0  0  0  0
   20.1725   81.6791   18.2591 C   0  0  0  0  0  0  0  0  0  0  0  0
 24 25  1  0  0  0
 25 26  2  0  0  0
 25 29  1  0  0  0
 26 27  1  0  0  0
 27 28  1  0  0  0
 27 23  1  0  0  0
 28 29  2  0  0  0
 23 19  1  0  0  0
 19 20  2  0  0  0
 19 21  1  0  0  0
 21 18  1  0  0  0
 18  1  1  0  0  0
  1  2  2  0  0  0
  1  6  1  0  0  0
  2  3  1  0  0  0
  2 15  1  0  0  0
  3  4  2  0  0  0
  3 13  1  0  0  0
  4  5  1  0  0  0
  4 16  1  0  0  0
  5  6  2  0  0  0
  5 10  1  0  0  0
  6  7  1  0  0  0
  7  8  1  0  0  0
  8  9  1  0  0  0
  9 10  1  0  0  0
  9 12  1  0  0  0
 10 11  2  0  0  0
 16 17  1  0  0  0
 13 14  1  0  0  0
 14 15  1  0  0  0
 21 22  1  0  0  0
M  END
> <minimizedAffinity>
-8.81591

$$$$
662


 25 29  0  0  0  0  0  0  0  0999 V2000
   19.9742   75.9440   14.0922 C   0  0  0  0  0  0  0  0  0  0  0  0
   19.7265   76.2593   12.8110 N   0  0  0  0  0  0  0  0  0  0  0  0
   19.1302   75.2395   12.1935 N   0  0  0  0  0  0  0  0  0  0  0  0
   18.9892   74.2362   13.1067 C   0  0  0  0  0  0  0  0  0  0  0  0
   19.5139   74.6935   14.2600 N   0  0  0  0  0  0  0  0  0  0  0  0
   18.3917   73.0613   12.7020 C   0  0  0  0  0  0  0  0  0  0  0  0
   17.9325   72.8637   11.4119 C   0  0  0  0  0  0  0  0  0  0  0  0
   17.4030   71.6324   11.3162 N   0  0  0  0  0  0  0  0  0  0  0  0
   17.5202   71.0641   12.5056 N   0  0  0  0  0  0  0  0  0  0  0  0
   18.1178   71.9025   13.3779 C   0  0  0  0  0  0  0  0  0  0  0  0
   18.0931   73.8789   10.5482 N   0  0  0  0  0  0  0  0  0  0  0  0
   18.6750   75.0219   10.9465 C   0  0  0  0  0  0  0  0  0  0  0  0
   16.9742   71.1833   10.4791 H   0  0  0  0  0  0  0  0  0  0  0  0
   21.2531   77.6747   17.0010 N   0  0  0  0  0  0  0  0  0  0  0  0
   20.5383   76.7235   16.4261 N   0  0  0  0  0  0  0  0  0  0  0  0
   20.6151   76.8029   15.0867 C   0  0  0  0  0  0  0  0  0  0  0  0
   21.4359   77.8806   14.8297 C   0  0  0  0  0  0  0  0  0  0  0  0
   21.8338   78.4229   16.0475 C   0  0  0  0  0  0  0  0  0  0  0  0
   21.3886   77.8762   18.4460 C   0  0  0  0  0  0  0  0  0  0  0  0
   19.6815   82.8133   19.7736 Br  0  0  0  0  0  0  0  0  0  0  0  0
   19.7852   80.9490   19.4728 C   0  0  0  0  0  0  0  0  0  0  0  0
   20.8675   80.2535   18.9728 C   0  0  0  0  0  0  0  0  0  0  0  0
   20.5392   78.9523   18.9124 N   0  0  0  0  0  0  0  0  0  0  0  0
   19.3014   78.8136   19.3523 N   0  0  0  0  0  0  0  0  0  0  0  0
   18.7990   80.0177   19.7091 C   0  0  0  0  0  0  0  0  0  0  0  0
 20 21  1  0  0  0
 21 22  2  0  0  0
 21 25  1  0  0  0
 22 23  1  0  0  0
 23 24  1  0  0  0
 23 19  1  0  0  0
 24 25  2  0  0  0
 19 14  1  0  0  0
 14 15  1  0  0  0
 14 18  1  0  0  0
 15 16  2  0  0  0
 16 17  1  0  0  0
 16  1  1  0  0  0
 17 18  2  0  0  0
  1  2  2  0  0  0
  1  5  1  0  0  0
  2  3  1  0  0  0
  3  4  1  0  0  0
  3 12  1  0  0  0
  4  5  2  0  0  0
  4  6  1  0  0  0
  6  7  2  0  0  0
  6 10  1  0  0  0
  7  8  1  0  0  0
  7 11  1  0  0  0
  8  9  1  0  0  0
  9 10  2  0  0  0
 11 12  2  0  0  0
  8 13  1  0  0  0
M  END
> <minimizedAffinity>
-9.27190

$$$$
663


 28 31  0  0  0  0  0  0  0  0999 V2000
   23.0088   78.2374   14.6912 C   0  0  0  0  0  0  0  0  0  0  0  0
   23.7045   77.1637   14.8920 O   0  0  0  0  0  0  0  0  0  0  0  0
   23.0124   79.1570   15.7261 N   0  0  0  0  0  0  0  0  0  0  0  0
   22.4151   80.4597   15.8447 C   0  0  0  0  0  0  0  0  0  0  0  0
   21.1436   80.2948   16.6545 C   0  0  0  0  0  0  0  0  0  0  0  0
   21.3474   79.2730   17.7549 C   0  0  0  0  0  0  0  0  0  0  0  0
   20.6436   79.7564   18.9226 N   0  0  0  0  0  0  0  0  0  0  0  0
   19.2887   79.3459   18.8161 C   0  0  0  0  0  0  0  0  0  0  0  0
   18.2726   79.8297   19.4130 O   0  0  0  0  0  0  0  0  0  0  0  0
   19.2634   78.2510   17.8867 N   0  0  0  0  0  0  0  0  0  0  0  0
   20.6209   78.0264   17.4497 C   0  0  0  0  0  0  0  0  0  0  0  0
   21.0255   76.9652   16.9281 O   0  0  0  0  0  0  0  0  0  0  0  0
   22.7825   79.0664   18.1184 C   0  0  0  0  0  0  0  0  0  0  0  0
   23.7065   78.7562   16.9900 C   0  0  0  0  0  0  0  0  0  0  0  0
   21.0194   80.3074   19.7186 H   0  0  0  0  0  0  0  0  0  0  0  0
   18.4493   77.6897   17.5541 H   0  0  0  0  0  0  0  0  0  0  0  0
   20.8513   78.3458   10.9718 C   0  0  0  0  0  0  0  0  0  0  0  0
   20.3818   77.6943   12.0859 C   0  0  0  0  0  0  0  0  0  0  0  0
   21.0899   77.6601   13.2574 C   0  0  0  0  0  0  0  0  0  0  0  0
   22.3452   78.2847   13.4082 C   0  0  0  0  0  0  0  0  0  0  0  0
   22.8033   78.9346   12.2862 C   0  0  0  0  0  0  0  0  0  0  0  0
   22.0679   78.9613   11.0907 C   0  0  0  0  0  0  0  0  0  0  0  0
   16.8039   79.0373    7.4235 Br  0  0  0  0  0  0  0  0  0  0  0  0
   18.4885   78.6176    8.2561 C   0  0  0  0  0  0  0  0  0  0  0  0
   18.8265   78.7710    9.5828 C   0  0  0  0  0  0  0  0  0  0  0  0
   20.0951   78.3648    9.7700 N   0  0  0  0  0  0  0  0  0  0  0  0
   20.5389   77.9681    8.5962 N   0  0  0  0  0  0  0  0  0  0  0  0
   19.6114   78.0995    7.6501 C   0  0  0  0  0  0  0  0  0  0  0  0
 23 24  1  0  0  0
 24 25  2  0  0  0
 24 28  1  0  0  0
 25 26  1  0  0  0
 26 27  1  0  0  0
 26 17  1  0  0  0
 27 28  2  0  0  0
 17 18  2  0  0  0
 17 22  1  0  0  0
 18 19  1  0  0  0
 19 20  2  0  0  0
 20 21  1  0  0  0
 20  1  1  0  0  0
 21 22  2  0  0  0
  1  2  2  0  0  0
  1  3  1  0  0  0
  3  4  1  0  0  0
  3 14  1  0  0  0
  4  5  1  0  0  0
  5  6  1  0  0  0
  6  7  1  0  0  0
  6 11  1  0  0  0
  6 13  1  0  0  0
  7  8  1  0  0  0
  8  9  2  0  0  0
  8 10  1  0  0  0
 10 11  1  0  0  0
 11 12  2  0  0  0
 13 14  1  0  0  0
  7 15  1  0  0  0
 10 16  1  0  0  0
M  END
> <minimizedAffinity>
-9.78660

$$$$
666


 28 31  0  0  0  0  0  0  0  0999 V2000
   21.2093   77.1940   14.0996 C   0  0  0  0  0  0  0  0  0  0  0  0
   22.1863   78.0148   13.8493 C   0  0  0  0  0  0  0  0  0  0  0  0
   21.9880   78.4955   12.4808 C   0  0  0  0  0  0  0  0  0  0  0  0
   22.7627   79.3182   11.9003 O   0  0  0  0  0  0  0  0  0  0  0  0
   20.8136   77.9146   11.8956 N   0  0  0  0  0  0  0  0  0  0  0  0
   20.3041   77.0752   12.9311 C   0  0  0  0  0  0  0  0  0  0  0  0
   19.2689   76.3614   12.8620 O   0  0  0  0  0  0  0  0  0  0  0  0
   20.3007   78.1272   10.5901 C   0  0  0  0  0  0  0  0  0  0  0  0
   20.8503   77.5722    9.4629 C   0  0  0  0  0  0  0  0  0  0  0  0
   20.3028   77.7921    8.1817 C   0  0  0  0  0  0  0  0  0  0  0  0
   19.1856   78.5809    8.0273 C   0  0  0  0  0  0  0  0  0  0  0  0
   18.6320   79.1381    9.1516 C   0  0  0  0  0  0  0  0  0  0  0  0
   19.1872   78.9099   10.4115 C   0  0  0  0  0  0  0  0  0  0  0  0
   23.2590   78.4123   14.7057 N   0  0  0  0  0  0  0  0  0  0  0  0
   24.3411   77.6237   14.8363 C   0  0  0  0  0  0  0  0  0  0  0  0
   25.4099   77.9809   15.6766 C   0  0  0  0  0  0  0  0  0  0  0  0
   25.3586   79.1639   16.3899 C   0  0  0  0  0  0  0  0  0  0  0  0
   24.2398   79.9548   16.2391 C   0  0  0  0  0  0  0  0  0  0  0  0
   23.2200   79.5704   15.4088 C   0  0  0  0  0  0  0  0  0  0  0  0
   20.9423   76.4621   15.2807 N   0  0  0  0  0  0  0  0  0  0  0  0
   21.0015   75.4442   15.2893 H   0  0  0  0  0  0  0  0  0  0  0  0
   19.3428   79.6597   20.2519 Br  0  0  0  0  0  0  0  0  0  0  0  0
   19.8426   78.6496   18.7078 C   0  0  0  0  0  0  0  0  0  0  0  0
   19.0171   78.5257   17.6216 C   0  0  0  0  0  0  0  0  0  0  0  0
   19.3918   77.8195   16.5490 N   0  0  0  0  0  0  0  0  0  0  0  0
   20.5887   77.1820   16.4455 C   0  0  0  0  0  0  0  0  0  0  0  0
   21.4243   77.3125   17.5615 C   0  0  0  0  0  0  0  0  0  0  0  0
   21.0699   78.0290   18.6722 C   0  0  0  0  0  0  0  0  0  0  0  0
 22 23  1  0  0  0
 23 24  2  0  0  0
 23 28  1  0  0  0
 24 25  1  0  0  0
 25 26  2  0  0  0
 26 27  1  0  0  0
 26 20  1  0  0  0
 27 28  2  0  0  0
 20  1  1  0  0  0
  1  2  2  0  0  0
  1  6  1  0  0  0
  2  3  1  0  0  0
  2 14  1  0  0  0
  3  4  2  0  0  0
  3  5  1  0  0  0
  5  6  1  0  0  0
  5  8  1  0  0  0
  6  7  2  0  0  0
  8  9  2  0  0  0
  8 13  1  0  0  0
  9 10  1  0  0  0
 10 11  2  0  0  0
 11 12  1  0  0  0
 12 13  2  0  0  0
 14 15  2  0  0  0
 14 19  1  0  0  0
 15 16  1  0  0  0
 16 17  2  0  0  0
 17 18  1  0  0  0
 18 19  2  0  0  0
 20 21  1  0  0  0
M  END
> <minimizedAffinity>
-9.53553

$$$$
670


 23 26  0  0  0  0  0  0  0  0999 V2000
   22.3909   78.4875   17.0902 C   0  0  0  0  0  0  0  0  0  0  0  0
   21.3803   78.9138   18.0220 N   0  0  0  0  0  0  0  0  0  0  0  0
   21.1412   80.2721   18.2302 N   0  0  0  0  0  0  0  0  0  0  0  0
   20.1546   80.7410   19.1391 C   0  0  0  0  0  0  0  0  0  0  0  0
   19.9691   82.0373   19.2983 C   0  0  0  0  0  0  0  0  0  0  0  0
   20.2115   83.4740   19.0594 C   0  0  0  0  0  0  0  0  0  0  0  0
   19.1794   83.1118   20.0182 C   0  0  0  0  0  0  0  0  0  0  0  0
   19.3498   79.8005   19.8938 C   0  0  0  0  0  0  0  0  0  0  0  0
   19.5597   78.5066   19.7127 C   0  0  0  0  0  0  0  0  0  0  0  0
   20.5820   78.0089   18.7696 C   0  0  0  0  0  0  0  0  0  0  0  0
   20.7619   76.7718   18.6157 O   0  0  0  0  0  0  0  0  0  0  0  0
   21.7349   80.9540   17.6739 H   0  0  0  0  0  0  0  0  0  0  0  0
   21.9228   78.4264   13.7596 N   0  0  0  0  0  0  0  0  0  0  0  0
   21.9556   79.4476   14.7664 C   0  0  0  0  0  0  0  0  0  0  0  0
   21.7422   78.3166   15.7528 C   0  0  0  0  0  0  0  0  0  0  0  0
   22.5858   77.5850   14.7148 C   0  0  0  0  0  0  0  0  0  0  0  0
   19.9147   77.9768    8.0255 Br  0  0  0  0  0  0  0  0  0  0  0  0
   20.5570   78.1239    9.8215 C   0  0  0  0  0  0  0  0  0  0  0  0
   19.7924   77.6781   10.8757 C   0  0  0  0  0  0  0  0  0  0  0  0
   20.2567   77.7894   12.1130 N   0  0  0  0  0  0  0  0  0  0  0  0
   21.4539   78.3183   12.4460 C   0  0  0  0  0  0  0  0  0  0  0  0
   22.2070   78.7596   11.3953 N   0  0  0  0  0  0  0  0  0  0  0  0
   21.7862   78.6712   10.1209 C   0  0  0  0  0  0  0  0  0  0  0  0
 17 18  1  0  0  0
 18 19  2  0  0  0
 18 23  1  0  0  0
 19 20  1  0  0  0
 20 21  2  0  0  0
 21 22  1  0  0  0
 21 13  1  0  0  0
 22 23  2  0  0  0
 13 14  1  0  0  0
 13 16  1  0  0  0
 14 15  1  0  0  0
 15 16  1  0  0  0
 15  1  1  0  0  0
  1  2  1  0  0  0
  2  3  1  0  0  0
  2 10  1  0  0  0
  3  4  1  0  0  0
  4  5  2  0  0  0
  4  8  1  0  0  0
  5  6  1  0  0  0
  5  7  1  0  0  0
  6  7  1  0  0  0
  8  9  2  0  0  0
  9 10  1  0  0  0
 10 11  2  0  0  0
  3 12  1  0  0  0
M  END
> <minimizedAffinity>
-8.78001

$$$$
677


 29 32  0  0  0  0  0  0  0  0999 V2000
   21.0578   77.5336   13.8786 C   0  0  0  0  0  0  0  0  0  0  0  0
   21.4113   78.5091   12.8797 C   0  0  0  0  0  0  0  0  0  0  0  0
   20.9568   78.3744   11.6193 C   0  0  0  0  0  0  0  0  0  0  0  0
   20.1362   77.2916   11.2541 C   0  0  0  0  0  0  0  0  0  0  0  0
   19.7910   76.3507   12.1936 C   0  0  0  0  0  0  0  0  0  0  0  0
   20.2612   76.4792   13.5104 C   0  0  0  0  0  0  0  0  0  0  0  0
   19.9765   75.4222   14.5146 C   0  0  0  0  0  0  0  0  0  0  0  0
   19.5430   74.0956   13.8999 C   0  0  0  0  0  0  0  0  0  0  0  0
   18.5455   74.2833   12.8727 N   0  0  0  0  0  0  0  0  0  0  0  0
   18.9142   75.2319   11.8618 C   0  0  0  0  0  0  0  0  0  0  0  0
   18.4474   75.0382   10.7204 O   0  0  0  0  0  0  0  0  0  0  0  0
   17.2835   73.5753   12.8665 C   0  0  0  0  0  0  0  0  0  0  0  0
   19.7224   77.2288    9.9758 O   0  0  0  0  0  0  0  0  0  0  0  0
   21.4579   79.4577   10.8811 O   0  0  0  0  0  0  0  0  0  0  0  0
   22.0249   80.4118   11.7537 C   0  0  0  0  0  0  0  0  0  0  0  0
   22.1922   79.6669   12.9439 O   0  0  0  0  0  0  0  0  0  0  0  0
   19.1696   76.5926    9.5129 H   0  0  0  0  0  0  0  0  0  0  0  0
   21.6327   77.8645   15.1650 C   0  0  0  0  0  0  0  0  0  0  0  0
   20.4727   78.6681   17.1457 C   0  0  0  0  0  0  0  0  0  0  0  0
   20.1552   77.4871   17.3651 O   0  0  0  0  0  0  0  0  0  0  0  0
   21.2905   78.9667   15.9521 N   0  0  0  0  0  0  0  0  0  0  0  0
   21.5217   79.9694   15.8993 H   0  0  0  0  0  0  0  0  0  0  0  0
   20.4796   83.7958   18.6083 Br  0  0  0  0  0  0  0  0  0  0  0  0
   19.9631   81.9672   18.8001 C   0  0  0  0  0  0  0  0  0  0  0  0
   19.1471   81.5826   19.8164 C   0  0  0  0  0  0  0  0  0  0  0  0
   18.7785   80.3108   19.9627 N   0  0  0  0  0  0  0  0  0  0  0  0
   19.2171   79.3878   19.0945 C   0  0  0  0  0  0  0  0  0  0  0  0
   20.0535   79.7244   18.0360 C   0  0  0  0  0  0  0  0  0  0  0  0
   20.4385   81.0361   17.8779 C   0  0  0  0  0  0  0  0  0  0  0  0
 23 24  1  0  0  0
 24 25  2  0  0  0
 24 29  1  0  0  0
 25 26  1  0  0  0
 26 27  2  0  0  0
 27 28  1  0  0  0
 28 29  2  0  0  0
 28 19  1  0  0  0
 19 20  2  0  0  0
 19 21  1  0  0  0
 21 18  1  0  0  0
 18  1  1  0  0  0
  1  2  2  0  0  0
  1  6  1  0  0  0
  2  3  1  0  0  0
  2 16  1  0  0  0
  3  4  2  0  0  0
  3 14  1  0  0  0
  4  5  1  0  0  0
  4 13  1  0  0  0
  5  6  2  0  0  0
  5 10  1  0  0  0
  6  7  1  0  0  0
  7  8  1  0  0  0
  8  9  1  0  0  0
  9 10  1  0  0  0
  9 12  1  0  0  0
 10 11  2  0  0  0
 14 15  1  0  0  0
 15 16  1  0  0  0
 21 22  1  0  0  0
 13 17  1  0  0  0
M  END
> <minimizedAffinity>
-9.51785

$$$$
680


 24 27  0  0  0  0  0  0  0  0999 V2000
   20.1295   83.1124   18.8124 C   0  0  0  0  0  0  0  0  0  0  0  0
   20.0287   84.1076   18.0044 O   0  0  0  0  0  0  0  0  0  0  0  0
   20.6307   81.9050   18.2910 N   0  0  0  0  0  0  0  0  0  0  0  0
   20.9121   80.5688   18.7146 C   0  0  0  0  0  0  0  0  0  0  0  0
   20.6843   80.1332   17.2559 C   0  0  0  0  0  0  0  0  0  0  0  0
   21.1455   81.5105   16.9638 C   0  0  0  0  0  0  0  0  0  0  0  0
   21.5496   79.0490   16.8809 N   0  0  0  0  0  0  0  0  0  0  0  0
   22.0315   77.9662   17.6988 C   0  0  0  0  0  0  0  0  0  0  0  0
   21.4611   77.5362   18.7162 O   0  0  0  0  0  0  0  0  0  0  0  0
   23.3128   77.5150   17.0539 C   0  0  0  0  0  0  0  0  0  0  0  0
   22.9312   77.6321   15.5971 C   0  0  0  0  0  0  0  0  0  0  0  0
   24.1485   77.7282   14.7198 C   0  0  0  0  0  0  0  0  0  0  0  0
   24.9554   78.9140   15.1143 C   0  0  0  0  0  0  0  0  0  0  0  0
   25.0272   79.2081   16.3962 C   0  0  0  0  0  0  0  0  0  0  0  0
   24.3768   78.4656   17.4852 C   0  0  0  0  0  0  0  0  0  0  0  0
   22.1005   78.8516   15.5835 C   0  0  0  0  0  0  0  0  0  0  0  0
   21.9408   79.5642   14.5621 O   0  0  0  0  0  0  0  0  0  0  0  0
   20.8182   82.5353   24.1383 Br  0  0  0  0  0  0  0  0  0  0  0  0
   19.9225   83.1911   22.5920 C   0  0  0  0  0  0  0  0  0  0  0  0
   18.8075   83.9798   22.7465 C   0  0  0  0  0  0  0  0  0  0  0  0
   18.1576   84.4571   21.6545 N   0  0  0  0  0  0  0  0  0  0  0  0
   18.5815   84.1713   20.4186 C   0  0  0  0  0  0  0  0  0  0  0  0
   19.7074   83.3755   20.1679 C   0  0  0  0  0  0  0  0  0  0  0  0
   20.3391   82.9127   21.2997 C   0  0  0  0  0  0  0  0  0  0  0  0
 18 19  1  0  0  0
 19 20  2  0  0  0
 19 24  1  0  0  0
 20 21  1  0  0  0
 21 22  2  0  0  0
 22 23  1  0  0  0
 23 24  2  0  0  0
 23  1  1  0  0  0
  1  2  2  0  0  0
  1  3  1  0  0  0
  3  4  1  0  0  0
  3  6  1  0  0  0
  4  5  1  0  0  0
  5  6  1  0  0  0
  5  7  1  0  0  0
  7  8  1  0  0  0
  7 16  1  0  0  0
  8  9  2  0  0  0
  8 10  1  0  0  0
 10 11  1  0  0  0
 10 15  1  0  0  0
 11 12  1  0  0  0
 11 16  1  0  0  0
 12 13  1  0  0  0
 13 14  2  0  0  0
 14 15  1  0  0  0
 16 17  2  0  0  0
M  END
> <minimizedAffinity>
-9.96527

$$$$
681


 25 28  0  0  0  0  0  0  0  0999 V2000
   21.2557   77.7434   17.5877 C   0  0  0  0  0  0  0  0  0  0  0  0
   20.7231   76.6089   17.7939 O   0  0  0  0  0  0  0  0  0  0  0  0
   20.8076   78.8398   18.3350 N   0  0  0  0  0  0  0  0  0  0  0  0
   21.0522   80.2472   18.5066 C   0  0  0  0  0  0  0  0  0  0  0  0
   20.1435   80.3220   19.7243 C   0  0  0  0  0  0  0  0  0  0  0  0
   19.7410   78.9274   19.3520 C   0  0  0  0  0  0  0  0  0  0  0  0
   26.3481   78.9560   16.6503 Br  0  0  0  0  0  0  0  0  0  0  0  0
   24.6087   78.3729   16.0762 C   0  0  0  0  0  0  0  0  0  0  0  0
   24.4227   78.0745   14.7458 C   0  0  0  0  0  0  0  0  0  0  0  0
   23.2037   77.6707   14.3709 N   0  0  0  0  0  0  0  0  0  0  0  0
   22.1696   77.5515   15.2539 C   0  0  0  0  0  0  0  0  0  0  0  0
   22.2934   77.8331   16.5910 C   0  0  0  0  0  0  0  0  0  0  0  0
   23.5792   78.2566   16.9752 C   0  0  0  0  0  0  0  0  0  0  0  0
   19.1342   81.2823   19.7005 O   0  0  0  0  0  0  0  0  0  0  0  0
   19.2131   82.5583   20.2195 C   0  0  0  0  0  0  0  0  0  0  0  0
   18.8832   82.7761   21.4899 C   0  0  0  0  0  0  0  0  0  0  0  0
   18.9458   84.1000   22.0961 C   0  0  0  0  0  0  0  0  0  0  0  0
   18.6117   84.2800   23.3618 C   0  0  0  0  0  0  0  0  0  0  0  0
   19.3758   85.1776   21.2763 N   0  0  0  0  0  0  0  0  0  0  0  0
   19.7244   84.9127   19.9086 C   0  0  0  0  0  0  0  0  0  0  0  0
   19.6453   83.6707   19.4104 N   0  0  0  0  0  0  0  0  0  0  0  0
   20.0174   83.6978   18.1265 N   0  0  0  0  0  0  0  0  0  0  0  0
   20.3264   84.9659   17.8338 C   0  0  0  0  0  0  0  0  0  0  0  0
   20.1474   85.7146   18.9266 N   0  0  0  0  0  0  0  0  0  0  0  0
   19.4244   86.1213   21.6958 H   0  0  0  0  0  0  0  0  0  0  0  0
  7  8  1  0  0  0
  8  9  2  0  0  0
  8 13  1  0  0  0
  9 10  1  0  0  0
 10 11  2  0  0  0
 11 12  1  0  0  0
 12 13  2  0  0  0
 12  1  1  0  0  0
  1  2  2  0  0  0
  1  3  1  0  0  0
  3  4  1  0  0  0
  3  6  1  0  0  0
  4  5  1  0  0  0
  5  6  1  0  0  0
  5 14  1  0  0  0
 14 15  1  0  0  0
 15 16  2  0  0  0
 15 21  1  0  0  0
 16 17  1  0  0  0
 17 18  2  0  0  0
 17 19  1  0  0  0
 19 20  1  0  0  0
 20 21  1  0  0  0
 20 24  2  0  0  0
 21 22  1  0  0  0
 22 23  2  0  0  0
 23 24  1  0  0  0
 19 25  1  0  0  0
M  END
> <minimizedAffinity>
-9.41145

$$$$
683


 20 22  0  0  0  0  0  0  0  0999 V2000
   22.3676   79.2273   16.3343 N   0  0  0  0  0  0  0  0  0  0  0  0
   21.7892   78.1336   15.5710 C   0  0  0  0  0  0  0  0  0  0  0  0
   20.3985   77.7805   16.0480 C   0  0  0  0  0  0  0  0  0  0  0  0
   20.4747   76.7307   17.1426 C   0  0  0  0  0  0  0  0  0  0  0  0
   20.9423   77.3437   18.4434 C   0  0  0  0  0  0  0  0  0  0  0  0
   20.8708   78.8102   18.3473 C   0  0  0  0  0  0  0  0  0  0  0  0
   21.4989   79.6095   17.4226 C   0  0  0  0  0  0  0  0  0  0  0  0
   21.3277   80.9328   17.4753 N   0  0  0  0  0  0  0  0  0  0  0  0
   20.5627   81.5157   18.4024 C   0  0  0  0  0  0  0  0  0  0  0  0
   19.9267   80.7376   19.3355 C   0  0  0  0  0  0  0  0  0  0  0  0
   20.0854   79.3670   19.3055 C   0  0  0  0  0  0  0  0  0  0  0  0
   19.4104   78.5711   20.2928 N   0  0  0  0  0  0  0  0  0  0  0  0
   19.1178   81.2920   20.3238 C   0  0  0  0  0  0  0  0  0  0  0  0
   18.9701   82.6565   20.3418 C   0  0  0  0  0  0  0  0  0  0  0  0
   19.6072   83.4348   19.4068 C   0  0  0  0  0  0  0  0  0  0  0  0
   20.4148   82.8690   18.4212 C   0  0  0  0  0  0  0  0  0  0  0  0
   22.4812   80.3769   15.4434 C   0  0  0  0  0  0  0  0  0  0  0  0
   23.3106   78.9591   16.6981 H   0  0  0  0  0  0  0  0  0  0  0  0
   18.6726   77.9108   20.0014 H   0  0  0  0  0  0  0  0  0  0  0  0
   19.6529   78.6498   21.3071 H   0  0  0  0  0  0  0  0  0  0  0  0
  1  2  1  0  0  0
  1  7  1  0  0  0
  1 17  1  0  0  0
  2  3  1  0  0  0
  3  4  1  0  0  0
  4  5  1  0  0  0
  5  6  1  0  0  0
  6  7  2  0  0  0
  6 11  1  0  0  0
  7  8  1  0  0  0
  8  9  2  0  0  0
  9 10  1  0  0  0
  9 16  1  0  0  0
 10 11  2  0  0  0
 10 13  1  0  0  0
 11 12  1  0  0  0
 13 14  2  0  0  0
 14 15  1  0  0  0
 15 16  2  0  0  0
  1 18  1  0  0  0
 12 19  1  0  0  0
 12 20  1  0  0  0
M  CHG 1   1   1
M  END
> <minimizedAffinity>
-8.19802

$$$$
684


 19 21  0  0  0  0  0  0  0  0999 V2000
   21.9207   79.3193   16.2568 N   0  0  0  0  0  0  0  0  0  0  0  0
   21.0088   78.2289   15.8640 C   0  0  0  0  0  0  0  0  0  0  0  0
   21.0234   77.1870   16.9338 C   0  0  0  0  0  0  0  0  0  0  0  0
   20.5357   77.7915   18.2230 C   0  0  0  0  0  0  0  0  0  0  0  0
   20.5170   79.2635   18.2398 C   0  0  0  0  0  0  0  0  0  0  0  0
   21.1872   80.0045   17.2922 C   0  0  0  0  0  0  0  0  0  0  0  0
   21.1303   81.3326   17.3660 N   0  0  0  0  0  0  0  0  0  0  0  0
   20.4498   81.9998   18.3225 C   0  0  0  0  0  0  0  0  0  0  0  0
   19.7672   81.2900   19.2880 C   0  0  0  0  0  0  0  0  0  0  0  0
   19.7972   79.9136   19.2513 C   0  0  0  0  0  0  0  0  0  0  0  0
   19.0916   79.1849   20.2491 N   0  0  0  0  0  0  0  0  0  0  0  0
   19.0625   81.9768   20.2786 C   0  0  0  0  0  0  0  0  0  0  0  0
   19.0193   83.3522   20.3329 C   0  0  0  0  0  0  0  0  0  0  0  0
   19.7049   84.0571   19.3645 C   0  0  0  0  0  0  0  0  0  0  0  0
   20.4050   83.3760   18.3801 C   0  0  0  0  0  0  0  0  0  0  0  0
   22.0762   80.1510   15.0809 C   0  0  0  0  0  0  0  0  0  0  0  0
   22.8176   78.9382   16.6010 H   0  0  0  0  0  0  0  0  0  0  0  0
   18.0492   79.2193   20.2097 H   0  0  0  0  0  0  0  0  0  0  0  0
   19.5318   78.6327   20.9988 H   0  0  0  0  0  0  0  0  0  0  0  0
  1  2  1  0  0  0
  1  6  1  0  0  0
  1 16  1  0  0  0
  2  3  1  0  0  0
  3  4  1  0  0  0
  4  5  1  0  0  0
  5  6  2  0  0  0
  5 10  1  0  0  0
  6  7  1  0  0  0
  7  8  2  0  0  0
  8  9  1  0  0  0
  8 15  1  0  0  0
  9 10  2  0  0  0
  9 12  1  0  0  0
 10 11  1  0  0  0
 12 13  2  0  0  0
 13 14  1  0  0  0
 14 15  2  0  0  0
  1 17  1  0  0  0
 11 18  1  0  0  0
 11 19  1  0  0  0
M  CHG 1   1   1
M  END
> <minimizedAffinity>
-7.85872

$$$$
692


 29 32  0  0  0  0  0  0  0  0999 V2000
   21.0983   78.2748   10.2586 Br  0  0  0  0  0  0  0  0  0  0  0  0
   20.5691   77.3950   11.8571 C   0  0  0  0  0  0  0  0  0  0  0  0
   21.0430   77.8505   13.0726 C   0  0  0  0  0  0  0  0  0  0  0  0
   20.6927   77.2458   14.2892 C   0  0  0  0  0  0  0  0  0  0  0  0
   19.8494   76.1628   14.2776 C   0  0  0  0  0  0  0  0  0  0  0  0
   19.3719   75.7024   13.0656 C   0  0  0  0  0  0  0  0  0  0  0  0
   19.7156   76.2958   11.8708 C   0  0  0  0  0  0  0  0  0  0  0  0
   18.2004   74.2035   13.0129 Br  0  0  0  0  0  0  0  0  0  0  0  0
   21.2299   77.7542   15.5454 C   0  0  0  0  0  0  0  0  0  0  0  0
   21.2474   76.9373   16.5066 O   0  0  0  0  0  0  0  0  0  0  0  0
   21.7192   79.1203   15.6925 C   0  0  0  0  0  0  0  0  0  0  0  0
   21.7171   79.7992   14.2969 C   0  0  0  0  0  0  0  0  0  0  0  0
   21.8960   78.9272   13.2418 O   0  0  0  0  0  0  0  0  0  0  0  0
   20.9490   80.0342   16.5301 C   0  0  0  0  0  0  0  0  0  0  0  0
   20.5251   79.8119   17.8336 N   0  0  0  0  0  0  0  0  0  0  0  0
   19.3710   79.0126   18.1036 C   0  0  0  0  0  0  0  0  0  0  0  0
   19.5518   78.4721   19.5453 C   0  0  0  0  0  0  0  0  0  0  0  0
   19.3028   79.6633   20.4469 C   0  0  0  0  0  0  0  0  0  0  0  0
   19.4066   80.9700   19.6922 C   0  0  0  0  0  0  0  0  0  0  0  0
   20.5649   80.9675   18.7179 C   0  0  0  0  0  0  0  0  0  0  0  0
   21.3155   79.1946   18.2510 H   0  0  0  0  0  0  0  0  0  0  0  0
   23.1542   79.0496   16.1911 C   0  0  0  0  0  0  0  0  0  0  0  0
   23.7999   77.8001   15.8719 N   0  0  0  0  0  0  0  0  0  0  0  0
   24.5433   77.3695   17.0473 C   0  0  0  0  0  0  0  0  0  0  0  0
   25.4536   78.4706   17.4793 C   0  0  0  0  0  0  0  0  0  0  0  0
   26.3540   78.9979   16.4234 C   0  0  0  0  0  0  0  0  0  0  0  0
   25.7809   79.0309   15.0487 C   0  0  0  0  0  0  0  0  0  0  0  0
   24.8041   77.8975   14.8283 C   0  0  0  0  0  0  0  0  0  0  0  0
   23.1187   77.0863   15.5581 H   0  0  0  0  0  0  0  0  0  0  0  0
  1  2  1  0  0  0
  2  3  2  0  0  0
  2  7  1  0  0  0
  3  4  1  0  0  0
  3 13  1  0  0  0
  4  5  2  0  0  0
  4  9  1  0  0  0
  5  6  1  0  0  0
  6  7  2  0  0  0
  6  8  1  0  0  0
  9 10  2  0  0  0
  9 11  1  0  0  0
 11 12  1  0  0  0
 11 14  1  0  0  0
 11 22  1  0  0  0
 12 13  1  0  0  0
 14 15  1  0  0  0
 15 16  1  0  0  0
 15 20  1  0  0  0
 16 17  1  0  0  0
 17 18  1  0  0  0
 18 19  1  0  0  0
 19 20  1  0  0  0
 22 23  1  0  0  0
 23 24  1  0  0  0
 23 28  1  0  0  0
 24 25  1  0  0  0
 25 26  1  0  0  0
 26 27  1  0  0  0
 27 28  1  0  0  0
 15 21  1  0  0  0
 23 29  1  0  0  0
M  CHG 1  15   1
M  CHG 1  23   1
M  END
> <minimizedAffinity>
-9.36695

$$$$
693


 33 36  0  0  0  0  0  0  0  0999 V2000
   21.2438   77.8756   16.1345 N   0  0  0  0  0  0  0  0  0  0  0  0
   20.2387   77.5995   17.0880 C   0  0  0  0  0  0  0  0  0  0  0  0
   19.1301   77.1521   16.7280 O   0  0  0  0  0  0  0  0  0  0  0  0
   22.1895   78.2495   16.3626 H   0  0  0  0  0  0  0  0  0  0  0  0
   22.5368   80.9802    9.4831 Br  0  0  0  0  0  0  0  0  0  0  0  0
   21.6975   79.5108   10.3777 C   0  0  0  0  0  0  0  0  0  0  0  0
   21.7509   79.3709   11.7494 C   0  0  0  0  0  0  0  0  0  0  0  0
   21.1458   78.3137   12.4075 C   0  0  0  0  0  0  0  0  0  0  0  0
   20.4820   77.3987   11.6197 C   0  0  0  0  0  0  0  0  0  0  0  0
   20.4079   77.5039   10.2490 C   0  0  0  0  0  0  0  0  0  0  0  0
   21.0183   78.5681    9.6057 C   0  0  0  0  0  0  0  0  0  0  0  0
   19.4694   76.1992    9.2141 Br  0  0  0  0  0  0  0  0  0  0  0  0
   21.3503   78.4063   13.8454 C   0  0  0  0  0  0  0  0  0  0  0  0
   20.9553   77.6352   14.7878 N   0  0  0  0  0  0  0  0  0  0  0  0
   22.1436   79.6225   14.0546 C   0  0  0  0  0  0  0  0  0  0  0  0
   22.5177   80.0308   15.1866 O   0  0  0  0  0  0  0  0  0  0  0  0
   22.3563   80.1628   12.7656 N   0  0  0  0  0  0  0  0  0  0  0  0
   22.8884   81.0298   12.5798 H   0  0  0  0  0  0  0  0  0  0  0  0
   20.4428   77.8238   18.5542 C   0  0  0  0  0  0  0  0  0  0  0  0
   20.8345   79.1761   18.8418 N   0  0  0  0  0  0  0  0  0  0  0  0
   19.9068   80.2510   18.9088 C   0  0  0  0  0  0  0  0  0  0  0  0
   18.6975   80.0043   18.7087 O   0  0  0  0  0  0  0  0  0  0  0  0
   21.8361   79.4262   19.0173 H   0  0  0  0  0  0  0  0  0  0  0  0
   20.2992   81.6617   19.2038 C   0  0  0  0  0  0  0  0  0  0  0  0
   21.0643   81.7580   20.3685 O   0  0  0  0  0  0  0  0  0  0  0  0
   20.6283   82.3272   21.5629 C   0  0  0  0  0  0  0  0  0  0  0  0
   19.5430   83.1603   21.4941 C   0  0  0  0  0  0  0  0  0  0  0  0
   19.0852   83.7454   22.6748 C   0  0  0  0  0  0  0  0  0  0  0  0
   19.6826   83.5164   23.8933 C   0  0  0  0  0  0  0  0  0  0  0  0
   20.7745   82.6708   23.9232 C   0  0  0  0  0  0  0  0  0  0  0  0
   21.2302   82.0909   22.7625 C   0  0  0  0  0  0  0  0  0  0  0  0
   18.9425   83.3948   20.2881 O   0  0  0  0  0  0  0  0  0  0  0  0
   19.1441   82.5990   19.1530 C   0  0  0  0  0  0  0  0  0  0  0  0
  5  6  1  0  0  0
  6  7  2  0  0  0
  6 11  1  0  0  0
  7  8  1  0  0  0
  7 17  1  0  0  0
  8  9  2  0  0  0
  8 13  1  0  0  0
  9 10  1  0  0  0
 10 11  2  0  0  0
 10 12  1  0  0  0
 13 14  2  0  0  0
 13 15  1  0  0  0
 14  1  1  0  0  0
  1  2  1  0  0  0
  2  3  2  0  0  0
  2 19  1  0  0  0
 19 20  1  0  0  0
 20 21  1  0  0  0
 21 22  2  0  0  0
 21 24  1  0  0  0
 24 25  1  0  0  0
 24 33  1  0  0  0
 25 26  1  0  0  0
 26 27  2  0  0  0
 26 31  1  0  0  0
 27 28  1  0  0  0
 27 32  1  0  0  0
 28 29  2  0  0  0
 29 30  1  0  0  0
 30 31  2  0  0  0
 32 33  1  0  0  0
 15 16  2  0  0  0
 15 17  1  0  0  0
  1  4  1  0  0  0
 20 23  1  0  0  0
 17 18  1  0  0  0
M  END
> <minimizedAffinity>
-10.28012

$$$$
695


 22 25  0  0  0  0  0  0  0  0999 V2000
   19.1639   80.1135   19.6459 C   0  0  0  0  0  0  0  0  0  0  0  0
   23.8037   79.1044   17.1604 Br  0  0  0  0  0  0  0  0  0  0  0  0
   21.9222   78.8229   17.4267 C   0  0  0  0  0  0  0  0  0  0  0  0
   21.2978   77.8951   16.6201 C   0  0  0  0  0  0  0  0  0  0  0  0
   19.9530   77.6931   16.8101 C   0  0  0  0  0  0  0  0  0  0  0  0
   19.2607   78.4106   17.7875 C   0  0  0  0  0  0  0  0  0  0  0  0
   19.8742   79.3382   18.5970 C   0  0  0  0  0  0  0  0  0  0  0  0
   21.2434   79.5356   18.3945 C   0  0  0  0  0  0  0  0  0  0  0  0
   19.5676   76.7213   15.8848 O   0  0  0  0  0  0  0  0  0  0  0  0
   20.5374   76.7374   14.8258 C   0  0  0  0  0  0  0  0  0  0  0  0
   21.7135   77.0469   15.5870 O   0  0  0  0  0  0  0  0  0  0  0  0
   20.0963   80.9957   20.3038 N   0  0  0  0  0  0  0  0  0  0  0  0
   21.0154   80.6668   20.6444 H   0  0  0  0  0  0  0  0  0  0  0  0
   19.7215   82.3741   20.4856 C   0  0  0  0  0  0  0  0  0  0  0  0
   19.0822   82.7769   21.5921 N   0  0  0  0  0  0  0  0  0  0  0  0
   18.7360   84.0664   21.7539 C   0  0  0  0  0  0  0  0  0  0  0  0
   19.0279   85.0204   20.7838 C   0  0  0  0  0  0  0  0  0  0  0  0
   19.6643   84.6122   19.6863 N   0  0  0  0  0  0  0  0  0  0  0  0
   20.0152   83.3109   19.5197 C   0  0  0  0  0  0  0  0  0  0  0  0
   20.6343   83.2039   18.3328 N   0  0  0  0  0  0  0  0  0  0  0  0
   20.6865   84.3882   17.7465 N   0  0  0  0  0  0  0  0  0  0  0  0
   20.0909   85.2460   18.5791 C   0  0  0  0  0  0  0  0  0  0  0  0
  2  3  1  0  0  0
  3  4  2  0  0  0
  3  8  1  0  0  0
  4  5  1  0  0  0
  4 11  1  0  0  0
  5  6  2  0  0  0
  5  9  1  0  0  0
  6  7  1  0  0  0
  7  8  2  0  0  0
  7  1  1  0  0  0
  1 12  1  0  0  0
 12 14  1  0  0  0
 14 15  2  0  0  0
 14 19  1  0  0  0
 15 16  1  0  0  0
 16 17  2  0  0  0
 17 18  1  0  0  0
 18 19  1  0  0  0
 18 22  1  0  0  0
 19 20  2  0  0  0
 20 21  1  0  0  0
 21 22  2  0  0  0
  9 10  1  0  0  0
 10 11  1  0  0  0
 12 13  1  0  0  0
M  END
> <minimizedAffinity>
-8.79592

$$$$
696


 28 31  0  0  0  0  0  0  0  0999 V2000
   18.5707   74.5066   13.1195 Br  0  0  0  0  0  0  0  0  0  0  0  0
   19.5766   76.0634   12.7103 C   0  0  0  0  0  0  0  0  0  0  0  0
   20.3745   76.6435   13.7057 C   0  0  0  0  0  0  0  0  0  0  0  0
   21.1240   77.7549   13.4685 C   0  0  0  0  0  0  0  0  0  0  0  0
   21.0876   78.3207   12.2060 C   0  0  0  0  0  0  0  0  0  0  0  0
   20.2986   77.7520   11.2124 C   0  0  0  0  0  0  0  0  0  0  0  0
   19.5433   76.6283   11.4548 C   0  0  0  0  0  0  0  0  0  0  0  0
   20.2319   78.3306    9.8401 C   0  0  0  0  0  0  0  0  0  0  0  0
   21.9965   78.3282   14.5294 C   0  0  0  0  0  0  0  0  0  0  0  0
   21.5393   78.1578   15.9335 C   0  0  0  0  0  0  0  0  0  0  0  0
   20.3887   77.1267   16.0234 C   0  0  0  0  0  0  0  0  0  0  0  0
   20.4697   76.1494   14.9990 O   0  0  0  0  0  0  0  0  0  0  0  0
   23.2488   77.7076   14.2609 O   0  0  0  0  0  0  0  0  0  0  0  0
   23.7096   78.1465   13.5254 H   0  0  0  0  0  0  0  0  0  0  0  0
   20.9056   79.4114   16.5063 C   0  0  0  0  0  0  0  0  0  0  0  0
   20.3159   79.2439   17.8172 N   0  0  0  0  0  0  0  0  0  0  0  0
   18.9618   79.7981   17.8178 C   0  0  0  0  0  0  0  0  0  0  0  0
   18.6166   80.1462   19.2183 C   0  0  0  0  0  0  0  0  0  0  0  0
   19.9000   79.9844   19.9604 C   0  0  0  0  0  0  0  0  0  0  0  0
   20.9255   80.0958   18.8247 C   0  0  0  0  0  0  0  0  0  0  0  0
   20.3324   78.2846   18.1921 H   0  0  0  0  0  0  0  0  0  0  0  0
   22.5886   77.5846   16.8084 C   0  0  0  0  0  0  0  0  0  0  0  0
   23.7420   78.1497   17.2865 N   0  0  0  0  0  0  0  0  0  0  0  0
   24.9142   77.3447   16.8748 C   0  0  0  0  0  0  0  0  0  0  0  0
   26.0242   78.2970   16.6528 C   0  0  0  0  0  0  0  0  0  0  0  0
   25.4056   79.6089   16.3556 C   0  0  0  0  0  0  0  0  0  0  0  0
   24.0242   79.4948   16.9977 C   0  0  0  0  0  0  0  0  0  0  0  0
   23.8327   78.0075   18.3870 H   0  0  0  0  0  0  0  0  0  0  0  0
  1  2  1  0  0  0
  2  3  2  0  0  0
  2  7  1  0  0  0
  3  4  1  0  0  0
  3 12  1  0  0  0
  4  5  2  0  0  0
  4  9  1  0  0  0
  5  6  1  0  0  0
  6  7  2  0  0  0
  6  8  1  0  0  0
  9 10  1  0  0  0
  9 13  1  0  0  0
 10 11  1  0  0  0
 10 15  1  0  0  0
 10 22  1  0  0  0
 11 12  1  0  0  0
 15 16  1  0  0  0
 16 17  1  0  0  0
 16 20  1  0  0  0
 17 18  1  0  0  0
 18 19  1  0  0  0
 19 20  1  0  0  0
 22 23  1  0  0  0
 23 24  1  0  0  0
 23 27  1  0  0  0
 24 25  1  0  0  0
 25 26  1  0  0  0
 26 27  1  0  0  0
 16 21  1  0  0  0
 23 28  1  0  0  0
 13 14  1  0  0  0
M  CHG 1  16   1
M  CHG 1  23   1
M  END
> <minimizedAffinity>
-9.22880

$$$$
699


 32 35  0  0  0  0  0  0  0  0999 V2000
   21.8142   77.6490   16.1070 C   0  0  0  0  0  0  0  0  0  0  0  0
   23.0867   77.1436   16.0412 O   0  0  0  0  0  0  0  0  0  0  0  0
   23.1739   76.3061   15.5509 H   0  0  0  0  0  0  0  0  0  0  0  0
   20.9423   77.2119   14.9571 C   0  0  0  0  0  0  0  0  0  0  0  0
   21.1101   78.0353   13.8192 O   0  0  0  0  0  0  0  0  0  0  0  0
   21.9453   79.7846   11.4665 Br  0  0  0  0  0  0  0  0  0  0  0  0
   20.8635   78.2204   11.4139 C   0  0  0  0  0  0  0  0  0  0  0  0
   20.3724   77.7783   10.2014 C   0  0  0  0  0  0  0  0  0  0  0  0
   19.5861   76.6472   10.1334 C   0  0  0  0  0  0  0  0  0  0  0  0
   19.3215   75.9930   11.3193 C   0  0  0  0  0  0  0  0  0  0  0  0
   19.8169   76.4414   12.5274 C   0  0  0  0  0  0  0  0  0  0  0  0
   20.6045   77.5723   12.6059 C   0  0  0  0  0  0  0  0  0  0  0  0
   19.0936   76.2042    8.9171 C   0  0  0  0  0  0  0  0  0  0  0  0
   19.3579   76.8571    7.7306 C   0  0  0  0  0  0  0  0  0  0  0  0
   20.1446   77.9901    7.7980 C   0  0  0  0  0  0  0  0  0  0  0  0
   20.6358   78.4322    9.0105 C   0  0  0  0  0  0  0  0  0  0  0  0
   21.1557   77.3616   17.4116 C   0  0  0  0  0  0  0  0  0  0  0  0
   21.1746   78.4739   18.3355 N   0  0  0  0  0  0  0  0  0  0  0  0
   19.8134   78.6511   18.8093 C   0  0  0  0  0  0  0  0  0  0  0  0
   19.6460   79.9564   19.6004 C   0  0  0  0  0  0  0  0  0  0  0  0
   20.0334   81.0441   18.7754 N   0  0  0  0  0  0  0  0  0  0  0  0
   20.5414   80.6596   17.4420 C   0  0  0  0  0  0  0  0  0  0  0  0
   21.6332   79.6586   17.6252 C   0  0  0  0  0  0  0  0  0  0  0  0
   19.9643   82.3953   19.1330 C   0  0  0  0  0  0  0  0  0  0  0  0
   20.3892   83.2090   18.1799 O   0  0  0  0  0  0  0  0  0  0  0  0
   21.7809   78.3185   19.1683 H   0  0  0  0  0  0  0  0  0  0  0  0
   19.5275   83.0540   20.3212 C   0  0  0  0  0  0  0  0  0  0  0  0
   18.4884   83.9327   20.4355 C   0  0  0  0  0  0  0  0  0  0  0  0
   18.1150   84.5409   21.6260 C   0  0  0  0  0  0  0  0  0  0  0  0
   18.7960   84.2741   22.7702 C   0  0  0  0  0  0  0  0  0  0  0  0
   19.8520   83.3899   22.6884 C   0  0  0  0  0  0  0  0  0  0  0  0
   20.2217   82.7893   21.5114 C   0  0  0  0  0  0  0  0  0  0  0  0
  6  7  1  0  0  0
  7  8  2  0  0  0
  7 12  1  0  0  0
  8  9  1  0  0  0
  8 16  1  0  0  0
  9 10  2  0  0  0
  9 13  1  0  0  0
 10 11  1  0  0  0
 11 12  2  0  0  0
 12  5  1  0  0  0
  5  4  1  0  0  0
  4  1  1  0  0  0
  1  2  1  0  0  0
  1 17  1  0  0  0
 17 18  1  0  0  0
 18 19  1  0  0  0
 18 23  1  0  0  0
 19 20  1  0  0  0
 20 21  1  0  0  0
 21 22  1  0  0  0
 21 24  1  0  0  0
 22 23  1  0  0  0
 24 25  2  0  0  0
 24 27  1  0  0  0
 27 28  2  0  0  0
 27 32  1  0  0  0
 28 29  1  0  0  0
 29 30  2  0  0  0
 30 31  1  0  0  0
 31 32  2  0  0  0
 13 14  2  0  0  0
 14 15  1  0  0  0
 15 16  2  0  0  0
  2  3  1  0  0  0
 18 26  1  0  0  0
M  CHG 1  18   1
M  END
> <minimizedAffinity>
-10.61921

$$$$
706


 30 33  0  0  0  0  0  0  0  0999 V2000
   20.4705   77.9444    9.4128 C   0  0  0  0  0  0  0  0  0  0  0  0
   18.9868   80.6787   10.5250 Br  0  0  0  0  0  0  0  0  0  0  0  0
   18.5032   79.3640    9.1990 C   0  0  0  0  0  0  0  0  0  0  0  0
   19.2137   78.2805    8.8338 N   0  0  0  0  0  0  0  0  0  0  0  0
   18.5468   77.6086    7.8820 C   0  0  0  0  0  0  0  0  0  0  0  0
   17.3734   78.2962    7.6404 C   0  0  0  0  0  0  0  0  0  0  0  0
   17.3814   79.3572    8.4580 N   0  0  0  0  0  0  0  0  0  0  0  0
   16.5184   77.8144    6.7156 N   0  0  0  0  0  0  0  0  0  0  0  0
   16.7602   76.6845    6.0147 C   0  0  0  0  0  0  0  0  0  0  0  0
   15.9297   76.2659    5.1541 O   0  0  0  0  0  0  0  0  0  0  0  0
   17.8928   75.9894    6.2251 N   0  0  0  0  0  0  0  0  0  0  0  0
   18.7519   76.4609    7.1452 C   0  0  0  0  0  0  0  0  0  0  0  0
   19.8046   75.8227    7.3496 O   0  0  0  0  0  0  0  0  0  0  0  0
   18.1291   74.7794    5.4614 C   0  0  0  0  0  0  0  0  0  0  0  0
   15.2910   78.5428    6.4682 C   0  0  0  0  0  0  0  0  0  0  0  0
   20.4708   77.5034   10.8309 C   0  0  0  0  0  0  0  0  0  0  0  0
   21.3775   78.1484   11.7202 N   0  0  0  0  0  0  0  0  0  0  0  0
   21.3900   78.0096   13.0694 C   0  0  0  0  0  0  0  0  0  0  0  0
   22.3933   78.7844   13.5971 C   0  0  0  0  0  0  0  0  0  0  0  0
   22.9709   79.3788   12.5397 N   0  0  0  0  0  0  0  0  0  0  0  0
   22.3605   78.9979   11.4090 C   0  0  0  0  0  0  0  0  0  0  0  0
   22.7794   79.5495    9.6099 Br  0  0  0  0  0  0  0  0  0  0  0  0
   22.6574   78.8556   14.9291 N   0  0  0  0  0  0  0  0  0  0  0  0
   21.8777   78.1187   15.7407 C   0  0  0  0  0  0  0  0  0  0  0  0
   22.1122   78.1759   16.9786 O   0  0  0  0  0  0  0  0  0  0  0  0
   20.8811   77.3423   15.2806 N   0  0  0  0  0  0  0  0  0  0  0  0
   20.6299   77.2791   13.9739 C   0  0  0  0  0  0  0  0  0  0  0  0
   19.7118   76.5722   13.4782 O   0  0  0  0  0  0  0  0  0  0  0  0
   20.0707   76.5680   16.1967 C   0  0  0  0  0  0  0  0  0  0  0  0
   23.7316   79.6883   15.4535 C   0  0  0  0  0  0  0  0  0  0  0  0
  2  3  1  0  0  0
  3  4  1  0  0  0
  3  7  2  0  0  0
  4  5  1  0  0  0
  4  1  1  0  0  0
  5  6  2  0  0  0
  5 12  1  0  0  0
  6  7  1  0  0  0
  6  8  1  0  0  0
  8  9  1  0  0  0
  8 15  1  0  0  0
  9 10  2  0  0  0
  9 11  1  0  0  0
 11 12  1  0  0  0
 11 14  1  0  0  0
 12 13  2  0  0  0
  1 16  1  0  0  0
 16 17  1  0  0  0
 17 18  1  0  0  0
 17 21  1  0  0  0
 18 19  2  0  0  0
 18 27  1  0  0  0
 19 20  1  0  0  0
 19 23  1  0  0  0
 20 21  2  0  0  0
 21 22  1  0  0  0
 23 24  1  0  0  0
 23 30  1  0  0  0
 24 25  2  0  0  0
 24 26  1  0  0  0
 26 27  1  0  0  0
 26 29  1  0  0  0
 27 28  2  0  0  0
M  END
> <minimizedAffinity>
-9.02736

$$$$
708


 31 34  0  0  0  0  0  0  0  0999 V2000
   23.4514   79.1869   13.4503 C   0  0  0  0  0  0  0  0  0  0  0  0
   22.0814   79.7055   13.1240 C   0  0  0  0  0  0  0  0  0  0  0  0
   22.2981   80.8987   10.1047 Br  0  0  0  0  0  0  0  0  0  0  0  0
   21.4021   79.3469   10.7486 C   0  0  0  0  0  0  0  0  0  0  0  0
   21.4146   78.9757   12.0653 N   0  0  0  0  0  0  0  0  0  0  0  0
   20.6792   77.8471   12.1093 C   0  0  0  0  0  0  0  0  0  0  0  0
   20.2133   77.5111   10.8484 C   0  0  0  0  0  0  0  0  0  0  0  0
   20.6862   78.4726   10.0265 N   0  0  0  0  0  0  0  0  0  0  0  0
   19.4479   76.4376   10.5865 N   0  0  0  0  0  0  0  0  0  0  0  0
   19.1273   75.6579   11.6346 C   0  0  0  0  0  0  0  0  0  0  0  0
   18.4028   74.6251   11.4376 O   0  0  0  0  0  0  0  0  0  0  0  0
   19.5573   75.9478   12.8764 N   0  0  0  0  0  0  0  0  0  0  0  0
   20.3331   77.0348   13.1451 C   0  0  0  0  0  0  0  0  0  0  0  0
   20.7221   77.2908   14.3033 O   0  0  0  0  0  0  0  0  0  0  0  0
   18.9667   76.0934    9.2656 C   0  0  0  0  0  0  0  0  0  0  0  0
   19.3182   75.3540   13.6989 H   0  0  0  0  0  0  0  0  0  0  0  0
   23.9870   79.6277   14.7823 C   0  0  0  0  0  0  0  0  0  0  0  0
   23.3287   78.8918   15.8529 N   0  0  0  0  0  0  0  0  0  0  0  0
   22.3302   79.3055   16.6660 C   0  0  0  0  0  0  0  0  0  0  0  0
   21.9879   78.3064   17.5474 C   0  0  0  0  0  0  0  0  0  0  0  0
   22.7996   77.2729   17.2552 N   0  0  0  0  0  0  0  0  0  0  0  0
   23.6049   77.6340   16.2332 C   0  0  0  0  0  0  0  0  0  0  0  0
   24.9523   76.5628   15.4060 Br  0  0  0  0  0  0  0  0  0  0  0  0
   21.0239   78.4306   18.4784 N   0  0  0  0  0  0  0  0  0  0  0  0
   20.3747   79.6200   18.5217 C   0  0  0  0  0  0  0  0  0  0  0  0
   19.4643   79.7406   19.3974 O   0  0  0  0  0  0  0  0  0  0  0  0
   20.6792   80.6262   17.6756 N   0  0  0  0  0  0  0  0  0  0  0  0
   21.6471   80.4904   16.7461 C   0  0  0  0  0  0  0  0  0  0  0  0
   21.9542   81.4063   15.9449 O   0  0  0  0  0  0  0  0  0  0  0  0
   20.6948   77.3412   19.3944 C   0  0  0  0  0  0  0  0  0  0  0  0
   20.1470   81.5154   17.7550 H   0  0  0  0  0  0  0  0  0  0  0  0
  3  4  1  0  0  0
  4  5  1  0  0  0
  4  8  2  0  0  0
  5  6  1  0  0  0
  5  2  1  0  0  0
  6  7  2  0  0  0
  6 13  1  0  0  0
  7  8  1  0  0  0
  7  9  1  0  0  0
  9 10  1  0  0  0
  9 15  1  0  0  0
 10 11  2  0  0  0
 10 12  1  0  0  0
 12 13  1  0  0  0
 13 14  2  0  0  0
  2  1  1  0  0  0
  1 17  1  0  0  0
 17 18  1  0  0  0
 18 19  1  0  0  0
 18 22  1  0  0  0
 19 20  2  0  0  0
 19 28  1  0  0  0
 20 21  1  0  0  0
 20 24  1  0  0  0
 21 22  2  0  0  0
 22 23  1  0  0  0
 24 25  1  0  0  0
 24 30  1  0  0  0
 25 26  2  0  0  0
 25 27  1  0  0  0
 27 28  1  0  0  0
 28 29  2  0  0  0
 12 16  1  0  0  0
 27 31  1  0  0  0
M  END
> <minimizedAffinity>
-8.86518

$$$$
709


 30 33  0  0  0  0  0  0  0  0999 V2000
   21.0142   76.7344   13.7163 C   0  0  0  0  0  0  0  0  0  0  0  0
   23.2044   79.0658   13.1760 Br  0  0  0  0  0  0  0  0  0  0  0  0
   22.1102   78.7118   14.7005 C   0  0  0  0  0  0  0  0  0  0  0  0
   21.2317   77.6829   14.7546 N   0  0  0  0  0  0  0  0  0  0  0  0
   20.6478   77.7521   15.9737 C   0  0  0  0  0  0  0  0  0  0  0  0
   21.1619   78.8301   16.6888 C   0  0  0  0  0  0  0  0  0  0  0  0
   22.0654   79.3939   15.8555 N   0  0  0  0  0  0  0  0  0  0  0  0
   20.7389   79.1016   17.9364 N   0  0  0  0  0  0  0  0  0  0  0  0
   19.8057   78.3326   18.5244 C   0  0  0  0  0  0  0  0  0  0  0  0
   19.3997   78.5823   19.7037 O   0  0  0  0  0  0  0  0  0  0  0  0
   19.2751   77.2765   17.8818 N   0  0  0  0  0  0  0  0  0  0  0  0
   19.6986   76.9986   16.6217 C   0  0  0  0  0  0  0  0  0  0  0  0
   19.2252   76.0119   15.9853 O   0  0  0  0  0  0  0  0  0  0  0  0
   21.2674   80.2193   18.6843 C   0  0  0  0  0  0  0  0  0  0  0  0
   18.5508   76.6671   18.3189 H   0  0  0  0  0  0  0  0  0  0  0  0
   19.6169   76.5636   13.2369 C   0  0  0  0  0  0  0  0  0  0  0  0
   19.4105   76.0814   11.9171 N   0  0  0  0  0  0  0  0  0  0  0  0
   19.5212   76.7636   10.7653 C   0  0  0  0  0  0  0  0  0  0  0  0
   19.2260   75.9216    9.7135 C   0  0  0  0  0  0  0  0  0  0  0  0
   18.9446   74.7356   10.2905 N   0  0  0  0  0  0  0  0  0  0  0  0
   19.0477   74.8002   11.6130 C   0  0  0  0  0  0  0  0  0  0  0  0
   18.7498   73.3836   12.8846 Br  0  0  0  0  0  0  0  0  0  0  0  0
   19.2738   76.3709    8.4601 N   0  0  0  0  0  0  0  0  0  0  0  0
   19.6064   77.6391    8.2060 C   0  0  0  0  0  0  0  0  0  0  0  0
   19.6587   78.0985    7.0170 O   0  0  0  0  0  0  0  0  0  0  0  0
   19.9076   78.5212    9.1753 N   0  0  0  0  0  0  0  0  0  0  0  0
   19.8600   78.0663   10.4340 C   0  0  0  0  0  0  0  0  0  0  0  0
   20.1417   78.8789   11.3426 O   0  0  0  0  0  0  0  0  0  0  0  0
   18.9659   75.5007    7.3492 C   0  0  0  0  0  0  0  0  0  0  0  0
   20.1661   79.5136    8.9406 H   0  0  0  0  0  0  0  0  0  0  0  0
  2  3  1  0  0  0
  3  4  1  0  0  0
  3  7  2  0  0  0
  4  5  1  0  0  0
  4  1  1  0  0  0
  5  6  2  0  0  0
  5 12  1  0  0  0
  6  7  1  0  0  0
  6  8  1  0  0  0
  8  9  1  0  0  0
  8 14  1  0  0  0
  9 10  2  0  0  0
  9 11  1  0  0  0
 11 12  1  0  0  0
 12 13  2  0  0  0
  1 16  1  0  0  0
 16 17  1  0  0  0
 17 18  1  0  0  0
 17 21  1  0  0  0
 18 19  2  0  0  0
 18 27  1  0  0  0
 19 20  1  0  0  0
 19 23  1  0  0  0
 20 21  2  0  0  0
 21 22  1  0  0  0
 23 24  1  0  0  0
 23 29  1  0  0  0
 24 25  2  0  0  0
 24 26  1  0  0  0
 26 27  1  0  0  0
 27 28  2  0  0  0
 11 15  1  0  0  0
 26 30  1  0  0  0
M  END
> <minimizedAffinity>
-8.81873

$$$$
716


 31 35  0  0  0  0  0  0  0  0999 V2000
   22.2759   78.9789   11.6612 C   0  0  0  0  0  0  0  0  0  0  0  0
   20.9534   78.5073   11.1000 C   0  0  0  0  0  0  0  0  0  0  0  0
   20.6444   79.2683    9.8439 C   0  0  0  0  0  0  0  0  0  0  0  0
   21.7090   78.8512    8.8197 C   0  0  0  0  0  0  0  0  0  0  0  0
   23.0695   79.1953    9.3706 C   0  0  0  0  0  0  0  0  0  0  0  0
   23.3518   78.5334   10.6945 C   0  0  0  0  0  0  0  0  0  0  0  0
   23.1683   80.6815    9.5049 C   0  0  0  0  0  0  0  0  0  0  0  0
   22.1111   81.1476   10.4808 C   0  0  0  0  0  0  0  0  0  0  0  0
   22.3520   80.4685   11.7870 C   0  0  0  0  0  0  0  0  0  0  0  0
   20.7387   80.7511    9.9828 C   0  0  0  0  0  0  0  0  0  0  0  0
   24.6834   77.4031   16.2528 Br  0  0  0  0  0  0  0  0  0  0  0  0
   23.3975   77.7325   14.8687 C   0  0  0  0  0  0  0  0  0  0  0  0
   23.5976   78.3495   13.6899 N   0  0  0  0  0  0  0  0  0  0  0  0
   22.4731   78.3942   12.9866 N   0  0  0  0  0  0  0  0  0  0  0  0
   21.5473   77.7875   13.7517 C   0  0  0  0  0  0  0  0  0  0  0  0
   22.0935   77.3757   14.9057 N   0  0  0  0  0  0  0  0  0  0  0  0
   19.3106   78.9174    9.3111 C   0  0  0  0  0  0  0  0  0  0  0  0
   18.3622   78.7951   10.1270 O   0  0  0  0  0  0  0  0  0  0  0  0
   19.1070   78.7236    7.9144 N   0  0  0  0  0  0  0  0  0  0  0  0
   19.9393   78.8418    7.3071 H   0  0  0  0  0  0  0  0  0  0  0  0
   17.8663   78.3853    7.3127 C   0  0  0  0  0  0  0  0  0  0  0  0
   17.5471   77.1420    6.8450 C   0  0  0  0  0  0  0  0  0  0  0  0
   16.2899   77.2132    6.3467 N   0  0  0  0  0  0  0  0  0  0  0  0
   15.8444   78.4424    6.4950 N   0  0  0  0  0  0  0  0  0  0  0  0
   16.7766   79.1998    7.0826 C   0  0  0  0  0  0  0  0  0  0  0  0
   15.5135   76.1466    5.7393 C   0  0  0  0  0  0  0  0  0  0  0  0
   18.3056   75.9075    6.8242 C   0  0  0  0  0  0  0  0  0  0  0  0
   18.6963   75.4004    5.7433 O   0  0  0  0  0  0  0  0  0  0  0  0
   18.6603   75.1876    7.9972 N   0  0  0  0  0  0  0  0  0  0  0  0
   19.6505   75.2967    8.3630 H   0  0  0  0  0  0  0  0  0  0  0  0
   18.0260   74.5591    8.5264 H   0  0  0  0  0  0  0  0  0  0  0  0
 11 12  1  0  0  0
 12 13  2  0  0  0
 12 16  1  0  0  0
 13 14  1  0  0  0
 14 15  1  0  0  0
 14  1  1  0  0  0
 15 16  2  0  0  0
  1  2  1  0  0  0
  1  6  1  0  0  0
  1  9  1  0  0  0
  2  3  1  0  0  0
  3  4  1  0  0  0
  3 10  1  0  0  0
  3 17  1  0  0  0
  4  5  1  0  0  0
  5  6  1  0  0  0
  5  7  1  0  0  0
  7  8  1  0  0  0
  8  9  1  0  0  0
  8 10  1  0  0  0
 17 18  2  0  0  0
 17 19  1  0  0  0
 19 21  1  0  0  0
 21 22  2  0  0  0
 21 25  1  0  0  0
 22 23  1  0  0  0
 22 27  1  0  0  0
 23 24  1  0  0  0
 23 26  1  0  0  0
 24 25  2  0  0  0
 27 28  2  0  0  0
 27 29  1  0  0  0
 19 20  1  0  0  0
 29 30  1  0  0  0
 29 31  1  0  0  0
M  END
> <minimizedAffinity>
-9.94203

$$$$
723


 23 26  0  0  0  0  0  0  0  0999 V2000
   21.4612   79.0657   16.8854 N   0  0  0  0  0  0  0  0  0  0  0  0
   22.3052   78.3525   17.7919 C   0  0  0  0  0  0  0  0  0  0  0  0
   21.6108   77.2558   18.5033 C   0  0  0  0  0  0  0  0  0  0  0  0
   20.2504   77.1863   18.3747 O   0  0  0  0  0  0  0  0  0  0  0  0
   19.6431   78.4363   18.3308 C   0  0  0  0  0  0  0  0  0  0  0  0
   20.0625   79.2311   17.1361 C   0  0  0  0  0  0  0  0  0  0  0  0
   20.2888   76.7227   14.9811 Br  0  0  0  0  0  0  0  0  0  0  0  0
   21.2771   77.9764   13.9445 C   0  0  0  0  0  0  0  0  0  0  0  0
   21.4986   77.9431   12.6115 N   0  0  0  0  0  0  0  0  0  0  0  0
   22.1967   78.9820   12.2145 N   0  0  0  0  0  0  0  0  0  0  0  0
   22.4392   79.7140   13.3168 C   0  0  0  0  0  0  0  0  0  0  0  0
   23.0866   80.8708   13.4911 N   0  0  0  0  0  0  0  0  0  0  0  0
   23.1934   81.4401   14.7052 C   0  0  0  0  0  0  0  0  0  0  0  0
   22.6483   80.8564   15.7872 N   0  0  0  0  0  0  0  0  0  0  0  0
   21.9710   79.6711   15.6877 C   0  0  0  0  0  0  0  0  0  0  0  0
   21.8718   79.1095   14.4455 C   0  0  0  0  0  0  0  0  0  0  0  0
   22.6132   79.2638   10.8534 C   0  0  0  0  0  0  0  0  0  0  0  0
   23.5705   77.9342   17.1478 C   0  0  0  0  0  0  0  0  0  0  0  0
   23.7373   76.8656   16.3674 N   0  0  0  0  0  0  0  0  0  0  0  0
   25.0495   76.8621   15.9959 C   0  0  0  0  0  0  0  0  0  0  0  0
   25.6133   77.9369   16.5758 N   0  0  0  0  0  0  0  0  0  0  0  0
   24.7035   78.5643   17.2626 O   0  0  0  0  0  0  0  0  0  0  0  0
   25.7328   75.8772   15.1265 C   0  0  0  0  0  0  0  0  0  0  0  0
  7  8  1  0  0  0
  8  9  2  0  0  0
  8 16  1  0  0  0
  9 10  1  0  0  0
 10 11  1  0  0  0
 10 17  1  0  0  0
 11 12  1  0  0  0
 11 16  2  0  0  0
 12 13  2  0  0  0
 13 14  1  0  0  0
 14 15  2  0  0  0
 15 16  1  0  0  0
 15  1  1  0  0  0
  1  2  1  0  0  0
  1  6  1  0  0  0
  2  3  1  0  0  0
  2 18  1  0  0  0
  3  4  1  0  0  0
  4  5  1  0  0  0
  5  6  1  0  0  0
 18 19  2  0  0  0
 18 22  1  0  0  0
 19 20  1  0  0  0
 20 21  2  0  0  0
 20 23  1  0  0  0
 21 22  1  0  0  0
M  END
> <minimizedAffinity>
-8.46151

$$$$
727


 21 24  0  0  0  0  0  0  0  0999 V2000
   21.1356   78.7227   10.5775 Br  0  0  0  0  0  0  0  0  0  0  0  0
   20.4870   77.5172   11.9004 C   0  0  0  0  0  0  0  0  0  0  0  0
   20.6886   77.6216   13.2468 N   0  0  0  0  0  0  0  0  0  0  0  0
   20.0762   76.6258   13.8417 N   0  0  0  0  0  0  0  0  0  0  0  0
   19.4673   75.8517   12.9287 C   0  0  0  0  0  0  0  0  0  0  0  0
   18.7149   74.7422   13.0036 N   0  0  0  0  0  0  0  0  0  0  0  0
   18.2074   74.1622   11.9193 C   0  0  0  0  0  0  0  0  0  0  0  0
   18.4445   74.6845   10.7196 N   0  0  0  0  0  0  0  0  0  0  0  0
   19.2009   75.8161   10.5294 C   0  0  0  0  0  0  0  0  0  0  0  0
   19.7143   76.4014   11.6596 C   0  0  0  0  0  0  0  0  0  0  0  0
   20.0162   76.3288   15.2806 C   0  0  0  0  0  0  0  0  0  0  0  0
   19.4552   76.3030    9.2473 N   0  0  0  0  0  0  0  0  0  0  0  0
   20.3160   75.5892    8.3300 C   0  0  0  0  0  0  0  0  0  0  0  0
   19.4123   74.9778    7.2388 C   0  0  0  0  0  0  0  0  0  0  0  0
   18.3229   75.9258    6.9202 C   0  0  0  0  0  0  0  0  0  0  0  0
   17.4103   75.8106    5.9279 N   0  0  0  0  0  0  0  0  0  0  0  0
   16.6037   76.8838    5.9861 C   0  0  0  0  0  0  0  0  0  0  0  0
   16.9722   77.6831    6.9852 N   0  0  0  0  0  0  0  0  0  0  0  0
   18.0389   77.0913    7.5665 C   0  0  0  0  0  0  0  0  0  0  0  0
   18.8705   77.5099    8.7211 C   0  0  0  0  0  0  0  0  0  0  0  0
   17.2769   74.7548    4.9572 C   0  0  0  0  0  0  0  0  0  0  0  0
  1  2  1  0  0  0
  2  3  2  0  0  0
  2 10  1  0  0  0
  3  4  1  0  0  0
  4  5  1  0  0  0
  4 11  1  0  0  0
  5  6  1  0  0  0
  5 10  2  0  0  0
  6  7  2  0  0  0
  7  8  1  0  0  0
  8  9  2  0  0  0
  9 10  1  0  0  0
  9 12  1  0  0  0
 12 13  1  0  0  0
 12 20  1  0  0  0
 13 14  1  0  0  0
 14 15  1  0  0  0
 15 16  1  0  0  0
 15 19  2  0  0  0
 16 17  1  0  0  0
 16 21  1  0  0  0
 17 18  2  0  0  0
 18 19  1  0  0  0
 19 20  1  0  0  0
M  END
> <minimizedAffinity>
-7.15904

$$$$
729


 27 30  0  0  0  0  0  0  0  0999 V2000
   22.2164   78.9132   12.8246 N   0  0  0  0  0  0  0  0  0  0  0  0
   23.5278   78.4003   13.1029 C   0  0  0  0  0  0  0  0  0  0  0  0
   23.5897   78.2750   14.6277 C   0  0  0  0  0  0  0  0  0  0  0  0
   22.5730   79.1207   15.2633 N   0  0  0  0  0  0  0  0  0  0  0  0
   22.5406   80.4272   14.6011 C   0  0  0  0  0  0  0  0  0  0  0  0
   21.9778   80.2859   13.1989 C   0  0  0  0  0  0  0  0  0  0  0  0
   22.7299   80.3104    9.9950 Br  0  0  0  0  0  0  0  0  0  0  0  0
   21.4012   78.9654    9.8511 C   0  0  0  0  0  0  0  0  0  0  0  0
   20.7183   78.5774    8.7591 N   0  0  0  0  0  0  0  0  0  0  0  0
   19.8628   77.6296    9.0330 N   0  0  0  0  0  0  0  0  0  0  0  0
   19.9648   77.3626   10.3491 C   0  0  0  0  0  0  0  0  0  0  0  0
   19.3312   76.5018   11.1641 N   0  0  0  0  0  0  0  0  0  0  0  0
   19.6002   76.4208   12.4702 C   0  0  0  0  0  0  0  0  0  0  0  0
   20.5278   77.2155   12.9903 N   0  0  0  0  0  0  0  0  0  0  0  0
   21.2204   78.1147   12.2517 C   0  0  0  0  0  0  0  0  0  0  0  0
   20.9369   78.1969   10.8933 C   0  0  0  0  0  0  0  0  0  0  0  0
   18.9339   76.9324    8.1548 C   0  0  0  0  0  0  0  0  0  0  0  0
   23.0044   79.3176   16.6384 C   0  0  0  0  0  0  0  0  0  0  0  0
   24.4129   78.6745   16.7619 C   0  0  0  0  0  0  0  0  0  0  0  0
   22.0988   78.6413   17.5838 C   0  0  0  0  0  0  0  0  0  0  0  0
   22.6200   77.5817   18.1300 O   0  0  0  0  0  0  0  0  0  0  0  0
   20.7878   78.9887   17.9470 N   0  0  0  0  0  0  0  0  0  0  0  0
   19.9858   80.0735   17.4678 C   0  0  0  0  0  0  0  0  0  0  0  0
   19.2568   80.8378   18.5532 C   0  0  0  0  0  0  0  0  0  0  0  0
   18.7928   79.9995   19.6939 C   0  0  0  0  0  0  0  0  0  0  0  0
   19.8411   79.0030   20.1410 C   0  0  0  0  0  0  0  0  0  0  0  0
   20.1218   78.1255   18.9490 C   0  0  0  0  0  0  0  0  0  0  0  0
  7  8  1  0  0  0
  8  9  2  0  0  0
  8 16  1  0  0  0
  9 10  1  0  0  0
 10 11  1  0  0  0
 10 17  1  0  0  0
 11 12  1  0  0  0
 11 16  2  0  0  0
 12 13  2  0  0  0
 13 14  1  0  0  0
 14 15  2  0  0  0
 15 16  1  0  0  0
 15  1  1  0  0  0
  1  2  1  0  0  0
  1  6  1  0  0  0
  2  3  1  0  0  0
  3  4  1  0  0  0
  4  5  1  0  0  0
  4 18  1  0  0  0
  5  6  1  0  0  0
 18 19  1  0  0  0
 18 20  1  0  0  0
 20 21  2  0  0  0
 20 22  1  0  0  0
 22 23  1  0  0  0
 22 27  1  0  0  0
 23 24  1  0  0  0
 24 25  1  0  0  0
 25 26  1  0  0  0
 26 27  1  0  0  0
M  END
> <minimizedAffinity>
-8.57722

$$$$
737


 21 24  0  0  0  0  0  0  0  0999 V2000
   19.5328   75.4593   13.2979 C   0  0  0  0  0  0  0  0  0  0  0  0
   19.2011   74.2455   13.6751 C   0  0  0  0  0  0  0  0  0  0  0  0
   18.6451   73.2658   12.7290 C   0  0  0  0  0  0  0  0  0  0  0  0
   18.3069   72.0420   13.0944 C   0  0  0  0  0  0  0  0  0  0  0  0
   18.4974   73.7271   11.3947 N   0  0  0  0  0  0  0  0  0  0  0  0
   18.8657   75.0561   11.0018 C   0  0  0  0  0  0  0  0  0  0  0  0
   19.3704   75.8806   11.9584 N   0  0  0  0  0  0  0  0  0  0  0  0
   19.6270   77.0379   11.3379 N   0  0  0  0  0  0  0  0  0  0  0  0
   19.3046   76.9707   10.0379 C   0  0  0  0  0  0  0  0  0  0  0  0
   18.8306   75.7298    9.8389 N   0  0  0  0  0  0  0  0  0  0  0  0
   18.1085   73.0800   10.6760 H   0  0  0  0  0  0  0  0  0  0  0  0
   23.6348   79.1248   17.4988 Br  0  0  0  0  0  0  0  0  0  0  0  0
   22.0737   78.0224   17.3462 C   0  0  0  0  0  0  0  0  0  0  0  0
   21.3656   77.7364   16.2476 N   0  0  0  0  0  0  0  0  0  0  0  0
   20.3527   76.9330   16.5673 C   0  0  0  0  0  0  0  0  0  0  0  0
   20.4287   76.7088   17.9055 N   0  0  0  0  0  0  0  0  0  0  0  0
   21.4850   77.3706   18.4102 C   0  0  0  0  0  0  0  0  0  0  0  0
   19.3979   76.4584   15.5223 C   0  0  0  0  0  0  0  0  0  0  0  0
   20.0610   76.3567   14.2460 N   0  0  0  0  0  0  0  0  0  0  0  0
   21.2310   77.1211   13.8818 C   0  0  0  0  0  0  0  0  0  0  0  0
   21.5824   78.1800   14.8851 C   0  0  0  0  0  0  0  0  0  0  0  0
 12 13  1  0  0  0
 13 14  1  0  0  0
 13 17  2  0  0  0
 14 15  1  0  0  0
 14 21  1  0  0  0
 15 16  2  0  0  0
 15 18  1  0  0  0
 16 17  1  0  0  0
 18 19  1  0  0  0
 19 20  1  0  0  0
 19  1  1  0  0  0
 20 21  1  0  0  0
  1  2  2  0  0  0
  1  7  1  0  0  0
  2  3  1  0  0  0
  3  4  2  0  0  0
  3  5  1  0  0  0
  5  6  1  0  0  0
  6  7  1  0  0  0
  6 10  2  0  0  0
  7  8  1  0  0  0
  8  9  2  0  0  0
  9 10  1  0  0  0
  5 11  1  0  0  0
M  END
> <minimizedAffinity>
-8.77570

$$$$
743


 30 33  0  0  0  0  0  0  0  0999 V2000
   21.8136   79.5036   11.7493 C   0  0  0  0  0  0  0  0  0  0  0  0
   21.2245   80.5318   11.2760 O   0  0  0  0  0  0  0  0  0  0  0  0
   22.7316   79.6348   12.8260 N   0  0  0  0  0  0  0  0  0  0  0  0
   22.9943   80.9338   13.3811 C   0  0  0  0  0  0  0  0  0  0  0  0
   23.2840   80.9227   14.8508 C   0  0  0  0  0  0  0  0  0  0  0  0
   23.8095   79.6088   15.3496 C   0  0  0  0  0  0  0  0  0  0  0  0
   24.6641   79.7997   16.4819 N   0  0  0  0  0  0  0  0  0  0  0  0
   25.2419   78.6036   16.9931 C   0  0  0  0  0  0  0  0  0  0  0  0
   24.3123   77.4408   17.1071 C   0  0  0  0  0  0  0  0  0  0  0  0
   22.9322   77.7499   16.6537 C   0  0  0  0  0  0  0  0  0  0  0  0
   21.7610   77.1705   16.9212 N   0  0  0  0  0  0  0  0  0  0  0  0
   20.7865   77.8186   16.2681 C   0  0  0  0  0  0  0  0  0  0  0  0
   21.3288   78.8261   15.5711 N   0  0  0  0  0  0  0  0  0  0  0  0
   22.6471   78.7900   15.8032 C   0  0  0  0  0  0  0  0  0  0  0  0
   24.4834   78.8504   14.2173 C   0  0  0  0  0  0  0  0  0  0  0  0
   23.3595   78.4069   13.3043 C   0  0  0  0  0  0  0  0  0  0  0  0
   25.4308   80.4505   16.2029 H   0  0  0  0  0  0  0  0  0  0  0  0
   20.8122   79.5269   14.9482 H   0  0  0  0  0  0  0  0  0  0  0  0
   21.4886   78.2122   11.1233 C   0  0  0  0  0  0  0  0  0  0  0  0
   20.0157   77.9628   11.0180 C   0  0  0  0  0  0  0  0  0  0  0  0
   19.1295   75.6260   10.9728 C   0  0  0  0  0  0  0  0  0  0  0  0
   19.1020   75.6872    9.7080 O   0  0  0  0  0  0  0  0  0  0  0  0
   19.5903   76.7693   11.6801 N   0  0  0  0  0  0  0  0  0  0  0  0
   19.6138   76.7224   12.7165 H   0  0  0  0  0  0  0  0  0  0  0  0
   16.7601   70.8761   11.6503 Br  0  0  0  0  0  0  0  0  0  0  0  0
   17.7567   72.4985   11.9291 C   0  0  0  0  0  0  0  0  0  0  0  0
   17.9860   73.4685   11.0956 O   0  0  0  0  0  0  0  0  0  0  0  0
   18.6967   74.4120   11.6178 C   0  0  0  0  0  0  0  0  0  0  0  0
   18.9824   74.0542   12.9409 C   0  0  0  0  0  0  0  0  0  0  0  0
   18.3724   72.8299   13.1147 C   0  0  0  0  0  0  0  0  0  0  0  0
 25 26  1  0  0  0
 26 27  1  0  0  0
 26 30  2  0  0  0
 27 28  1  0  0  0
 28 29  2  0  0  0
 28 21  1  0  0  0
 29 30  1  0  0  0
 21 22  2  0  0  0
 21 23  1  0  0  0
 23 20  1  0  0  0
 20 19  1  0  0  0
 19  1  1  0  0  0
  1  2  2  0  0  0
  1  3  1  0  0  0
  3  4  1  0  0  0
  3 16  1  0  0  0
  4  5  1  0  0  0
  5  6  1  0  0  0
  6  7  1  0  0  0
  6 14  1  0  0  0
  6 15  1  0  0  0
  7  8  1  0  0  0
  8  9  1  0  0  0
  9 10  1  0  0  0
 10 11  1  0  0  0
 10 14  2  0  0  0
 11 12  2  0  0  0
 12 13  1  0  0  0
 13 14  1  0  0  0
 15 16  1  0  0  0
 23 24  1  0  0  0
  7 17  1  0  0  0
 13 18  1  0  0  0
M  END
> <minimizedAffinity>
-9.62210

$$$$
746


 30 33  0  0  0  0  0  0  0  0999 V2000
   23.3076   78.7462   14.1761 C   0  0  0  0  0  0  0  0  0  0  0  0
   23.4854   77.4947   13.9718 O   0  0  0  0  0  0  0  0  0  0  0  0
   23.1529   79.1565   15.5052 N   0  0  0  0  0  0  0  0  0  0  0  0
   22.9497   80.5402   15.8823 C   0  0  0  0  0  0  0  0  0  0  0  0
   21.6132   80.6438   16.5498 C   0  0  0  0  0  0  0  0  0  0  0  0
   21.4579   79.6539   17.6603 C   0  0  0  0  0  0  0  0  0  0  0  0
   21.1395   80.3769   18.8791 N   0  0  0  0  0  0  0  0  0  0  0  0
   19.8383   80.9953   18.7041 C   0  0  0  0  0  0  0  0  0  0  0  0
   18.8050   79.8996   18.9898 C   0  0  0  0  0  0  0  0  0  0  0  0
   19.1121   78.8014   18.0423 C   0  0  0  0  0  0  0  0  0  0  0  0
   18.3316   77.7858   17.6257 N   0  0  0  0  0  0  0  0  0  0  0  0
   19.0567   77.0522   16.7669 C   0  0  0  0  0  0  0  0  0  0  0  0
   20.2734   77.6158   16.6591 N   0  0  0  0  0  0  0  0  0  0  0  0
   20.3422   78.7072   17.4393 C   0  0  0  0  0  0  0  0  0  0  0  0
   22.7730   78.9029   17.8682 C   0  0  0  0  0  0  0  0  0  0  0  0
   23.1929   78.2156   16.6100 C   0  0  0  0  0  0  0  0  0  0  0  0
   21.8196   81.1713   19.0406 H   0  0  0  0  0  0  0  0  0  0  0  0
   17.3388   77.5597   17.8872 H   0  0  0  0  0  0  0  0  0  0  0  0
   23.2906   79.5974   12.9744 C   0  0  0  0  0  0  0  0  0  0  0  0
   23.2294   81.0595   13.2304 C   0  0  0  0  0  0  0  0  0  0  0  0
   22.4494   78.7454   10.7637 C   0  0  0  0  0  0  0  0  0  0  0  0
   23.6193   78.6049   10.3525 O   0  0  0  0  0  0  0  0  0  0  0  0
   22.2241   79.2367   12.0621 N   0  0  0  0  0  0  0  0  0  0  0  0
   21.2448   79.3502   12.3950 H   0  0  0  0  0  0  0  0  0  0  0  0
   19.2086   75.6467    7.8456 Br  0  0  0  0  0  0  0  0  0  0  0  0
   19.9936   77.1830    8.7000 C   0  0  0  0  0  0  0  0  0  0  0  0
   21.0557   77.1709    9.4631 O   0  0  0  0  0  0  0  0  0  0  0  0
   21.3341   78.4012    9.8960 C   0  0  0  0  0  0  0  0  0  0  0  0
   20.3755   79.2337    9.3624 C   0  0  0  0  0  0  0  0  0  0  0  0
   19.5171   78.4805    8.6024 C   0  0  0  0  0  0  0  0  0  0  0  0
 25 26  1  0  0  0
 26 27  1  0  0  0
 26 30  2  0  0  0
 27 28  1  0  0  0
 28 29  2  0  0  0
 28 21  1  0  0  0
 29 30  1  0  0  0
 21 22  2  0  0  0
 21 23  1  0  0  0
 23 19  1  0  0  0
 19 20  1  0  0  0
 19  1  1  0  0  0
  1  2  2  0  0  0
  1  3  1  0  0  0
  3  4  1  0  0  0
  3 16  1  0  0  0
  4  5  1  0  0  0
  5  6  1  0  0  0
  6  7  1  0  0  0
  6 14  1  0  0  0
  6 15  1  0  0  0
  7  8  1  0  0  0
  8  9  1  0  0  0
  9 10  1  0  0  0
 10 11  1  0  0  0
 10 14  2  0  0  0
 11 12  1  0  0  0
 12 13  2  0  0  0
 13 14  1  0  0  0
 15 16  1  0  0  0
 23 24  1  0  0  0
  7 17  1  0  0  0
 11 18  1  0  0  0
M  END
> <minimizedAffinity>
-8.74902

$$$$
754


 27 30  0  0  0  0  0  0  0  0999 V2000
   19.9494   80.7044   20.3983 C   0  0  0  0  0  0  0  0  0  0  0  0
   20.5187   80.4369   21.4660 O   0  0  0  0  0  0  0  0  0  0  0  0
   19.5571   79.6583   19.5275 N   0  0  0  0  0  0  0  0  0  0  0  0
   19.8214   78.2811   19.8912 C   0  0  0  0  0  0  0  0  0  0  0  0
   20.7112   77.5873   18.8889 C   0  0  0  0  0  0  0  0  0  0  0  0
   20.4520   78.2285   17.5891 N   0  0  0  0  0  0  0  0  0  0  0  0
   19.1108   78.6387   17.3497 C   0  0  0  0  0  0  0  0  0  0  0  0
   18.8888   79.8634   18.2567 C   0  0  0  0  0  0  0  0  0  0  0  0
   21.5570   78.3700   16.7151 C   0  0  0  0  0  0  0  0  0  0  0  0
   21.4036   78.3400   15.3622 N   0  0  0  0  0  0  0  0  0  0  0  0
   22.4424   78.4705   14.5225 C   0  0  0  0  0  0  0  0  0  0  0  0
   23.6908   78.6377   15.0098 N   0  0  0  0  0  0  0  0  0  0  0  0
   23.9382   78.6805   16.3306 C   0  0  0  0  0  0  0  0  0  0  0  0
   22.8296   78.5398   17.1786 C   0  0  0  0  0  0  0  0  0  0  0  0
   25.3048   78.8642   16.8895 C   0  0  0  0  0  0  0  0  0  0  0  0
   22.2300   78.4334   13.1214 N   0  0  0  0  0  0  0  0  0  0  0  0
   21.0208   77.9291   12.5173 C   0  0  0  0  0  0  0  0  0  0  0  0
   20.4594   78.9432   11.5660 C   0  0  0  0  0  0  0  0  0  0  0  0
   21.3338   79.9990   11.3154 O   0  0  0  0  0  0  0  0  0  0  0  0
   22.6081   79.5235   11.0191 C   0  0  0  0  0  0  0  0  0  0  0  0
   23.2659   78.9217   12.2369 C   0  0  0  0  0  0  0  0  0  0  0  0
   20.1582   85.4443   17.8426 Br  0  0  0  0  0  0  0  0  0  0  0  0
   19.7460   84.0222   19.0866 C   0  0  0  0  0  0  0  0  0  0  0  0
   20.1756   82.8123   19.0792 O   0  0  0  0  0  0  0  0  0  0  0  0
   19.6961   82.1178   20.0664 C   0  0  0  0  0  0  0  0  0  0  0  0
   18.8754   82.9542   20.7881 C   0  0  0  0  0  0  0  0  0  0  0  0
   18.9055   84.1739   20.1619 C   0  0  0  0  0  0  0  0  0  0  0  0
 22 23  1  0  0  0
 23 24  1  0  0  0
 23 27  2  0  0  0
 24 25  1  0  0  0
 25 26  2  0  0  0
 25  1  1  0  0  0
 26 27  1  0  0  0
  1  2  2  0  0  0
  1  3  1  0  0  0
  3  4  1  0  0  0
  3  8  1  0  0  0
  4  5  1  0  0  0
  5  6  1  0  0  0
  6  7  1  0  0  0
  6  9  1  0  0  0
  7  8  1  0  0  0
  9 10  2  0  0  0
  9 14  1  0  0  0
 10 11  1  0  0  0
 11 12  2  0  0  0
 11 16  1  0  0  0
 12 13  1  0  0  0
 13 14  2  0  0  0
 13 15  1  0  0  0
 16 17  1  0  0  0
 16 21  1  0  0  0
 17 18  1  0  0  0
 18 19  1  0  0  0
 19 20  1  0  0  0
 20 21  1  0  0  0
M  END
> <minimizedAffinity>
-8.41305

$$$$
755


 28 31  0  0  0  0  0  0  0  0999 V2000
   19.4765   80.0642   19.7925 C   0  0  0  0  0  0  0  0  0  0  0  0
   18.4845   79.7181   20.4512 O   0  0  0  0  0  0  0  0  0  0  0  0
   20.2149   79.1196   19.0319 N   0  0  0  0  0  0  0  0  0  0  0  0
   21.3823   79.5360   18.2593 C   0  0  0  0  0  0  0  0  0  0  0  0
   21.9473   78.3458   17.4868 C   0  0  0  0  0  0  0  0  0  0  0  0
   20.8410   77.7246   16.7854 N   0  0  0  0  0  0  0  0  0  0  0  0
   19.7133   77.2633   17.5482 C   0  0  0  0  0  0  0  0  0  0  0  0
   19.8590   77.7158   18.9785 C   0  0  0  0  0  0  0  0  0  0  0  0
   20.8546   77.5651   15.3610 C   0  0  0  0  0  0  0  0  0  0  0  0
   21.6535   78.3034   14.5779 N   0  0  0  0  0  0  0  0  0  0  0  0
   21.6436   78.1331   13.2510 C   0  0  0  0  0  0  0  0  0  0  0  0
   20.8416   77.2273   12.6578 N   0  0  0  0  0  0  0  0  0  0  0  0
   20.0158   76.4545   13.3856 C   0  0  0  0  0  0  0  0  0  0  0  0
   20.0414   76.6448   14.7511 C   0  0  0  0  0  0  0  0  0  0  0  0
   22.5327   78.9550   12.3927 C   0  0  0  0  0  0  0  0  0  0  0  0
   19.1548   75.4886   12.8092 N   0  0  0  0  0  0  0  0  0  0  0  0
   18.4833   74.5146   13.6451 C   0  0  0  0  0  0  0  0  0  0  0  0
   17.4217   73.8482   12.7952 C   0  0  0  0  0  0  0  0  0  0  0  0
   18.0626   73.1778   11.6964 N   0  0  0  0  0  0  0  0  0  0  0  0
   19.0338   73.9578   10.9959 C   0  0  0  0  0  0  0  0  0  0  0  0
   18.8981   75.4148   11.3837 C   0  0  0  0  0  0  0  0  0  0  0  0
   18.5253   71.8787   12.1136 C   0  0  0  0  0  0  0  0  0  0  0  0
   20.2830   85.0498   17.9765 Br  0  0  0  0  0  0  0  0  0  0  0  0
   20.2548   83.5202   19.1215 C   0  0  0  0  0  0  0  0  0  0  0  0
   19.7872   82.3379   18.8104 O   0  0  0  0  0  0  0  0  0  0  0  0
   19.9006   81.4833   19.7966 C   0  0  0  0  0  0  0  0  0  0  0  0
   20.4909   82.1660   20.8328 C   0  0  0  0  0  0  0  0  0  0  0  0
   20.7189   83.4529   20.4176 C   0  0  0  0  0  0  0  0  0  0  0  0
 23 24  1  0  0  0
 24 25  1  0  0  0
 24 28  2  0  0  0
 25 26  1  0  0  0
 26 27  2  0  0  0
 26  1  1  0  0  0
 27 28  1  0  0  0
  1  2  2  0  0  0
  1  3  1  0  0  0
  3  4  1  0  0  0
  3  8  1  0  0  0
  4  5  1  0  0  0
  5  6  1  0  0  0
  6  7  1  0  0  0
  6  9  1  0  0  0
  7  8  1  0  0  0
  9 10  2  0  0  0
  9 14  1  0  0  0
 10 11  1  0  0  0
 11 12  2  0  0  0
 11 15  1  0  0  0
 12 13  1  0  0  0
 13 14  2  0  0  0
 13 16  1  0  0  0
 16 17  1  0  0  0
 16 21  1  0  0  0
 17 18  1  0  0  0
 18 19  1  0  0  0
 19 20  1  0  0  0
 19 22  1  0  0  0
 20 21  1  0  0  0
M  END
> <minimizedAffinity>
-9.98315

$$$$
767


 32 35  0  0  0  0  0  0  0  0999 V2000
   22.8811   77.9952   15.9518 C   0  0  0  0  0  0  0  0  0  0  0  0
   20.8300   76.7761   15.2481 C   0  0  0  0  0  0  0  0  0  0  0  0
   20.2620   77.1507   16.3295 O   0  0  0  0  0  0  0  0  0  0  0  0
   22.1721   77.1883   15.0179 N   0  0  0  0  0  0  0  0  0  0  0  0
   22.6394   76.8885   14.1421 H   0  0  0  0  0  0  0  0  0  0  0  0
   19.1616   74.2834   13.1894 C   0  0  0  0  0  0  0  0  0  0  0  0
   18.9180   75.4630   12.5751 N   0  0  0  0  0  0  0  0  0  0  0  0
   19.4814   76.4276   13.2449 O   0  0  0  0  0  0  0  0  0  0  0  0
   20.1006   75.9497   14.2941 C   0  0  0  0  0  0  0  0  0  0  0  0
   19.9022   74.6268   14.2575 N   0  0  0  0  0  0  0  0  0  0  0  0
   16.0225   70.3543   11.3277 Br  0  0  0  0  0  0  0  0  0  0  0  0
   17.4791   71.3439   12.0329 C   0  0  0  0  0  0  0  0  0  0  0  0
   17.5506   72.6123   12.2998 O   0  0  0  0  0  0  0  0  0  0  0  0
   18.7188   72.9562   12.7795 C   0  0  0  0  0  0  0  0  0  0  0  0
   19.4781   71.8015   12.8287 C   0  0  0  0  0  0  0  0  0  0  0  0
   18.7032   70.7541   12.3539 C   0  0  0  0  0  0  0  0  0  0  0  0
   22.6354   79.4765   15.7583 C   0  0  0  0  0  0  0  0  0  0  0  0
   22.2915   80.1244   17.0161 N   0  0  0  0  0  0  0  0  0  0  0  0
   20.9698   80.5550   17.2226 C   0  0  0  0  0  0  0  0  0  0  0  0
   20.1622   80.3289   16.2520 O   0  0  0  0  0  0  0  0  0  0  0  0
   22.9953   80.2722   17.7618 H   0  0  0  0  0  0  0  0  0  0  0  0
   20.4217   81.2117   18.3819 C   0  0  0  0  0  0  0  0  0  0  0  0
   20.3664   82.6048   18.3949 C   0  0  0  0  0  0  0  0  0  0  0  0
   19.8401   83.2554   19.4825 C   0  0  0  0  0  0  0  0  0  0  0  0
   19.3741   82.5476   20.5465 C   0  0  0  0  0  0  0  0  0  0  0  0
   18.8392   83.2149   21.6514 C   0  0  0  0  0  0  0  0  0  0  0  0
   18.7660   84.5857   21.7014 C   0  0  0  0  0  0  0  0  0  0  0  0
   19.2383   85.2936   20.6259 C   0  0  0  0  0  0  0  0  0  0  0  0
   19.7685   84.6510   19.5293 C   0  0  0  0  0  0  0  0  0  0  0  0
   19.4391   81.2480   20.5043 O   0  0  0  0  0  0  0  0  0  0  0  0
   19.9352   80.5561   19.4849 C   0  0  0  0  0  0  0  0  0  0  0  0
   19.9400   79.3057   19.5720 O   0  0  0  0  0  0  0  0  0  0  0  0
 11 12  1  0  0  0
 12 13  1  0  0  0
 12 16  2  0  0  0
 13 14  1  0  0  0
 14 15  2  0  0  0
 14  6  1  0  0  0
 15 16  1  0  0  0
  6  7  2  0  0  0
  6 10  1  0  0  0
  7  8  1  0  0  0
  8  9  1  0  0  0
  9 10  2  0  0  0
  9  2  1  0  0  0
  2  3  2  0  0  0
  2  4  1  0  0  0
  4  1  1  0  0  0
  1 17  1  0  0  0
 17 18  1  0  0  0
 18 19  1  0  0  0
 19 20  2  0  0  0
 19 22  1  0  0  0
 22 23  2  0  0  0
 22 31  1  0  0  0
 23 24  1  0  0  0
 24 25  2  0  0  0
 24 29  1  0  0  0
 25 26  1  0  0  0
 25 30  1  0  0  0
 26 27  2  0  0  0
 27 28  1  0  0  0
 28 29  2  0  0  0
 30 31  1  0  0  0
 31 32  2  0  0  0
  4  5  1  0  0  0
 18 21  1  0  0  0
M  END
> <minimizedAffinity>
-11.15935

$$$$
769


 26 29  0  0  0  0  0  0  0  0999 V2000
   19.4019   80.4288   19.4387 C   0  0  0  0  0  0  0  0  0  0  0  0
   18.3845   79.7449   19.9275 O   0  0  0  0  0  0  0  0  0  0  0  0
   20.2787   79.7080   18.6416 N   0  0  0  0  0  0  0  0  0  0  0  0
   20.0127   78.2659   18.4062 C   0  0  0  0  0  0  0  0  0  0  0  0
   19.9408   78.0239   16.9172 C   0  0  0  0  0  0  0  0  0  0  0  0
   21.1430   78.4390   16.3103 N   0  0  0  0  0  0  0  0  0  0  0  0
   22.0619   78.9852   17.2494 C   0  0  0  0  0  0  0  0  0  0  0  0
   21.4399   80.1891   17.9971 C   0  0  0  0  0  0  0  0  0  0  0  0
   18.8357   84.2089   23.1955 Br  0  0  0  0  0  0  0  0  0  0  0  0
   19.1419   83.5863   21.4438 C   0  0  0  0  0  0  0  0  0  0  0  0
   19.1475   82.2213   21.1412 C   0  0  0  0  0  0  0  0  0  0  0  0
   19.3748   81.8185   19.8530 C   0  0  0  0  0  0  0  0  0  0  0  0
   19.5915   82.8227   18.9048 C   0  0  0  0  0  0  0  0  0  0  0  0
   19.5766   84.0749   19.2334 O   0  0  0  0  0  0  0  0  0  0  0  0
   19.3660   84.4888   20.4330 C   0  0  0  0  0  0  0  0  0  0  0  0
   19.3721   85.7278   20.6533 O   0  0  0  0  0  0  0  0  0  0  0  0
   21.7589   77.5052   15.4222 C   0  0  0  0  0  0  0  0  0  0  0  0
   22.0329   78.0040   14.0626 C   0  0  0  0  0  0  0  0  0  0  0  0
   21.1343   78.0180   13.0464 C   0  0  0  0  0  0  0  0  0  0  0  0
   21.4848   78.5007   11.8100 C   0  0  0  0  0  0  0  0  0  0  0  0
   22.7532   78.9707   11.6021 C   0  0  0  0  0  0  0  0  0  0  0  0
   23.6824   78.9667   12.6180 C   0  0  0  0  0  0  0  0  0  0  0  0
   23.3087   78.4843   13.8301 C   0  0  0  0  0  0  0  0  0  0  0  0
   22.8784   79.4018   10.2924 O   0  0  0  0  0  0  0  0  0  0  0  0
   21.7756   78.8495    9.5877 C   0  0  0  0  0  0  0  0  0  0  0  0
   20.8010   78.6440   10.5926 O   0  0  0  0  0  0  0  0  0  0  0  0
  9 10  1  0  0  0
 10 11  2  0  0  0
 10 15  1  0  0  0
 11 12  1  0  0  0
 12 13  2  0  0  0
 12  1  1  0  0  0
 13 14  1  0  0  0
 14 15  1  0  0  0
 15 16  2  0  0  0
  1  2  2  0  0  0
  1  3  1  0  0  0
  3  4  1  0  0  0
  3  8  1  0  0  0
  4  5  1  0  0  0
  5  6  1  0  0  0
  6  7  1  0  0  0
  6 17  1  0  0  0
  7  8  1  0  0  0
 17 18  1  0  0  0
 18 19  2  0  0  0
 18 23  1  0  0  0
 19 20  1  0  0  0
 20 21  2  0  0  0
 20 26  1  0  0  0
 21 22  1  0  0  0
 21 24  1  0  0  0
 22 23  2  0  0  0
 24 25  1  0  0  0
 25 26  1  0  0  0
M  END
> <minimizedAffinity>
-9.80793

$$$$
776


 38 41  0  0  0  0  0  0  0  0999 V2000
   21.7160   77.6741   16.3532 C   0  0  0  0  0  0  0  0  0  0  0  0
   23.0517   78.2851   15.9106 C   0  0  0  0  0  0  0  0  0  0  0  0
   22.7907   79.3567   14.9085 C   0  0  0  0  0  0  0  0  0  0  0  0
   22.1497   78.7320   13.6897 C   0  0  0  0  0  0  0  0  0  0  0  0
   21.5906   77.4962   13.9561 O   0  0  0  0  0  0  0  0  0  0  0  0
   20.8713   77.4547   15.1425 C   0  0  0  0  0  0  0  0  0  0  0  0
   21.1963   79.7198   13.1229 C   0  0  0  0  0  0  0  0  0  0  0  0
   20.5647   79.1132   11.8603 C   0  0  0  0  0  0  0  0  0  0  0  0
   21.5909   78.9930   10.8780 N   0  0  0  0  0  0  0  0  0  0  0  0
   22.9769   79.2623   11.3890 C   0  0  0  0  0  0  0  0  0  0  0  0
   23.2387   78.5224   12.6591 C   0  0  0  0  0  0  0  0  0  0  0  0
   21.4202   78.6575    9.5491 C   0  0  0  0  0  0  0  0  0  0  0  0
   22.5228   78.6314    8.8295 O   0  0  0  0  0  0  0  0  0  0  0  0
   23.7567   77.2633   15.2696 O   0  0  0  0  0  0  0  0  0  0  0  0
   23.8598   78.7310   17.0861 C   0  0  0  0  0  0  0  0  0  0  0  0
   23.4148   76.3612   15.4926 H   0  0  0  0  0  0  0  0  0  0  0  0
   20.2398   82.3177   18.3481 Br  0  0  0  0  0  0  0  0  0  0  0  0
   20.3703   80.4227   18.4632 C   0  0  0  0  0  0  0  0  0  0  0  0
   20.9633   79.7456   17.4278 C   0  0  0  0  0  0  0  0  0  0  0  0
   21.1038   78.4079   17.4138 N   0  0  0  0  0  0  0  0  0  0  0  0
   20.6093   77.7653   18.5148 C   0  0  0  0  0  0  0  0  0  0  0  0
   20.7038   76.5048   18.5764 O   0  0  0  0  0  0  0  0  0  0  0  0
   20.0312   78.3879   19.5297 N   0  0  0  0  0  0  0  0  0  0  0  0
   19.8912   79.7243   19.5439 C   0  0  0  0  0  0  0  0  0  0  0  0
   19.3506   80.3520   20.4873 O   0  0  0  0  0  0  0  0  0  0  0  0
   19.6636   77.8717   20.3562 H   0  0  0  0  0  0  0  0  0  0  0  0
   20.2497   78.3312    8.8145 C   0  0  0  0  0  0  0  0  0  0  0  0
   20.2085   77.1620    8.0335 C   0  0  0  0  0  0  0  0  0  0  0  0
   19.1463   76.7335    7.3029 C   0  0  0  0  0  0  0  0  0  0  0  0
   17.9905   77.5405    7.3418 C   0  0  0  0  0  0  0  0  0  0  0  0
   18.0055   78.6701    8.0863 C   0  0  0  0  0  0  0  0  0  0  0  0
   19.1223   79.0867    8.8308 C   0  0  0  0  0  0  0  0  0  0  0  0
   19.1468   75.5948    6.5538 O   0  0  0  0  0  0  0  0  0  0  0  0
   18.2884   74.5376    6.4948 C   0  0  0  0  0  0  0  0  0  0  0  0
   17.3726   74.5950    5.3204 C   0  0  0  0  0  0  0  0  0  0  0  0
   18.1409   74.9121    4.1157 N   0  0  0  0  0  0  0  0  0  0  0  0
   18.5992   74.0801    3.7165 H   0  0  0  0  0  0  0  0  0  0  0  0
   18.7447   75.7317    4.2316 H   0  0  0  0  0  0  0  0  0  0  0  0
 17 18  1  0  0  0
 18 19  2  0  0  0
 18 24  1  0  0  0
 19 20  1  0  0  0
 20 21  1  0  0  0
 20  1  1  0  0  0
 21 22  2  0  0  0
 21 23  1  0  0  0
 23 24  1  0  0  0
 24 25  2  0  0  0
  1  2  1  0  0  0
  1  6  1  0  0  0
  2  3  1  0  0  0
  2 14  1  0  0  0
  2 15  1  0  0  0
  3  4  1  0  0  0
  4  5  1  0  0  0
  4  7  1  0  0  0
  4 11  1  0  0  0
  5  6  1  0  0  0
  7  8  1  0  0  0
  8  9  1  0  0  0
  9 10  1  0  0  0
  9 12  1  0  0  0
 10 11  1  0  0  0
 12 13  2  0  0  0
 12 27  1  0  0  0
 27 28  2  0  0  0
 27 32  1  0  0  0
 28 29  1  0  0  0
 29 30  2  0  0  0
 29 33  1  0  0  0
 30 31  1  0  0  0
 31 32  2  0  0  0
 33 34  1  0  0  0
 34 35  1  0  0  0
 35 36  1  0  0  0
 23 26  1  0  0  0
 36 37  1  0  0  0
 36 38  1  0  0  0
 14 16  1  0  0  0
M  END
> <minimizedAffinity>
-10.40145

$$$$
783


 39 42  0  0  0  0  0  0  0  0999 V2000
   19.5226   79.1442    9.1114 C   0  0  0  0  0  0  0  0  0  0  0  0
   19.6665   78.7935   10.5382 C   0  0  0  0  0  0  0  0  0  0  0  0
   20.8109   79.5250   11.2499 C   0  0  0  0  0  0  0  0  0  0  0  0
   22.1103   79.3233   10.5108 C   0  0  0  0  0  0  0  0  0  0  0  0
   21.9008   78.9810    9.1883 O   0  0  0  0  0  0  0  0  0  0  0  0
   20.8535   79.5996    8.5787 C   0  0  0  0  0  0  0  0  0  0  0  0
   22.8924   78.2522   11.2496 C   0  0  0  0  0  0  0  0  0  0  0  0
   23.8737   78.8796   12.2030 C   0  0  0  0  0  0  0  0  0  0  0  0
   23.2484   80.0172   12.8278 N   0  0  0  0  0  0  0  0  0  0  0  0
   22.9876   81.1538   11.9569 C   0  0  0  0  0  0  0  0  0  0  0  0
   22.8743   80.6254   10.5453 C   0  0  0  0  0  0  0  0  0  0  0  0
   22.9397   80.0147   14.1903 C   0  0  0  0  0  0  0  0  0  0  0  0
   22.3805   81.0848   14.6298 O   0  0  0  0  0  0  0  0  0  0  0  0
   18.5053   79.2678   11.2009 O   0  0  0  0  0  0  0  0  0  0  0  0
   19.7359   77.3321   10.8418 C   0  0  0  0  0  0  0  0  0  0  0  0
   18.2929   80.1951   10.9437 H   0  0  0  0  0  0  0  0  0  0  0  0
   20.0149   74.2525    7.2366 Br  0  0  0  0  0  0  0  0  0  0  0  0
   19.0808   75.9245    7.3883 C   0  0  0  0  0  0  0  0  0  0  0  0
   19.5902   76.9351    8.1704 C   0  0  0  0  0  0  0  0  0  0  0  0
   18.9557   78.0970    8.2857 N   0  0  0  0  0  0  0  0  0  0  0  0
   17.8096   78.3089    7.6442 C   0  0  0  0  0  0  0  0  0  0  0  0
   17.1714   79.4098    7.7293 O   0  0  0  0  0  0  0  0  0  0  0  0
   17.2965   77.3346    6.8772 N   0  0  0  0  0  0  0  0  0  0  0  0
   17.8924   76.1380    6.7215 C   0  0  0  0  0  0  0  0  0  0  0  0
   17.3828   75.2389    5.9902 O   0  0  0  0  0  0  0  0  0  0  0  0
   16.3792   77.5046    6.3642 H   0  0  0  0  0  0  0  0  0  0  0  0
   23.1637   78.9748   15.1891 C   0  0  0  0  0  0  0  0  0  0  0  0
   24.2625   78.0835   14.8146 N   0  0  0  0  0  0  0  0  0  0  0  0
   24.2590   77.8938   13.7890 H   0  0  0  0  0  0  0  0  0  0  0  0
   24.1119   77.1567   15.2845 H   0  0  0  0  0  0  0  0  0  0  0  0
   23.4912   79.4737   16.5787 C   0  0  0  0  0  0  0  0  0  0  0  0
   22.3736   78.9836   17.4684 C   0  0  0  0  0  0  0  0  0  0  0  0
   22.2072   77.6420   17.6917 C   0  0  0  0  0  0  0  0  0  0  0  0
   21.1640   77.2335   18.5181 C   0  0  0  0  0  0  0  0  0  0  0  0
   20.3097   78.1370   19.1076 C   0  0  0  0  0  0  0  0  0  0  0  0
   20.5101   79.4801   18.8586 C   0  0  0  0  0  0  0  0  0  0  0  0
   21.5344   79.9160   18.0429 C   0  0  0  0  0  0  0  0  0  0  0  0
   19.2917   77.6740   19.9192 O   0  0  0  0  0  0  0  0  0  0  0  0
   18.3588   77.4345   19.5838 H   0  0  0  0  0  0  0  0  0  0  0  0
 17 18  1  0  0  0
 18 19  2  0  0  0
 18 24  1  0  0  0
 19 20  1  0  0  0
 20 21  1  0  0  0
 20  1  1  0  0  0
 21 22  2  0  0  0
 21 23  1  0  0  0
 23 24  1  0  0  0
 24 25  2  0  0  0
  1  2  1  0  0  0
  1  6  1  0  0  0
  2  3  1  0  0  0
  2 14  1  0  0  0
  2 15  1  0  0  0
  3  4  1  0  0  0
  4  5  1  0  0  0
  4  7  1  0  0  0
  4 11  1  0  0  0
  5  6  1  0  0  0
  7  8  1  0  0  0
  8  9  1  0  0  0
  9 10  1  0  0  0
  9 12  1  0  0  0
 10 11  1  0  0  0
 12 13  2  0  0  0
 12 27  1  0  0  0
 27 28  1  0  0  0
 27 31  1  0  0  0
 31 32  1  0  0  0
 32 33  2  0  0  0
 32 37  1  0  0  0
 33 34  1  0  0  0
 34 35  2  0  0  0
 35 36  1  0  0  0
 35 38  1  0  0  0
 36 37  2  0  0  0
 23 26  1  0  0  0
 28 29  1  0  0  0
 28 30  1  0  0  0
 38 39  1  0  0  0
 14 16  1  0  0  0
M  END
> <minimizedAffinity>
-8.57525

$$$$
784


 39 42  0  0  0  0  0  0  0  0999 V2000
   20.1417   79.4884   10.5515 C   0  0  0  0  0  0  0  0  0  0  0  0
   20.8718   78.1459   10.7202 C   0  0  0  0  0  0  0  0  0  0  0  0
   21.6581   78.3154   12.0275 C   0  0  0  0  0  0  0  0  0  0  0  0
   22.4838   79.5712   11.9908 C   0  0  0  0  0  0  0  0  0  0  0  0
   22.4389   80.1046   10.7254 O   0  0  0  0  0  0  0  0  0  0  0  0
   21.1748   80.5092   10.3042 C   0  0  0  0  0  0  0  0  0  0  0  0
   23.9236   79.1393   12.2341 C   0  0  0  0  0  0  0  0  0  0  0  0
   24.1800   79.0350   13.7163 C   0  0  0  0  0  0  0  0  0  0  0  0
   22.9122   78.8554   14.4437 N   0  0  0  0  0  0  0  0  0  0  0  0
   22.0313   79.9854   14.4267 C   0  0  0  0  0  0  0  0  0  0  0  0
   22.1334   80.5811   13.0248 C   0  0  0  0  0  0  0  0  0  0  0  0
   22.5736   77.6578   15.0727 C   0  0  0  0  0  0  0  0  0  0  0  0
   23.3485   76.6267   14.9977 O   0  0  0  0  0  0  0  0  0  0  0  0
   19.9954   77.0929   10.8668 O   0  0  0  0  0  0  0  0  0  0  0  0
   21.7695   77.8640    9.5573 C   0  0  0  0  0  0  0  0  0  0  0  0
   20.4395   76.2575   10.5724 H   0  0  0  0  0  0  0  0  0  0  0  0
   17.6326   77.2441    6.4930 Br  0  0  0  0  0  0  0  0  0  0  0  0
   17.7356   78.5119    7.8963 C   0  0  0  0  0  0  0  0  0  0  0  0
   18.8792   78.5355    8.6947 C   0  0  0  0  0  0  0  0  0  0  0  0
   19.0245   79.4001    9.7014 N   0  0  0  0  0  0  0  0  0  0  0  0
   17.9876   80.2667    9.9099 C   0  0  0  0  0  0  0  0  0  0  0  0
   18.0766   81.1038   10.8486 O   0  0  0  0  0  0  0  0  0  0  0  0
   16.8747   80.2681    9.1570 N   0  0  0  0  0  0  0  0  0  0  0  0
   16.7141   79.4029    8.1400 C   0  0  0  0  0  0  0  0  0  0  0  0
   15.6593   79.4037    7.4256 O   0  0  0  0  0  0  0  0  0  0  0  0
   16.1213   80.9701    9.3842 H   0  0  0  0  0  0  0  0  0  0  0  0
   21.3527   77.4779   15.8428 C   0  0  0  0  0  0  0  0  0  0  0  0
   20.7040   76.2349   15.5026 N   0  0  0  0  0  0  0  0  0  0  0  0
   19.8980   75.9456   14.4081 C   0  0  0  0  0  0  0  0  0  0  0  0
   19.5781   76.7499   13.5086 O   0  0  0  0  0  0  0  0  0  0  0  0
   19.3191   74.5553   14.2197 C   0  0  0  0  0  0  0  0  0  0  0  0
   20.8762   75.4453   16.1987 H   0  0  0  0  0  0  0  0  0  0  0  0
   21.6341   77.4906   17.3781 C   0  0  0  0  0  0  0  0  0  0  0  0
   20.5988   78.2772   18.0717 C   0  0  0  0  0  0  0  0  0  0  0  0
   20.0054   79.4038   17.7098 N   0  0  0  0  0  0  0  0  0  0  0  0
   19.0964   79.8092   18.6386 C   0  0  0  0  0  0  0  0  0  0  0  0
   19.1295   78.8893   19.6213 N   0  0  0  0  0  0  0  0  0  0  0  0
   20.0397   77.9474   19.2949 C   0  0  0  0  0  0  0  0  0  0  0  0
   18.5279   78.9430   20.4787 H   0  0  0  0  0  0  0  0  0  0  0  0
 17 18  1  0  0  0
 18 19  2  0  0  0
 18 24  1  0  0  0
 19 20  1  0  0  0
 20 21  1  0  0  0
 20  1  1  0  0  0
 21 22  2  0  0  0
 21 23  1  0  0  0
 23 24  1  0  0  0
 24 25  2  0  0  0
  1  2  1  0  0  0
  1  6  1  0  0  0
  2  3  1  0  0  0
  2 14  1  0  0  0
  2 15  1  0  0  0
  3  4  1  0  0  0
  4  5  1  0  0  0
  4  7  1  0  0  0
  4 11  1  0  0  0
  5  6  1  0  0  0
  7  8  1  0  0  0
  8  9  1  0  0  0
  9 10  1  0  0  0
  9 12  1  0  0  0
 10 11  1  0  0  0
 12 13  2  0  0  0
 12 27  1  0  0  0
 27 28  1  0  0  0
 27 33  1  0  0  0
 28 29  1  0  0  0
 29 30  2  0  0  0
 29 31  1  0  0  0
 33 34  1  0  0  0
 34 35  1  0  0  0
 34 38  2  0  0  0
 35 36  2  0  0  0
 36 37  1  0  0  0
 37 38  1  0  0  0
 23 26  1  0  0  0
 28 32  1  0  0  0
 37 39  1  0  0  0
 14 16  1  0  0  0
M  END
> <minimizedAffinity>
-7.72321

$$$$
786


 25 28  0  0  0  0  0  0  0  0999 V2000
   20.8484   76.7299   15.4492 N   0  0  0  0  0  0  0  0  0  0  0  0
   20.1288   76.9384   16.6362 C   0  0  0  0  0  0  0  0  0  0  0  0
   18.8969   77.1372   16.5930 O   0  0  0  0  0  0  0  0  0  0  0  0
   21.8720   76.5658   15.4970 H   0  0  0  0  0  0  0  0  0  0  0  0
   20.8156   76.9241   17.9412 C   0  0  0  0  0  0  0  0  0  0  0  0
   22.1337   77.6512   17.8534 C   0  0  0  0  0  0  0  0  0  0  0  0
   21.8377   79.0171   17.4656 N   0  0  0  0  0  0  0  0  0  0  0  0
   20.7341   79.6250   17.9305 C   0  0  0  0  0  0  0  0  0  0  0  0
   20.7232   80.8678   17.4080 N   0  0  0  0  0  0  0  0  0  0  0  0
   21.7693   81.0309   16.6532 N   0  0  0  0  0  0  0  0  0  0  0  0
   22.4697   79.8899   16.6804 C   0  0  0  0  0  0  0  0  0  0  0  0
   23.7453   79.7084   15.9207 C   0  0  0  0  0  0  0  0  0  0  0  0
   19.7550   79.0056   18.8369 C   0  0  0  0  0  0  0  0  0  0  0  0
   19.9208   77.5352   18.9882 C   0  0  0  0  0  0  0  0  0  0  0  0
   20.1550   76.7469   14.1803 C   0  0  0  0  0  0  0  0  0  0  0  0
   16.3896   70.3602   11.6483 Br  0  0  0  0  0  0  0  0  0  0  0  0
   17.6898   71.5367   12.4186 C   0  0  0  0  0  0  0  0  0  0  0  0
   17.5064   72.9011   12.4637 C   0  0  0  0  0  0  0  0  0  0  0  0
   18.4293   73.7413   13.0118 N   0  0  0  0  0  0  0  0  0  0  0  0
   19.5562   73.2150   13.5248 C   0  0  0  0  0  0  0  0  0  0  0  0
   20.3125   74.2165   14.0060 N   0  0  0  0  0  0  0  0  0  0  0  0
   19.6826   75.3893   13.8078 C   0  0  0  0  0  0  0  0  0  0  0  0
   18.4957   75.0749   13.1798 C   0  0  0  0  0  0  0  0  0  0  0  0
   19.7713   71.8400   13.4950 C   0  0  0  0  0  0  0  0  0  0  0  0
   18.8432   70.9929   12.9430 C   0  0  0  0  0  0  0  0  0  0  0  0
 16 17  1  0  0  0
 17 18  2  0  0  0
 17 25  1  0  0  0
 18 19  1  0  0  0
 19 20  1  0  0  0
 19 23  1  0  0  0
 20 21  2  0  0  0
 20 24  1  0  0  0
 21 22  1  0  0  0
 22 23  2  0  0  0
 22 15  1  0  0  0
 15  1  1  0  0  0
  1  2  1  0  0  0
  2  3  2  0  0  0
  2  5  1  0  0  0
  5  6  1  0  0  0
  5 14  1  0  0  0
  6  7  1  0  0  0
  7  8  1  0  0  0
  7 11  1  0  0  0
  8  9  2  0  0  0
  8 13  1  0  0  0
  9 10  1  0  0  0
 10 11  2  0  0  0
 11 12  1  0  0  0
 13 14  1  0  0  0
 24 25  2  0  0  0
  1  4  1  0  0  0
M  END
> <minimizedAffinity>
-10.21143

$$$$
789


 21 24  0  0  0  0  0  0  0  0999 V2000
   21.1833   77.1064   15.0725 C   0  0  0  0  0  0  0  0  0  0  0  0
   22.3583   77.3958   14.7193 O   0  0  0  0  0  0  0  0  0  0  0  0
   20.6388   77.7784   16.1962 N   0  0  0  0  0  0  0  0  0  0  0  0
   21.4074   78.7490   16.8856 C   0  0  0  0  0  0  0  0  0  0  0  0
   21.0422   78.9020   18.3148 C   0  0  0  0  0  0  0  0  0  0  0  0
   19.9628   78.0784   18.7791 N   0  0  0  0  0  0  0  0  0  0  0  0
   18.8375   78.1110   17.8634 C   0  0  0  0  0  0  0  0  0  0  0  0
   19.2999   77.4313   16.5888 C   0  0  0  0  0  0  0  0  0  0  0  0
   19.6798   78.5952   20.0834 C   0  0  0  0  0  0  0  0  0  0  0  0
   19.8593   80.0886   19.9711 C   0  0  0  0  0  0  0  0  0  0  0  0
   20.5505   80.3015   18.6429 C   0  0  0  0  0  0  0  0  0  0  0  0
   17.5966   70.8215   12.1269 Br  0  0  0  0  0  0  0  0  0  0  0  0
   18.2568   72.6108   12.3618 C   0  0  0  0  0  0  0  0  0  0  0  0
   19.0137   72.9612   13.4579 C   0  0  0  0  0  0  0  0  0  0  0  0
   19.4874   74.2216   13.6379 N   0  0  0  0  0  0  0  0  0  0  0  0
   20.2173   74.8015   14.5778 N   0  0  0  0  0  0  0  0  0  0  0  0
   20.4343   76.0968   14.3110 C   0  0  0  0  0  0  0  0  0  0  0  0
   19.7740   76.3070   13.1001 C   0  0  0  0  0  0  0  0  0  0  0  0
   19.1855   75.1278   12.6901 C   0  0  0  0  0  0  0  0  0  0  0  0
   18.4405   74.7928   11.6037 N   0  0  0  0  0  0  0  0  0  0  0  0
   17.9616   73.5555   11.4045 C   0  0  0  0  0  0  0  0  0  0  0  0
 12 13  1  0  0  0
 13 14  2  0  0  0
 13 21  1  0  0  0
 14 15  1  0  0  0
 15 16  1  0  0  0
 15 19  1  0  0  0
 16 17  2  0  0  0
 17 18  1  0  0  0
 17  1  1  0  0  0
 18 19  2  0  0  0
 19 20  1  0  0  0
 20 21  2  0  0  0
  1  2  2  0  0  0
  1  3  1  0  0  0
  3  4  1  0  0  0
  3  8  1  0  0  0
  4  5  1  0  0  0
  5  6  1  0  0  0
  5 11  1  0  0  0
  6  7  1  0  0  0
  6  9  1  0  0  0
  7  8  1  0  0  0
  9 10  1  0  0  0
 10 11  1  0  0  0
M  END
> <minimizedAffinity>
-8.54354

$$$$
790


 25 28  0  0  0  0  0  0  0  0999 V2000
   23.0461   80.3075   12.9169 C   0  0  0  0  0  0  0  0  0  0  0  0
   22.8310   81.4902   13.3095 O   0  0  0  0  0  0  0  0  0  0  0  0
   22.9091   79.9570   11.5491 N   0  0  0  0  0  0  0  0  0  0  0  0
   23.1784   78.5591   11.1789 C   0  0  0  0  0  0  0  0  0  0  0  0
   22.3504   78.3475    9.9113 C   0  0  0  0  0  0  0  0  0  0  0  0
   21.1254   79.0602   10.1211 N   0  0  0  0  0  0  0  0  0  0  0  0
   21.2508   80.5101    9.7904 C   0  0  0  0  0  0  0  0  0  0  0  0
   22.5178   80.9305   10.5403 C   0  0  0  0  0  0  0  0  0  0  0  0
   19.9210   78.5837   10.6120 C   0  0  0  0  0  0  0  0  0  0  0  0
   18.9323   79.4265   10.6693 O   0  0  0  0  0  0  0  0  0  0  0  0
   20.9438   77.2414   18.8899 Br  0  0  0  0  0  0  0  0  0  0  0  0
   21.6722   77.9605   17.2842 C   0  0  0  0  0  0  0  0  0  0  0  0
   22.8749   77.5364   16.8136 C   0  0  0  0  0  0  0  0  0  0  0  0
   23.3877   78.0338   15.6950 N   0  0  0  0  0  0  0  0  0  0  0  0
   24.5276   77.7781   15.0506 N   0  0  0  0  0  0  0  0  0  0  0  0
   24.5727   78.5571   13.9573 C   0  0  0  0  0  0  0  0  0  0  0  0
   23.4355   79.3288   13.9016 C   0  0  0  0  0  0  0  0  0  0  0  0
   22.6975   78.9726   15.0250 C   0  0  0  0  0  0  0  0  0  0  0  0
   21.5086   79.4021   15.4766 N   0  0  0  0  0  0  0  0  0  0  0  0
   20.9734   78.9160   16.5989 C   0  0  0  0  0  0  0  0  0  0  0  0
   19.5713   77.2565   11.0899 C   0  0  0  0  0  0  0  0  0  0  0  0
   19.6050   76.8788   12.3756 O   0  0  0  0  0  0  0  0  0  0  0  0
   19.2501   75.6491   12.5280 C   0  0  0  0  0  0  0  0  0  0  0  0
   18.9449   75.1070   11.3047 C   0  0  0  0  0  0  0  0  0  0  0  0
   19.1548   76.1402   10.4058 C   0  0  0  0  0  0  0  0  0  0  0  0
 11 12  1  0  0  0
 12 13  2  0  0  0
 12 20  1  0  0  0
 13 14  1  0  0  0
 14 15  1  0  0  0
 14 18  1  0  0  0
 15 16  2  0  0  0
 16 17  1  0  0  0
 17 18  2  0  0  0
 17  1  1  0  0  0
 18 19  1  0  0  0
 19 20  2  0  0  0
  1  2  2  0  0  0
  1  3  1  0  0  0
  3  4  1  0  0  0
  3  8  1  0  0  0
  4  5  1  0  0  0
  5  6  1  0  0  0
  6  7  1  0  0  0
  6  9  1  0  0  0
  7  8  1  0  0  0
  9 10  2  0  0  0
  9 21  1  0  0  0
 21 22  1  0  0  0
 21 25  2  0  0  0
 22 23  1  0  0  0
 23 24  2  0  0  0
 24 25  1  0  0  0
M  END
> <minimizedAffinity>
-7.53396

$$$$
797


 28 31  0  0  0  0  0  0  0  0999 V2000
   21.4185   77.0607   17.0171 O   0  0  0  0  0  0  0  0  0  0  0  0
   20.5392   77.5358   17.9675 C   0  0  0  0  0  0  0  0  0  0  0  0
   20.6898   77.2123   19.1630 O   0  0  0  0  0  0  0  0  0  0  0  0
   19.4357   78.4232   17.5342 C   0  0  0  0  0  0  0  0  0  0  0  0
   19.5665   79.7294   18.1130 N   0  0  0  0  0  0  0  0  0  0  0  0
   20.2832   80.8144   17.5668 C   0  0  0  0  0  0  0  0  0  0  0  0
   20.9415   80.8781   16.4963 O   0  0  0  0  0  0  0  0  0  0  0  0
   20.1544   81.9637   18.4886 C   0  0  0  0  0  0  0  0  0  0  0  0
   19.3823   81.5622   19.5448 C   0  0  0  0  0  0  0  0  0  0  0  0
   19.0795   82.4080   20.5728 C   0  0  0  0  0  0  0  0  0  0  0  0
   19.5690   83.6909   20.5330 C   0  0  0  0  0  0  0  0  0  0  0  0
   20.3480   84.0970   19.4667 C   0  0  0  0  0  0  0  0  0  0  0  0
   20.6595   83.2511   18.4244 C   0  0  0  0  0  0  0  0  0  0  0  0
   19.0028   80.1641   19.3290 C   0  0  0  0  0  0  0  0  0  0  0  0
   18.2839   79.4869   20.1259 O   0  0  0  0  0  0  0  0  0  0  0  0
   22.0883   77.8419   16.0628 C   0  0  0  0  0  0  0  0  0  0  0  0
   19.6920   78.1711    8.0520 Br  0  0  0  0  0  0  0  0  0  0  0  0
   20.4187   78.3126    9.8214 C   0  0  0  0  0  0  0  0  0  0  0  0
   20.0011   77.4876   10.8426 C   0  0  0  0  0  0  0  0  0  0  0  0
   20.4881   77.5572   12.1003 N   0  0  0  0  0  0  0  0  0  0  0  0
   21.4299   78.4552   12.4402 C   0  0  0  0  0  0  0  0  0  0  0  0
   21.9255   78.5386   13.6869 N   0  0  0  0  0  0  0  0  0  0  0  0
   21.5196   77.7298   14.6946 C   0  0  0  0  0  0  0  0  0  0  0  0
   20.5534   76.8016   14.3689 C   0  0  0  0  0  0  0  0  0  0  0  0
   20.0519   76.7294   13.0725 C   0  0  0  0  0  0  0  0  0  0  0  0
   19.1825   75.8978   12.7685 O   0  0  0  0  0  0  0  0  0  0  0  0
   21.8734   79.3062   11.4246 C   0  0  0  0  0  0  0  0  0  0  0  0
   21.3838   79.2444   10.1384 C   0  0  0  0  0  0  0  0  0  0  0  0
 17 18  1  0  0  0
 18 19  2  0  0  0
 18 28  1  0  0  0
 19 20  1  0  0  0
 20 21  1  0  0  0
 20 25  1  0  0  0
 21 22  2  0  0  0
 21 27  1  0  0  0
 22 23  1  0  0  0
 23 24  2  0  0  0
 23 16  1  0  0  0
 24 25  1  0  0  0
 25 26  2  0  0  0
 16  1  1  0  0  0
  1  2  1  0  0  0
  2  3  2  0  0  0
  2  4  1  0  0  0
  4  5  1  0  0  0
  5  6  1  0  0  0
  5 14  1  0  0  0
  6  7  2  0  0  0
  6  8  1  0  0  0
  8  9  2  0  0  0
  8 13  1  0  0  0
  9 10  1  0  0  0
  9 14  1  0  0  0
 10 11  2  0  0  0
 11 12  1  0  0  0
 12 13  2  0  0  0
 14 15  2  0  0  0
 27 28  2  0  0  0
M  END
> <minimizedAffinity>
-10.70078

$$$$
800


 29 32  0  0  0  0  0  0  0  0999 V2000
   22.5551   78.9516   12.5104 C   0  0  0  0  0  0  0  0  0  0  0  0
   23.2351   79.0184   11.4539 O   0  0  0  0  0  0  0  0  0  0  0  0
   21.1906   79.0861   12.4150 O   0  0  0  0  0  0  0  0  0  0  0  0
   20.4854   78.9358   11.1973 C   0  0  0  0  0  0  0  0  0  0  0  0
   17.4713   71.2822   11.9896 Br  0  0  0  0  0  0  0  0  0  0  0  0
   18.1670   73.0580   12.0981 C   0  0  0  0  0  0  0  0  0  0  0  0
   18.4482   73.7381   10.9330 C   0  0  0  0  0  0  0  0  0  0  0  0
   18.9382   74.9872   11.0057 N   0  0  0  0  0  0  0  0  0  0  0  0
   19.1609   75.5947   12.1891 C   0  0  0  0  0  0  0  0  0  0  0  0
   19.6553   76.8549   12.2395 N   0  0  0  0  0  0  0  0  0  0  0  0
   19.9445   77.5552   11.1289 C   0  0  0  0  0  0  0  0  0  0  0  0
   19.7230   76.9523    9.9126 C   0  0  0  0  0  0  0  0  0  0  0  0
   19.2128   75.6511    9.8607 C   0  0  0  0  0  0  0  0  0  0  0  0
   19.0093   75.0976    8.7677 O   0  0  0  0  0  0  0  0  0  0  0  0
   18.8813   74.9185   13.3604 C   0  0  0  0  0  0  0  0  0  0  0  0
   18.3790   73.6367   13.3402 C   0  0  0  0  0  0  0  0  0  0  0  0
   23.2926   78.7307   13.7817 C   0  0  0  0  0  0  0  0  0  0  0  0
   22.5409   79.1380   14.9315 N   0  0  0  0  0  0  0  0  0  0  0  0
   22.4557   80.4580   15.4667 C   0  0  0  0  0  0  0  0  0  0  0  0
   23.0429   81.4724   14.9914 O   0  0  0  0  0  0  0  0  0  0  0  0
   21.6062   80.4175   16.6075 N   0  0  0  0  0  0  0  0  0  0  0  0
   21.2781   79.0442   16.8950 C   0  0  0  0  0  0  0  0  0  0  0  0
   21.9527   78.5281   18.1384 C   0  0  0  0  0  0  0  0  0  0  0  0
   21.1280   77.3348   18.5060 C   0  0  0  0  0  0  0  0  0  0  0  0
   19.8353   77.4142   17.7477 C   0  0  0  0  0  0  0  0  0  0  0  0
   19.8321   78.8162   17.1778 C   0  0  0  0  0  0  0  0  0  0  0  0
   21.7421   78.2738   15.7426 C   0  0  0  0  0  0  0  0  0  0  0  0
   21.5133   77.0737   15.4633 O   0  0  0  0  0  0  0  0  0  0  0  0
   21.2938   81.2584   17.1229 H   0  0  0  0  0  0  0  0  0  0  0  0
  5  6  1  0  0  0
  6  7  2  0  0  0
  6 16  1  0  0  0
  7  8  1  0  0  0
  8  9  1  0  0  0
  8 13  1  0  0  0
  9 10  2  0  0  0
  9 15  1  0  0  0
 10 11  1  0  0  0
 11 12  2  0  0  0
 11  4  1  0  0  0
 12 13  1  0  0  0
 13 14  2  0  0  0
  4  3  1  0  0  0
  3  1  1  0  0  0
  1  2  2  0  0  0
  1 17  1  0  0  0
 17 18  1  0  0  0
 18 19  1  0  0  0
 18 27  1  0  0  0
 19 20  2  0  0  0
 19 21  1  0  0  0
 21 22  1  0  0  0
 22 23  1  0  0  0
 22 26  1  0  0  0
 22 27  1  0  0  0
 23 24  1  0  0  0
 24 25  1  0  0  0
 25 26  1  0  0  0
 27 28  2  0  0  0
 15 16  2  0  0  0
 21 29  1  0  0  0
M  END
> <minimizedAffinity>
-10.02483

$$$$
803


 31 34  0  0  0  0  0  0  0  0999 V2000
   20.4402   76.9683   15.8648 Br  0  0  0  0  0  0  0  0  0  0  0  0
   20.4419   78.7481   16.5293 C   0  0  0  0  0  0  0  0  0  0  0  0
   19.8816   79.1034   17.7064 C   0  0  0  0  0  0  0  0  0  0  0  0
   19.9546   80.3349   18.2199 N   0  0  0  0  0  0  0  0  0  0  0  0
   20.6167   81.2675   17.5363 C   0  0  0  0  0  0  0  0  0  0  0  0
   20.6978   82.5325   18.0365 N   0  0  0  0  0  0  0  0  0  0  0  0
   20.1437   82.8938   19.1855 C   0  0  0  0  0  0  0  0  0  0  0  0
   19.4548   81.9485   19.9109 C   0  0  0  0  0  0  0  0  0  0  0  0
   18.8497   82.2653   21.1109 C   0  0  0  0  0  0  0  0  0  0  0  0
   18.9018   83.5498   21.6537 C   0  0  0  0  0  0  0  0  0  0  0  0
   19.5941   84.4878   20.9189 C   0  0  0  0  0  0  0  0  0  0  0  0
   20.2023   84.1747   19.7157 C   0  0  0  0  0  0  0  0  0  0  0  0
   19.3846   80.6645   19.3843 C   0  0  0  0  0  0  0  0  0  0  0  0
   18.7604   79.7958   20.0331 O   0  0  0  0  0  0  0  0  0  0  0  0
   21.1862   80.9375   16.3538 N   0  0  0  0  0  0  0  0  0  0  0  0
   21.1555   79.7423   15.7801 C   0  0  0  0  0  0  0  0  0  0  0  0
   21.6864   81.7731   15.9072 H   0  0  0  0  0  0  0  0  0  0  0  0
   21.6097   79.3660   14.5559 N   0  0  0  0  0  0  0  0  0  0  0  0
   22.0309   78.1557   15.0316 H   0  0  0  0  0  0  0  0  0  0  0  0
   22.0573   78.9946   13.3497 C   0  0  0  0  0  0  0  0  0  0  0  0
   23.3867   78.5766   13.2060 C   0  0  0  0  0  0  0  0  0  0  0  0
   23.9362   78.4222   11.9756 C   0  0  0  0  0  0  0  0  0  0  0  0
   23.1951   78.6684   10.8456 C   0  0  0  0  0  0  0  0  0  0  0  0
   21.8814   79.0750   10.9186 C   0  0  0  0  0  0  0  0  0  0  0  0
   21.3480   79.2270   12.1770 C   0  0  0  0  0  0  0  0  0  0  0  0
   24.1911   78.1467   14.3566 C   0  0  0  0  0  0  0  0  0  0  0  0
   24.0246   76.9744   14.7788 O   0  0  0  0  0  0  0  0  0  0  0  0
   25.1058   78.9148   15.0166 O   0  0  0  0  0  0  0  0  0  0  0  0
   26.0494   78.3761   15.9225 C   0  0  0  0  0  0  0  0  0  0  0  0
   25.8353   78.9620   17.3212 C   0  0  0  0  0  0  0  0  0  0  0  0
   24.3531   79.1406   17.5481 C   0  0  0  0  0  0  0  0  0  0  0  0
  1  2  1  0  0  0
  2  3  2  0  0  0
  2 16  1  0  0  0
  3  4  1  0  0  0
  4  5  1  0  0  0
  4 13  1  0  0  0
  5  6  2  0  0  0
  5 15  1  0  0  0
  6  7  1  0  0  0
  7  8  2  0  0  0
  7 12  1  0  0  0
  8  9  1  0  0  0
  8 13  1  0  0  0
  9 10  2  0  0  0
 10 11  1  0  0  0
 11 12  2  0  0  0
 13 14  2  0  0  0
 15 16  2  0  0  0
 16 18  1  0  0  0
 18 20  1  0  0  0
 20 21  2  0  0  0
 20 25  1  0  0  0
 21 22  1  0  0  0
 21 26  1  0  0  0
 22 23  2  0  0  0
 23 24  1  0  0  0
 24 25  2  0  0  0
 26 27  2  0  0  0
 26 28  1  0  0  0
 28 29  1  0  0  0
 29 30  1  0  0  0
 30 31  1  0  0  0
 15 17  1  0  0  0
 18 19  1  0  0  0
M  END
> <minimizedAffinity>
-9.45953

$$$$
814


 31 34  0  0  0  0  0  0  0  0999 V2000
   21.4863   77.6616   16.7295 N   0  0  0  0  0  0  0  0  0  0  0  0
   20.6650   76.8302   16.1298 N   0  0  0  0  0  0  0  0  0  0  0  0
   20.7979   76.9143   14.7978 C   0  0  0  0  0  0  0  0  0  0  0  0
   21.7411   77.8367   14.5573 N   0  0  0  0  0  0  0  0  0  0  0  0
   22.1654   78.2993   15.7701 C   0  0  0  0  0  0  0  0  0  0  0  0
   23.1905   79.3177   15.9918 C   0  0  0  0  0  0  0  0  0  0  0  0
   22.8660   80.6364   15.3307 C   0  0  0  0  0  0  0  0  0  0  0  0
   23.0168   80.5673   13.8270 C   0  0  0  0  0  0  0  0  0  0  0  0
   21.9471   79.7564   13.1635 C   0  0  0  0  0  0  0  0  0  0  0  0
   22.2162   78.2610   13.2552 C   0  0  0  0  0  0  0  0  0  0  0  0
   21.6328   77.8558   18.1412 C   0  0  0  0  0  0  0  0  0  0  0  0
   20.3925   78.3979   18.7569 C   0  0  0  0  0  0  0  0  0  0  0  0
   19.5063   77.5729   19.1044 O   0  0  0  0  0  0  0  0  0  0  0  0
   19.4060   84.4162   19.7159 Br  0  0  0  0  0  0  0  0  0  0  0  0
   19.7095   82.5383   19.4244 C   0  0  0  0  0  0  0  0  0  0  0  0
   20.3698   82.1163   18.2832 C   0  0  0  0  0  0  0  0  0  0  0  0
   20.5921   80.7598   18.0664 C   0  0  0  0  0  0  0  0  0  0  0  0
   20.1683   79.8116   18.9685 C   0  0  0  0  0  0  0  0  0  0  0  0
   19.5147   80.2661   20.0920 C   0  0  0  0  0  0  0  0  0  0  0  0
   19.2817   81.5983   20.3313 C   0  0  0  0  0  0  0  0  0  0  0  0
   20.0696   76.1588   13.7693 C   0  0  0  0  0  0  0  0  0  0  0  0
   20.1554   74.7436   13.9618 N   0  0  0  0  0  0  0  0  0  0  0  0
   20.9787   74.3339   14.4267 H   0  0  0  0  0  0  0  0  0  0  0  0
   19.1404   73.8399   13.5355 C   0  0  0  0  0  0  0  0  0  0  0  0
   19.3917   72.5056   13.3090 C   0  0  0  0  0  0  0  0  0  0  0  0
   18.4052   71.6441   12.9035 C   0  0  0  0  0  0  0  0  0  0  0  0
   17.1418   72.1099   12.7167 C   0  0  0  0  0  0  0  0  0  0  0  0
   16.8864   73.4447   12.9418 C   0  0  0  0  0  0  0  0  0  0  0  0
   17.8707   74.3205   13.3507 C   0  0  0  0  0  0  0  0  0  0  0  0
   16.1330   71.2697   12.3098 O   0  0  0  0  0  0  0  0  0  0  0  0
   16.3611   70.1230   11.5286 C   0  0  0  0  0  0  0  0  0  0  0  0
 14 15  1  0  0  0
 15 16  2  0  0  0
 15 20  1  0  0  0
 16 17  1  0  0  0
 17 18  2  0  0  0
 18 19  1  0  0  0
 18 12  1  0  0  0
 19 20  2  0  0  0
 12 13  2  0  0  0
 12 11  1  0  0  0
 11  1  1  0  0  0
  1  2  1  0  0  0
  1  5  2  0  0  0
  2  3  2  0  0  0
  3  4  1  0  0  0
  3 21  1  0  0  0
  4  5  1  0  0  0
  4 10  1  0  0  0
  5  6  1  0  0  0
  6  7  1  0  0  0
  7  8  1  0  0  0
  8  9  1  0  0  0
  9 10  1  0  0  0
 21 22  1  0  0  0
 22 24  1  0  0  0
 24 25  2  0  0  0
 24 29  1  0  0  0
 25 26  1  0  0  0
 26 27  2  0  0  0
 27 28  1  0  0  0
 27 30  1  0  0  0
 28 29  2  0  0  0
 30 31  1  0  0  0
 22 23  1  0  0  0
M  END
> <minimizedAffinity>
-11.65570

$$$$
827


 29 32  0  0  0  0  0  0  0  0999 V2000
   22.8176   77.7158   14.9391 C   0  0  0  0  0  0  0  0  0  0  0  0
   21.5156   77.1894   15.3421 N   0  0  0  0  0  0  0  0  0  0  0  0
   20.9675   77.9983   16.3075 C   0  0  0  0  0  0  0  0  0  0  0  0
   20.0024   77.7538   17.1585 C   0  0  0  0  0  0  0  0  0  0  0  0
   19.3317   78.5465   18.2294 C   0  0  0  0  0  0  0  0  0  0  0  0
   19.9839   79.8617   18.5183 C   0  0  0  0  0  0  0  0  0  0  0  0
   20.0643   80.7274   17.2831 C   0  0  0  0  0  0  0  0  0  0  0  0
   21.4260   80.5766   16.6342 C   0  0  0  0  0  0  0  0  0  0  0  0
   21.7450   79.2178   16.3356 N   0  0  0  0  0  0  0  0  0  0  0  0
   23.1197   78.8329   15.9890 C   0  0  0  0  0  0  0  0  0  0  0  0
   23.8091   76.8162   15.0147 O   0  0  0  0  0  0  0  0  0  0  0  0
   21.8855   76.3186   15.9776 H   0  0  0  0  0  0  0  0  0  0  0  0
   24.6560   76.9716   14.5717 H   0  0  0  0  0  0  0  0  0  0  0  0
   22.4559   80.8628    9.6532 Br  0  0  0  0  0  0  0  0  0  0  0  0
   22.5760   79.8945   11.2760 C   0  0  0  0  0  0  0  0  0  0  0  0
   21.7317   80.2147   12.3224 C   0  0  0  0  0  0  0  0  0  0  0  0
   21.7982   79.5168   13.5097 C   0  0  0  0  0  0  0  0  0  0  0  0
   22.7029   78.4935   13.6726 C   0  0  0  0  0  0  0  0  0  0  0  0
   23.5339   78.1805   12.6395 C   0  0  0  0  0  0  0  0  0  0  0  0
   23.4835   78.8765   11.4242 C   0  0  0  0  0  0  0  0  0  0  0  0
   20.8041   76.5309   14.3744 C   0  0  0  0  0  0  0  0  0  0  0  0
   20.3445   77.0780   13.2145 C   0  0  0  0  0  0  0  0  0  0  0  0
   19.4730   76.4031   12.3428 C   0  0  0  0  0  0  0  0  0  0  0  0
   19.0388   75.1355   12.6285 C   0  0  0  0  0  0  0  0  0  0  0  0
   19.5043   74.5701   13.8068 C   0  0  0  0  0  0  0  0  0  0  0  0
   20.3577   75.2363   14.6596 C   0  0  0  0  0  0  0  0  0  0  0  0
   18.1713   74.4584   11.7875 O   0  0  0  0  0  0  0  0  0  0  0  0
   18.0050   73.0637   11.7457 C   0  0  0  0  0  0  0  0  0  0  0  0
   16.8064   72.7621   12.6658 C   0  0  0  0  0  0  0  0  0  0  0  0
 14 15  1  0  0  0
 15 16  2  0  0  0
 15 20  1  0  0  0
 16 17  1  0  0  0
 17 18  2  0  0  0
 18 19  1  0  0  0
 18  1  1  0  0  0
 19 20  2  0  0  0
  1  2  1  0  0  0
  1 10  1  0  0  0
  1 11  1  0  0  0
  2  3  1  0  0  0
  2 21  1  0  0  0
  3  4  2  0  0  0
  3  9  1  0  0  0
  4  5  1  0  0  0
  5  6  1  0  0  0
  6  7  1  0  0  0
  7  8  1  0  0  0
  8  9  1  0  0  0
  9 10  1  0  0  0
 21 22  2  0  0  0
 21 26  1  0  0  0
 22 23  1  0  0  0
 23 24  2  0  0  0
 24 25  1  0  0  0
 24 27  1  0  0  0
 25 26  2  0  0  0
 27 28  1  0  0  0
 28 29  1  0  0  0
  2 12  1  0  0  0
 11 13  1  0  0  0
M  CHG 1   2   1
M  END
> <minimizedAffinity>
-8.98340

$$$$
833


 28 31  0  0  0  0  0  0  0  0999 V2000
   21.3180   77.1773   14.6104 C   0  0  0  0  0  0  0  0  0  0  0  0
   22.5341   77.7603   15.1603 N   0  0  0  0  0  0  0  0  0  0  0  0
   23.6163   78.2597   14.3195 C   0  0  0  0  0  0  0  0  0  0  0  0
   24.8688   78.5229   15.0715 C   0  0  0  0  0  0  0  0  0  0  0  0
   25.3293   77.3692   15.9242 C   0  0  0  0  0  0  0  0  0  0  0  0
   24.8156   77.6529   17.3235 C   0  0  0  0  0  0  0  0  0  0  0  0
   23.3902   77.6683   17.4743 C   0  0  0  0  0  0  0  0  0  0  0  0
   22.4066   77.7141   16.5465 C   0  0  0  0  0  0  0  0  0  0  0  0
   21.0522   77.7365   16.9331 N   0  0  0  0  0  0  0  0  0  0  0  0
   20.3579   77.5055   15.6999 C   0  0  0  0  0  0  0  0  0  0  0  0
   21.5453   75.8358   14.4447 O   0  0  0  0  0  0  0  0  0  0  0  0
   20.7836   76.9889   17.6137 H   0  0  0  0  0  0  0  0  0  0  0  0
   22.2514   75.6237   13.7988 H   0  0  0  0  0  0  0  0  0  0  0  0
   20.0387   79.7072    9.1821 Br  0  0  0  0  0  0  0  0  0  0  0  0
   20.4300   78.9216   10.8836 C   0  0  0  0  0  0  0  0  0  0  0  0
   19.9554   77.6626   11.1706 C   0  0  0  0  0  0  0  0  0  0  0  0
   20.2233   77.0634   12.4020 C   0  0  0  0  0  0  0  0  0  0  0  0
   20.9846   77.8001   13.3136 C   0  0  0  0  0  0  0  0  0  0  0  0
   21.4568   79.0450   13.0408 C   0  0  0  0  0  0  0  0  0  0  0  0
   21.1804   79.6224   11.8132 C   0  0  0  0  0  0  0  0  0  0  0  0
   20.8112   79.0424   17.4578 C   0  0  0  0  0  0  0  0  0  0  0  0
   20.0782   79.2153   18.6198 C   0  0  0  0  0  0  0  0  0  0  0  0
   19.8347   80.5276   19.0040 C   0  0  0  0  0  0  0  0  0  0  0  0
   20.2740   81.6362   18.3044 C   0  0  0  0  0  0  0  0  0  0  0  0
   21.0174   81.4096   17.1265 C   0  0  0  0  0  0  0  0  0  0  0  0
   21.2482   80.1314   16.7660 C   0  0  0  0  0  0  0  0  0  0  0  0
   19.6420   78.1320   19.3193 O   0  0  0  0  0  0  0  0  0  0  0  0
   19.8668   78.0063   20.6991 C   0  0  0  0  0  0  0  0  0  0  0  0
 14 15  1  0  0  0
 15 16  2  0  0  0
 15 20  1  0  0  0
 16 17  1  0  0  0
 17 18  2  0  0  0
 18 19  1  0  0  0
 18  1  1  0  0  0
 19 20  2  0  0  0
  1  2  1  0  0  0
  1 10  1  0  0  0
  1 11  1  0  0  0
  2  3  1  0  0  0
  2  8  1  0  0  0
  3  4  1  0  0  0
  4  5  1  0  0  0
  5  6  1  0  0  0
  6  7  1  0  0  0
  7  8  2  0  0  0
  8  9  1  0  0  0
  9 10  1  0  0  0
  9 21  1  0  0  0
 21 22  2  0  0  0
 21 26  1  0  0  0
 22 23  1  0  0  0
 22 27  1  0  0  0
 23 24  2  0  0  0
 24 25  1  0  0  0
 25 26  2  0  0  0
 27 28  1  0  0  0
  9 12  1  0  0  0
 11 13  1  0  0  0
M  CHG 1   9   1
M  END
> <minimizedAffinity>
-8.52061

$$$$
834


 28 31  0  0  0  0  0  0  0  0999 V2000
   22.1602   79.3383   14.9323 C   0  0  0  0  0  0  0  0  0  0  0  0
   23.2424   79.2632   15.8602 N   0  0  0  0  0  0  0  0  0  0  0  0
   24.3519   80.1561   15.9928 C   0  0  0  0  0  0  0  0  0  0  0  0
   25.6976   79.5564   16.1299 C   0  0  0  0  0  0  0  0  0  0  0  0
   25.7815   78.0734   16.1675 C   0  0  0  0  0  0  0  0  0  0  0  0
   25.2703   77.4989   17.4891 C   0  0  0  0  0  0  0  0  0  0  0  0
   23.7903   77.3402   17.3404 C   0  0  0  0  0  0  0  0  0  0  0  0
   22.9395   78.0840   16.6537 C   0  0  0  0  0  0  0  0  0  0  0  0
   21.5433   77.8260   16.5691 N   0  0  0  0  0  0  0  0  0  0  0  0
   21.3163   78.0830   15.1780 C   0  0  0  0  0  0  0  0  0  0  0  0
   21.3726   80.4908   15.1200 O   0  0  0  0  0  0  0  0  0  0  0  0
   21.3875   76.8182   16.8237 H   0  0  0  0  0  0  0  0  0  0  0  0
   20.4364   80.1775   15.0311 H   0  0  0  0  0  0  0  0  0  0  0  0
   23.0149   79.4434    8.8199 Br  0  0  0  0  0  0  0  0  0  0  0  0
   22.7975   79.3876   10.7197 C   0  0  0  0  0  0  0  0  0  0  0  0
   23.7310   78.7715   11.5256 C   0  0  0  0  0  0  0  0  0  0  0  0
   23.5528   78.7386   12.9030 C   0  0  0  0  0  0  0  0  0  0  0  0
   22.4769   79.2995   13.5064 C   0  0  0  0  0  0  0  0  0  0  0  0
   21.5179   79.9307   12.6862 C   0  0  0  0  0  0  0  0  0  0  0  0
   21.7046   79.9574   11.3283 C   0  0  0  0  0  0  0  0  0  0  0  0
   20.8600   78.7059   17.4237 C   0  0  0  0  0  0  0  0  0  0  0  0
   19.4615   78.8414   17.3494 C   0  0  0  0  0  0  0  0  0  0  0  0
   18.7668   79.6932   18.1651 C   0  0  0  0  0  0  0  0  0  0  0  0
   19.4190   80.4615   19.1058 C   0  0  0  0  0  0  0  0  0  0  0  0
   20.7820   80.3467   19.1977 C   0  0  0  0  0  0  0  0  0  0  0  0
   21.4817   79.4884   18.3744 C   0  0  0  0  0  0  0  0  0  0  0  0
   18.6958   81.3344   19.9409 O   0  0  0  0  0  0  0  0  0  0  0  0
   19.2536   82.5640   20.3219 C   0  0  0  0  0  0  0  0  0  0  0  0
 14 15  1  0  0  0
 15 16  2  0  0  0
 15 20  1  0  0  0
 16 17  1  0  0  0
 17 18  2  0  0  0
 18 19  1  0  0  0
 18  1  1  0  0  0
 19 20  2  0  0  0
  1  2  1  0  0  0
  1 10  1  0  0  0
  1 11  1  0  0  0
  2  3  1  0  0  0
  2  8  1  0  0  0
  3  4  1  0  0  0
  4  5  1  0  0  0
  5  6  1  0  0  0
  6  7  1  0  0  0
  7  8  2  0  0  0
  8  9  1  0  0  0
  9 10  1  0  0  0
  9 21  1  0  0  0
 21 22  2  0  0  0
 21 26  1  0  0  0
 22 23  1  0  0  0
 23 24  2  0  0  0
 24 25  1  0  0  0
 24 27  1  0  0  0
 25 26  2  0  0  0
 27 28  1  0  0  0
  9 12  1  0  0  0
 11 13  1  0  0  0
M  CHG 1   9   1
M  END
> <minimizedAffinity>
-8.90324

$$$$
835


 27 30  0  0  0  0  0  0  0  0999 V2000
   21.1951   77.3673   15.0583 C   0  0  0  0  0  0  0  0  0  0  0  0
   20.4288   77.8024   16.2062 N   0  0  0  0  0  0  0  0  0  0  0  0
   19.3461   77.2990   17.0248 C   0  0  0  0  0  0  0  0  0  0  0  0
   19.4895   77.7057   18.4771 C   0  0  0  0  0  0  0  0  0  0  0  0
   19.5394   79.1952   18.5431 C   0  0  0  0  0  0  0  0  0  0  0  0
   20.5466   79.7489   17.6134 C   0  0  0  0  0  0  0  0  0  0  0  0
   20.9541   79.0892   16.5252 C   0  0  0  0  0  0  0  0  0  0  0  0
   21.8823   79.5155   15.5532 N   0  0  0  0  0  0  0  0  0  0  0  0
   21.5347   78.6698   14.3927 C   0  0  0  0  0  0  0  0  0  0  0  0
   22.3856   76.7410   15.4123 O   0  0  0  0  0  0  0  0  0  0  0  0
   21.6383   80.4966   15.1945 H   0  0  0  0  0  0  0  0  0  0  0  0
   22.9784   76.7938   14.6242 H   0  0  0  0  0  0  0  0  0  0  0  0
   18.0167   73.4642   11.4328 Br  0  0  0  0  0  0  0  0  0  0  0  0
   18.9976   74.6906   12.5381 C   0  0  0  0  0  0  0  0  0  0  0  0
   19.3846   74.2973   13.7994 C   0  0  0  0  0  0  0  0  0  0  0  0
   20.1018   75.1936   14.5912 C   0  0  0  0  0  0  0  0  0  0  0  0
   20.4393   76.4592   14.1619 C   0  0  0  0  0  0  0  0  0  0  0  0
   20.0399   76.8296   12.8917 C   0  0  0  0  0  0  0  0  0  0  0  0
   19.3290   75.9526   12.0945 C   0  0  0  0  0  0  0  0  0  0  0  0
   23.2318   79.4039   15.8704 C   0  0  0  0  0  0  0  0  0  0  0  0
   24.2405   79.4790   14.9424 C   0  0  0  0  0  0  0  0  0  0  0  0
   25.5753   79.3388   15.3291 C   0  0  0  0  0  0  0  0  0  0  0  0
   25.9086   79.1239   16.6417 C   0  0  0  0  0  0  0  0  0  0  0  0
   24.9030   79.0491   17.5807 C   0  0  0  0  0  0  0  0  0  0  0  0
   23.5936   79.1882   17.1943 C   0  0  0  0  0  0  0  0  0  0  0  0
   23.9961   79.6948   13.6011 O   0  0  0  0  0  0  0  0  0  0  0  0
   24.2203   78.7006   12.6576 C   0  0  0  0  0  0  0  0  0  0  0  0
 13 14  1  0  0  0
 14 15  2  0  0  0
 14 19  1  0  0  0
 15 16  1  0  0  0
 16 17  2  0  0  0
 17 18  1  0  0  0
 17  1  1  0  0  0
 18 19  2  0  0  0
  1  2  1  0  0  0
  1  9  1  0  0  0
  1 10  1  0  0  0
  2  3  1  0  0  0
  2  7  1  0  0  0
  3  4  1  0  0  0
  4  5  1  0  0  0
  5  6  1  0  0  0
  6  7  2  0  0  0
  7  8  1  0  0  0
  8  9  1  0  0  0
  8 20  1  0  0  0
 20 21  2  0  0  0
 20 25  1  0  0  0
 21 22  1  0  0  0
 21 26  1  0  0  0
 22 23  2  0  0  0
 23 24  1  0  0  0
 24 25  2  0  0  0
 26 27  1  0  0  0
  8 11  1  0  0  0
 10 12  1  0  0  0
M  CHG 1   8   1
M  END
> <minimizedAffinity>
-9.09758

$$$$
836


 27 30  0  0  0  0  0  0  0  0999 V2000
   21.8994   78.3012   17.2557 C   0  0  0  0  0  0  0  0  0  0  0  0
   23.2050   78.5281   16.6875 N   0  0  0  0  0  0  0  0  0  0  0  0
   24.3221   79.4216   16.9631 C   0  0  0  0  0  0  0  0  0  0  0  0
   25.6538   78.8808   16.6146 C   0  0  0  0  0  0  0  0  0  0  0  0
   25.6765   77.4495   16.1395 C   0  0  0  0  0  0  0  0  0  0  0  0
   24.5074   77.0872   15.3436 C   0  0  0  0  0  0  0  0  0  0  0  0
   23.3248   77.6091   15.6122 C   0  0  0  0  0  0  0  0  0  0  0  0
   22.0372   77.4517   15.0245 N   0  0  0  0  0  0  0  0  0  0  0  0
   21.1223   77.7505   16.0823 C   0  0  0  0  0  0  0  0  0  0  0  0
   22.0516   77.3242   18.2609 O   0  0  0  0  0  0  0  0  0  0  0  0
   21.9572   76.4377   14.7414 H   0  0  0  0  0  0  0  0  0  0  0  0
   22.9357   77.4942   18.6692 H   0  0  0  0  0  0  0  0  0  0  0  0
   19.2443   83.2318   19.9325 Br  0  0  0  0  0  0  0  0  0  0  0  0
   20.0629   81.7217   19.1015 C   0  0  0  0  0  0  0  0  0  0  0  0
   20.3451   80.5680   19.8080 C   0  0  0  0  0  0  0  0  0  0  0  0
   20.9353   79.4847   19.1903 C   0  0  0  0  0  0  0  0  0  0  0  0
   21.2765   79.4797   17.8542 C   0  0  0  0  0  0  0  0  0  0  0  0
   20.9894   80.6445   17.1528 C   0  0  0  0  0  0  0  0  0  0  0  0
   20.3977   81.7344   17.7647 C   0  0  0  0  0  0  0  0  0  0  0  0
   21.9469   78.2665   13.9040 C   0  0  0  0  0  0  0  0  0  0  0  0
   21.1153   77.9361   12.8597 C   0  0  0  0  0  0  0  0  0  0  0  0
   21.0261   78.7615   11.7268 C   0  0  0  0  0  0  0  0  0  0  0  0
   21.7543   79.9131   11.6193 C   0  0  0  0  0  0  0  0  0  0  0  0
   22.6041   80.2484   12.6898 C   0  0  0  0  0  0  0  0  0  0  0  0
   22.6693   79.4168   13.7886 C   0  0  0  0  0  0  0  0  0  0  0  0
   21.7148   80.7774   10.5267 O   0  0  0  0  0  0  0  0  0  0  0  0
   22.6306   80.8300    9.4817 C   0  0  0  0  0  0  0  0  0  0  0  0
 13 14  1  0  0  0
 14 15  2  0  0  0
 14 19  1  0  0  0
 15 16  1  0  0  0
 16 17  2  0  0  0
 17 18  1  0  0  0
 17  1  1  0  0  0
 18 19  2  0  0  0
  1  2  1  0  0  0
  1  9  1  0  0  0
  1 10  1  0  0  0
  2  3  1  0  0  0
  2  7  1  0  0  0
  3  4  1  0  0  0
  4  5  1  0  0  0
  5  6  1  0  0  0
  6  7  2  0  0  0
  7  8  1  0  0  0
  8  9  1  0  0  0
  8 20  1  0  0  0
 20 21  2  0  0  0
 20 25  1  0  0  0
 21 22  1  0  0  0
 22 23  2  0  0  0
 23 24  1  0  0  0
 23 26  1  0  0  0
 24 25  2  0  0  0
 26 27  1  0  0  0
  8 11  1  0  0  0
 10 12  1  0  0  0
M  CHG 1   8   1
M  END
> <minimizedAffinity>
-10.28803

$$$$
847


 31 34  0  0  0  0  0  0  0  0999 V2000
   20.6598   76.8598   14.6319 C   0  0  0  0  0  0  0  0  0  0  0  0
   21.4953   77.8869   14.4059 N   0  0  0  0  0  0  0  0  0  0  0  0
   21.8873   78.3742   15.5977 C   0  0  0  0  0  0  0  0  0  0  0  0
   21.2817   77.6327   16.5837 N   0  0  0  0  0  0  0  0  0  0  0  0
   20.5484   76.7278   15.9591 N   0  0  0  0  0  0  0  0  0  0  0  0
   22.7841   79.4706   15.9757 C   0  0  0  0  0  0  0  0  0  0  0  0
   22.7843   80.6451   15.0342 C   0  0  0  0  0  0  0  0  0  0  0  0
   23.2296   80.3052   13.6494 C   0  0  0  0  0  0  0  0  0  0  0  0
   22.0187   79.7885   12.9076 C   0  0  0  0  0  0  0  0  0  0  0  0
   21.8419   78.3009   13.0861 C   0  0  0  0  0  0  0  0  0  0  0  0
   19.9419   75.9754   13.6584 C   0  0  0  0  0  0  0  0  0  0  0  0
   19.9885   74.5775   14.0366 N   0  0  0  0  0  0  0  0  0  0  0  0
   20.6645   74.2369   14.7552 H   0  0  0  0  0  0  0  0  0  0  0  0
   16.3470   70.3606   11.5622 Br  0  0  0  0  0  0  0  0  0  0  0  0
   17.4829   71.6732   12.3362 C   0  0  0  0  0  0  0  0  0  0  0  0
   17.0019   72.9538   12.5895 C   0  0  0  0  0  0  0  0  0  0  0  0
   17.8207   73.8996   13.1460 C   0  0  0  0  0  0  0  0  0  0  0  0
   19.1265   73.5896   13.4580 C   0  0  0  0  0  0  0  0  0  0  0  0
   19.5869   72.3158   13.2004 C   0  0  0  0  0  0  0  0  0  0  0  0
   18.7909   71.3422   12.6423 C   0  0  0  0  0  0  0  0  0  0  0  0
   21.4224   77.7367   17.9815 C   0  0  0  0  0  0  0  0  0  0  0  0
   20.4043   78.4303   18.7255 C   0  0  0  0  0  0  0  0  0  0  0  0
   19.5405   77.5970   19.3072 O   0  0  0  0  0  0  0  0  0  0  0  0
   20.1100   79.8116   18.9827 C   0  0  0  0  0  0  0  0  0  0  0  0
   20.5383   80.8144   18.0858 C   0  0  0  0  0  0  0  0  0  0  0  0
   20.2902   82.1468   18.2849 C   0  0  0  0  0  0  0  0  0  0  0  0
   19.5991   82.5761   19.3898 C   0  0  0  0  0  0  0  0  0  0  0  0
   19.1656   81.6368   20.2847 C   0  0  0  0  0  0  0  0  0  0  0  0
   19.4280   80.2712   20.0674 C   0  0  0  0  0  0  0  0  0  0  0  0
   19.3468   83.9319   19.5909 O   0  0  0  0  0  0  0  0  0  0  0  0
   18.4581   84.3969   20.5768 C   0  0  0  0  0  0  0  0  0  0  0  0
 14 15  1  0  0  0
 15 16  2  0  0  0
 15 20  1  0  0  0
 16 17  1  0  0  0
 17 18  2  0  0  0
 18 19  1  0  0  0
 18 12  1  0  0  0
 19 20  2  0  0  0
 12 11  1  0  0  0
 11  1  1  0  0  0
  1  2  1  0  0  0
  1  5  2  0  0  0
  2  3  1  0  0  0
  2 10  1  0  0  0
  3  4  2  0  0  0
  3  6  1  0  0  0
  4  5  1  0  0  0
  4 21  1  0  0  0
 21 22  1  0  0  0
 22 23  2  0  0  0
 22 24  1  0  0  0
 24 25  2  0  0  0
 24 29  1  0  0  0
 25 26  1  0  0  0
 26 27  2  0  0  0
 27 28  1  0  0  0
 27 30  1  0  0  0
 28 29  2  0  0  0
 30 31  1  0  0  0
  6  7  1  0  0  0
  7  8  1  0  0  0
  8  9  1  0  0  0
  9 10  1  0  0  0
 12 13  1  0  0  0
M  END
> <minimizedAffinity>
-11.72704

$$$$
850


 29 32  0  0  0  0  0  0  0  0999 V2000
   20.3598   79.8528   17.4550 N   0  0  0  0  0  0  0  0  0  0  0  0
   20.2184   78.4597   17.7581 C   0  0  0  0  0  0  0  0  0  0  0  0
   21.5998   78.1794   18.3484 C   0  0  0  0  0  0  0  0  0  0  0  0
   22.4921   78.9685   17.4848 N   0  0  0  0  0  0  0  0  0  0  0  0
   23.8832   78.6892   17.4239 C   0  0  0  0  0  0  0  0  0  0  0  0
   24.6567   79.5343   16.4568 C   0  0  0  0  0  0  0  0  0  0  0  0
   23.9613   79.5288   15.1231 C   0  0  0  0  0  0  0  0  0  0  0  0
   23.1837   80.8521   15.0733 C   0  0  0  0  0  0  0  0  0  0  0  0
   21.9179   80.6805   15.8141 C   0  0  0  0  0  0  0  0  0  0  0  0
   21.6355   79.9091   16.8392 C   0  0  0  0  0  0  0  0  0  0  0  0
   19.1656   78.0863   18.5314 O   0  0  0  0  0  0  0  0  0  0  0  0
   19.5673   80.1038   16.7849 H   0  0  0  0  0  0  0  0  0  0  0  0
   19.2311   77.1733   18.8666 H   0  0  0  0  0  0  0  0  0  0  0  0
   19.7814   84.0125   21.9183 Br  0  0  0  0  0  0  0  0  0  0  0  0
   19.9847   82.7072   20.5294 C   0  0  0  0  0  0  0  0  0  0  0  0
   20.0301   83.0729   19.2029 C   0  0  0  0  0  0  0  0  0  0  0  0
   20.1629   82.1158   18.2076 C   0  0  0  0  0  0  0  0  0  0  0  0
   20.2558   80.7549   18.4925 C   0  0  0  0  0  0  0  0  0  0  0  0
   20.2068   80.4466   19.8197 C   0  0  0  0  0  0  0  0  0  0  0  0
   20.0740   81.3855   20.8394 C   0  0  0  0  0  0  0  0  0  0  0  0
   20.1492   77.6258   16.5238 C   0  0  0  0  0  0  0  0  0  0  0  0
   21.1245   77.5465   15.5753 C   0  0  0  0  0  0  0  0  0  0  0  0
   20.9990   76.7304   14.4314 C   0  0  0  0  0  0  0  0  0  0  0  0
   19.8710   75.9729   14.2275 C   0  0  0  0  0  0  0  0  0  0  0  0
   18.8805   76.0455   15.1768 C   0  0  0  0  0  0  0  0  0  0  0  0
   19.0064   76.8436   16.2909 C   0  0  0  0  0  0  0  0  0  0  0  0
   19.7377   75.1537   13.0941 O   0  0  0  0  0  0  0  0  0  0  0  0
   18.7398   74.1640   13.0132 C   0  0  0  0  0  0  0  0  0  0  0  0
   19.2679   72.7916   13.2896 C   0  0  0  0  0  0  0  0  0  0  0  0
 14 15  1  0  0  0
 15 16  2  0  0  0
 15 20  1  0  0  0
 16 17  1  0  0  0
 17 18  2  0  0  0
 18 19  1  0  0  0
 18  1  1  0  0  0
 19 20  2  0  0  0
  1  2  1  0  0  0
  1 10  1  0  0  0
  2  3  1  0  0  0
  2 11  1  0  0  0
  2 21  1  0  0  0
  3  4  1  0  0  0
  4  5  1  0  0  0
  4 10  1  0  0  0
  5  6  1  0  0  0
  6  7  1  0  0  0
  7  8  1  0  0  0
  8  9  1  0  0  0
  9 10  2  0  0  0
 21 22  2  0  0  0
 21 26  1  0  0  0
 22 23  1  0  0  0
 23 24  2  0  0  0
 24 25  1  0  0  0
 24 27  1  0  0  0
 25 26  2  0  0  0
 27 28  1  0  0  0
 28 29  1  0  0  0
  1 12  1  0  0  0
 11 13  1  0  0  0
M  CHG 1   1   1
M  END
> <minimizedAffinity>
-10.09652

$$$$
860


 29 32  0  0  0  0  0  0  0  0999 V2000
   20.9974   77.6555    9.5362 Br  0  0  0  0  0  0  0  0  0  0  0  0
   21.4743   78.6576   11.0973 C   0  0  0  0  0  0  0  0  0  0  0  0
   21.2892   78.1491   12.3680 C   0  0  0  0  0  0  0  0  0  0  0  0
   21.6337   78.8733   13.4872 C   0  0  0  0  0  0  0  0  0  0  0  0
   22.1686   80.1271   13.2768 C   0  0  0  0  0  0  0  0  0  0  0  0
   22.3560   80.6407   12.0093 C   0  0  0  0  0  0  0  0  0  0  0  0
   22.0099   79.9120   10.8916 C   0  0  0  0  0  0  0  0  0  0  0  0
   22.2168   80.4765    9.5272 C   0  0  0  0  0  0  0  0  0  0  0  0
   22.5090   80.8404   14.4246 O   0  0  0  0  0  0  0  0  0  0  0  0
   22.0718   80.5163   15.7015 C   0  0  0  0  0  0  0  0  0  0  0  0
   21.8698   79.0622   15.9640 C   0  0  0  0  0  0  0  0  0  0  0  0
   21.4042   78.2612   14.7998 C   0  0  0  0  0  0  0  0  0  0  0  0
   22.0369   76.9944   14.7736 O   0  0  0  0  0  0  0  0  0  0  0  0
   22.5687   76.8628   13.9619 H   0  0  0  0  0  0  0  0  0  0  0  0
   20.8084   78.9916   16.9741 N   0  0  0  0  0  0  0  0  0  0  0  0
   20.3342   80.2685   17.3840 C   0  0  0  0  0  0  0  0  0  0  0  0
   19.0129   80.0167   18.1267 C   0  0  0  0  0  0  0  0  0  0  0  0
   19.3358   79.2804   19.2537 O   0  0  0  0  0  0  0  0  0  0  0  0
   19.9150   78.0514   18.9605 C   0  0  0  0  0  0  0  0  0  0  0  0
   21.1912   78.2336   18.1258 C   0  0  0  0  0  0  0  0  0  0  0  0
   20.0215   78.4841   16.5099 H   0  0  0  0  0  0  0  0  0  0  0  0
   23.0879   78.4038   16.5789 C   0  0  0  0  0  0  0  0  0  0  0  0
   24.3160   79.0824   16.2997 N   0  0  0  0  0  0  0  0  0  0  0  0
   25.2825   78.9603   17.3757 C   0  0  0  0  0  0  0  0  0  0  0  0
   26.6751   78.6448   16.8511 C   0  0  0  0  0  0  0  0  0  0  0  0
   26.7304   77.4203   16.2062 O   0  0  0  0  0  0  0  0  0  0  0  0
   25.5458   77.1513   15.5274 C   0  0  0  0  0  0  0  0  0  0  0  0
   24.9623   78.4881   15.1178 C   0  0  0  0  0  0  0  0  0  0  0  0
   24.2288   80.0876   16.0868 H   0  0  0  0  0  0  0  0  0  0  0  0
  1  2  1  0  0  0
  2  3  2  0  0  0
  2  7  1  0  0  0
  3  4  1  0  0  0
  4  5  2  0  0  0
  4 12  1  0  0  0
  5  6  1  0  0  0
  5  9  1  0  0  0
  6  7  2  0  0  0
  7  8  1  0  0  0
  9 10  1  0  0  0
 10 11  1  0  0  0
 11 12  1  0  0  0
 11 15  1  0  0  0
 11 22  1  0  0  0
 12 13  1  0  0  0
 15 16  1  0  0  0
 15 20  1  0  0  0
 16 17  1  0  0  0
 17 18  1  0  0  0
 18 19  1  0  0  0
 19 20  1  0  0  0
 22 23  1  0  0  0
 23 24  1  0  0  0
 23 28  1  0  0  0
 24 25  1  0  0  0
 25 26  1  0  0  0
 26 27  1  0  0  0
 27 28  1  0  0  0
 13 14  1  0  0  0
 15 21  1  0  0  0
 23 29  1  0  0  0
M  CHG 1  15   1
M  CHG 1  23   1
M  END
> <minimizedAffinity>
-8.14611

$$$$
861


 32 35  0  0  0  0  0  0  0  0999 V2000
   21.0196   77.8513   10.8021 Br  0  0  0  0  0  0  0  0  0  0  0  0
   20.2206   76.9385   12.2858 C   0  0  0  0  0  0  0  0  0  0  0  0
   20.4280   77.3989   13.5643 C   0  0  0  0  0  0  0  0  0  0  0  0
   19.8610   76.7594   14.6793 C   0  0  0  0  0  0  0  0  0  0  0  0
   19.0876   75.6485   14.4224 C   0  0  0  0  0  0  0  0  0  0  0  0
   18.8645   75.1656   13.1509 C   0  0  0  0  0  0  0  0  0  0  0  0
   19.4303   75.8098   12.0744 C   0  0  0  0  0  0  0  0  0  0  0  0
   19.2488   75.3677   10.6676 C   0  0  0  0  0  0  0  0  0  0  0  0
   17.7879   73.6244   12.8255 Br  0  0  0  0  0  0  0  0  0  0  0  0
   20.1082   77.2770   16.0090 C   0  0  0  0  0  0  0  0  0  0  0  0
   19.5315   76.7851   16.9849 O   0  0  0  0  0  0  0  0  0  0  0  0
   21.0523   78.3942   16.1881 C   0  0  0  0  0  0  0  0  0  0  0  0
   20.9479   79.2688   14.9580 C   0  0  0  0  0  0  0  0  0  0  0  0
   21.2152   78.5252   13.7833 O   0  0  0  0  0  0  0  0  0  0  0  0
   20.8260   79.1787   17.4448 C   0  0  0  0  0  0  0  0  0  0  0  0
   19.6688   79.9874   17.4718 N   0  0  0  0  0  0  0  0  0  0  0  0
   18.7833   79.5414   18.5065 C   0  0  0  0  0  0  0  0  0  0  0  0
   19.2416   79.8139   19.8943 C   0  0  0  0  0  0  0  0  0  0  0  0
   20.4249   80.6890   20.0456 C   0  0  0  0  0  0  0  0  0  0  0  0
   20.7234   81.6043   18.9231 C   0  0  0  0  0  0  0  0  0  0  0  0
   19.8914   81.3896   17.6932 C   0  0  0  0  0  0  0  0  0  0  0  0
   19.5748   78.4662   20.5450 C   0  0  0  0  0  0  0  0  0  0  0  0
   19.1492   79.9023   16.5617 H   0  0  0  0  0  0  0  0  0  0  0  0
   22.4339   77.7734   16.2065 C   0  0  0  0  0  0  0  0  0  0  0  0
   23.3871   78.3837   15.3439 N   0  0  0  0  0  0  0  0  0  0  0  0
   24.2217   77.3650   14.7096 C   0  0  0  0  0  0  0  0  0  0  0  0
   25.5657   77.2315   15.3636 C   0  0  0  0  0  0  0  0  0  0  0  0
   25.4070   77.2986   16.8657 C   0  0  0  0  0  0  0  0  0  0  0  0
   24.9592   78.6835   17.2166 C   0  0  0  0  0  0  0  0  0  0  0  0
   24.2927   79.2951   16.0092 C   0  0  0  0  0  0  0  0  0  0  0  0
   26.0796   75.8204   15.0475 C   0  0  0  0  0  0  0  0  0  0  0  0
   22.9191   78.8872   14.5856 H   0  0  0  0  0  0  0  0  0  0  0  0
  1  2  1  0  0  0
  2  3  2  0  0  0
  2  7  1  0  0  0
  3  4  1  0  0  0
  3 14  1  0  0  0
  4  5  2  0  0  0
  4 10  1  0  0  0
  5  6  1  0  0  0
  6  7  2  0  0  0
  6  9  1  0  0  0
  7  8  1  0  0  0
 10 11  2  0  0  0
 10 12  1  0  0  0
 12 13  1  0  0  0
 12 15  1  0  0  0
 12 24  1  0  0  0
 13 14  1  0  0  0
 15 16  1  0  0  0
 16 17  1  0  0  0
 16 21  1  0  0  0
 17 18  1  0  0  0
 18 19  1  0  0  0
 18 22  1  0  0  0
 19 20  1  0  0  0
 20 21  1  0  0  0
 24 25  1  0  0  0
 25 26  1  0  0  0
 25 30  1  0  0  0
 26 27  1  0  0  0
 27 28  1  0  0  0
 27 31  1  0  0  0
 28 29  1  0  0  0
 29 30  1  0  0  0
 16 23  1  0  0  0
 25 32  1  0  0  0
M  CHG 1  16   1
M  CHG 1  25   1
M  END
> <minimizedAffinity>
-8.58141

$$$$
862


 30 33  0  0  0  0  0  0  0  0999 V2000
   20.9357   76.8576   18.7775 Br  0  0  0  0  0  0  0  0  0  0  0  0
   21.0486   78.5614   17.9733 C   0  0  0  0  0  0  0  0  0  0  0  0
   21.6743   78.6567   16.7544 C   0  0  0  0  0  0  0  0  0  0  0  0
   21.8184   79.8693   16.0589 C   0  0  0  0  0  0  0  0  0  0  0  0
   21.3014   81.0360   16.6356 C   0  0  0  0  0  0  0  0  0  0  0  0
   20.6771   80.9252   17.8579 C   0  0  0  0  0  0  0  0  0  0  0  0
   20.5459   79.7211   18.5255 C   0  0  0  0  0  0  0  0  0  0  0  0
   19.8598   79.6331   19.8597 C   0  0  0  0  0  0  0  0  0  0  0  0
   19.9723   82.5136   18.6407 Br  0  0  0  0  0  0  0  0  0  0  0  0
   22.4959   79.9104   14.7771 C   0  0  0  0  0  0  0  0  0  0  0  0
   23.1211   80.9669   14.5106 O   0  0  0  0  0  0  0  0  0  0  0  0
   22.3870   78.7174   13.9162 C   0  0  0  0  0  0  0  0  0  0  0  0
   22.9513   77.6132   14.9192 C   0  0  0  0  0  0  0  0  0  0  0  0
   22.2222   77.5728   16.0932 O   0  0  0  0  0  0  0  0  0  0  0  0
   23.2493   78.6596   12.7527 C   0  0  0  0  0  0  0  0  0  0  0  0
   23.2248   79.4459   11.6118 N   0  0  0  0  0  0  0  0  0  0  0  0
   22.2464   80.4348   11.3797 C   0  0  0  0  0  0  0  0  0  0  0  0
   21.9731   80.6928    9.9037 C   0  0  0  0  0  0  0  0  0  0  0  0
   21.3575   79.5050    9.2356 C   0  0  0  0  0  0  0  0  0  0  0  0
   21.9227   78.2677    9.8625 C   0  0  0  0  0  0  0  0  0  0  0  0
   23.2749   78.5685   10.4212 C   0  0  0  0  0  0  0  0  0  0  0  0
   24.1882   79.9681   11.4716 H   0  0  0  0  0  0  0  0  0  0  0  0
   20.9615   78.3967   13.6738 C   0  0  0  0  0  0  0  0  0  0  0  0
   20.5783   77.1451   13.1699 N   0  0  0  0  0  0  0  0  0  0  0  0
   19.8565   76.4254   14.2279 C   0  0  0  0  0  0  0  0  0  0  0  0
   19.6583   74.9625   13.8891 C   0  0  0  0  0  0  0  0  0  0  0  0
   18.7288   74.9451   12.6652 C   0  0  0  0  0  0  0  0  0  0  0  0
   19.5053   75.6810   11.5975 C   0  0  0  0  0  0  0  0  0  0  0  0
   19.6476   77.1431   12.0534 C   0  0  0  0  0  0  0  0  0  0  0  0
   21.3226   76.4752   12.8870 H   0  0  0  0  0  0  0  0  0  0  0  0
  1  2  1  0  0  0
  2  3  2  0  0  0
  2  7  1  0  0  0
  3  4  1  0  0  0
  3 14  1  0  0  0
  4  5  2  0  0  0
  4 10  1  0  0  0
  5  6  1  0  0  0
  6  7  2  0  0  0
  6  9  1  0  0  0
  7  8  1  0  0  0
 10 11  2  0  0  0
 10 12  1  0  0  0
 12 13  1  0  0  0
 12 15  1  0  0  0
 12 23  1  0  0  0
 13 14  1  0  0  0
 15 16  1  0  0  0
 16 17  1  0  0  0
 16 21  1  0  0  0
 17 18  1  0  0  0
 18 19  1  0  0  0
 19 20  1  0  0  0
 20 21  1  0  0  0
 23 24  1  0  0  0
 24 25  1  0  0  0
 24 29  1  0  0  0
 25 26  1  0  0  0
 26 27  1  0  0  0
 27 28  1  0  0  0
 28 29  1  0  0  0
 16 22  1  0  0  0
 24 30  1  0  0  0
M  CHG 1  16   1
M  CHG 1  24   1
M  END
> <minimizedAffinity>
-8.11354

$$$$
865


 30 33  0  0  0  0  0  0  0  0999 V2000
   19.7065   77.5903   16.5480 C   0  0  0  0  0  0  0  0  0  0  0  0
   20.9765   78.0362   16.4301 N   0  0  0  0  0  0  0  0  0  0  0  0
   21.8529   77.5276   15.5288 C   0  0  0  0  0  0  0  0  0  0  0  0
   21.3995   76.5455   14.7473 N   0  0  0  0  0  0  0  0  0  0  0  0
   20.1504   76.0522   14.8085 C   0  0  0  0  0  0  0  0  0  0  0  0
   19.3292   76.5988   15.7224 N   0  0  0  0  0  0  0  0  0  0  0  0
   19.7380   75.0037   13.9423 N   0  0  0  0  0  0  0  0  0  0  0  0
   20.1578   73.6465   14.2344 C   0  0  0  0  0  0  0  0  0  0  0  0
   19.6387   72.7166   13.1608 C   0  0  0  0  0  0  0  0  0  0  0  0
   18.3103   72.8644   12.8796 O   0  0  0  0  0  0  0  0  0  0  0  0
   17.8318   74.1453   12.8159 C   0  0  0  0  0  0  0  0  0  0  0  0
   18.9233   75.2018   12.7806 C   0  0  0  0  0  0  0  0  0  0  0  0
   23.1796   78.0355   15.4472 N   0  0  0  0  0  0  0  0  0  0  0  0
   24.2424   77.4098   14.6954 C   0  0  0  0  0  0  0  0  0  0  0  0
   25.3635   77.2374   15.7187 C   0  0  0  0  0  0  0  0  0  0  0  0
   25.8308   78.4506   16.0663 O   0  0  0  0  0  0  0  0  0  0  0  0
   24.9819   79.4413   16.3677 C   0  0  0  0  0  0  0  0  0  0  0  0
   23.5345   79.2505   16.1425 C   0  0  0  0  0  0  0  0  0  0  0  0
   18.8461   78.1671   17.5103 N   0  0  0  0  0  0  0  0  0  0  0  0
   18.1151   77.5835   17.9495 H   0  0  0  0  0  0  0  0  0  0  0  0
   19.5631   79.9057   18.9340 C   0  0  0  0  0  0  0  0  0  0  0  0
   18.9734   79.5026   17.8658 N   0  0  0  0  0  0  0  0  0  0  0  0
   19.9484   85.4128   20.0787 F   0  0  0  0  0  0  0  0  0  0  0  0
   19.8489   84.0802   19.8169 C   0  0  0  0  0  0  0  0  0  0  0  0
   19.3774   83.1880   20.7576 C   0  0  0  0  0  0  0  0  0  0  0  0
   19.2855   81.8418   20.4715 C   0  0  0  0  0  0  0  0  0  0  0  0
   19.6583   81.3267   19.2411 C   0  0  0  0  0  0  0  0  0  0  0  0
   20.1281   82.2259   18.3073 C   0  0  0  0  0  0  0  0  0  0  0  0
   20.2229   83.5814   18.5909 C   0  0  0  0  0  0  0  0  0  0  0  0
   18.8560   83.8710   22.4634 Br  0  0  0  0  0  0  0  0  0  0  0  0
 23 24  1  0  0  0
 24 25  2  0  0  0
 24 29  1  0  0  0
 25 26  1  0  0  0
 25 30  1  0  0  0
 26 27  2  0  0  0
 27 28  1  0  0  0
 27 21  1  0  0  0
 28 29  2  0  0  0
 21 22  2  0  0  0
 22 19  1  0  0  0
 19  1  1  0  0  0
  1  2  2  0  0  0
  1  6  1  0  0  0
  2  3  1  0  0  0
  3  4  2  0  0  0
  3 13  1  0  0  0
  4  5  1  0  0  0
  5  6  2  0  0  0
  5  7  1  0  0  0
  7  8  1  0  0  0
  7 12  1  0  0  0
  8  9  1  0  0  0
  9 10  1  0  0  0
 10 11  1  0  0  0
 11 12  1  0  0  0
 13 14  1  0  0  0
 13 18  1  0  0  0
 14 15  1  0  0  0
 15 16  1  0  0  0
 16 17  1  0  0  0
 17 18  1  0  0  0
 19 20  1  0  0  0
M  END
> <minimizedAffinity>
-10.25252

$$$$
872


 32 35  0  0  0  0  0  0  0  0999 V2000
   21.7955   78.4734   15.6159 N   0  0  0  0  0  0  0  0  0  0  0  0
   21.6723   77.1618   15.7120 N   0  0  0  0  0  0  0  0  0  0  0  0
   21.1496   76.9334   16.9042 N   0  0  0  0  0  0  0  0  0  0  0  0
   20.9387   78.0865   17.5714 C   0  0  0  0  0  0  0  0  0  0  0  0
   21.3532   79.0583   16.7420 C   0  0  0  0  0  0  0  0  0  0  0  0
   21.1322   80.2249   17.4362 C   0  0  0  0  0  0  0  0  0  0  0  0
   21.3924   81.3779   16.9992 O   0  0  0  0  0  0  0  0  0  0  0  0
   20.6003   79.9910   18.6530 N   0  0  0  0  0  0  0  0  0  0  0  0
   20.4764   78.6568   18.7444 C   0  0  0  0  0  0  0  0  0  0  0  0
   20.0138   78.0371   19.7378 O   0  0  0  0  0  0  0  0  0  0  0  0
   21.9329   76.4299   14.9901 H   0  0  0  0  0  0  0  0  0  0  0  0
   20.9399   75.9614   17.2532 H   0  0  0  0  0  0  0  0  0  0  0  0
   20.2517   80.9946   19.6226 C   0  0  0  0  0  0  0  0  0  0  0  0
   19.0820   81.7187   19.4992 C   0  0  0  0  0  0  0  0  0  0  0  0
   18.7077   82.6902   20.4042 C   0  0  0  0  0  0  0  0  0  0  0  0
   19.5600   82.9242   21.4657 C   0  0  0  0  0  0  0  0  0  0  0  0
   20.7454   82.2294   21.6408 C   0  0  0  0  0  0  0  0  0  0  0  0
   21.0607   81.2712   20.6988 C   0  0  0  0  0  0  0  0  0  0  0  0
   19.0182   84.2814   22.7132 Br  0  0  0  0  0  0  0  0  0  0  0  0
   22.3294   79.1379   14.4471 C   0  0  0  0  0  0  0  0  0  0  0  0
   21.4702   79.5398   12.1236 N   0  0  0  0  0  0  0  0  0  0  0  0
   21.5476   78.6944   13.2270 C   0  0  0  0  0  0  0  0  0  0  0  0
   21.0117   77.5831   13.2863 O   0  0  0  0  0  0  0  0  0  0  0  0
   21.9904   80.4785   12.2164 H   0  0  0  0  0  0  0  0  0  0  0  0
   22.7429   78.1810   10.1639 F   0  0  0  0  0  0  0  0  0  0  0  0
   21.4540   78.5495    9.9237 C   0  0  0  0  0  0  0  0  0  0  0  0
   20.7811   79.2556   10.9344 C   0  0  0  0  0  0  0  0  0  0  0  0
   19.4934   79.6250   10.6994 C   0  0  0  0  0  0  0  0  0  0  0  0
   18.8166   79.3310    9.4964 C   0  0  0  0  0  0  0  0  0  0  0  0
   19.5105   78.6377    8.5316 C   0  0  0  0  0  0  0  0  0  0  0  0
   20.8169   78.2515    8.7470 C   0  0  0  0  0  0  0  0  0  0  0  0
   18.9180   78.3244    7.3561 F   0  0  0  0  0  0  0  0  0  0  0  0
 25 26  1  0  0  0
 26 27  2  0  0  0
 26 31  1  0  0  0
 27 28  1  0  0  0
 27 21  1  0  0  0
 28 29  2  0  0  0
 29 30  1  0  0  0
 30 31  2  0  0  0
 30 32  1  0  0  0
 21 22  1  0  0  0
 22 23  2  0  0  0
 22 20  1  0  0  0
 20  1  1  0  0  0
  1  2  1  0  0  0
  1  5  1  0  0  0
  2  3  1  0  0  0
  3  4  1  0  0  0
  4  5  2  0  0  0
  4  9  1  0  0  0
  5  6  1  0  0  0
  6  7  2  0  0  0
  6  8  1  0  0  0
  8  9  1  0  0  0
  8 13  1  0  0  0
  9 10  2  0  0  0
 13 14  2  0  0  0
 13 18  1  0  0  0
 14 15  1  0  0  0
 15 16  2  0  0  0
 16 17  1  0  0  0
 16 19  1  0  0  0
 17 18  2  0  0  0
 21 24  1  0  0  0
  2 11  1  0  0  0
  3 12  1  0  0  0
M  END
> <minimizedAffinity>
-10.31875

$$$$
873


 32 35  0  0  0  0  0  0  0  0999 V2000
   22.1960   77.7104   16.5192 C   0  0  0  0  0  0  0  0  0  0  0  0
   21.4714   77.8457   15.2653 N   0  0  0  0  0  0  0  0  0  0  0  0
   21.5785   79.2645   15.0237 C   0  0  0  0  0  0  0  0  0  0  0  0
   21.6285   79.8724   13.9219 O   0  0  0  0  0  0  0  0  0  0  0  0
   21.6269   79.9682   16.3364 C   0  0  0  0  0  0  0  0  0  0  0  0
   21.7141   81.1578   16.6358 O   0  0  0  0  0  0  0  0  0  0  0  0
   21.5385   78.8300   17.2976 C   0  0  0  0  0  0  0  0  0  0  0  0
   21.0203   78.8522   18.5011 C   0  0  0  0  0  0  0  0  0  0  0  0
   21.0339   77.6757   19.2774 O   0  0  0  0  0  0  0  0  0  0  0  0
   24.0351   76.4719   14.6730 F   0  0  0  0  0  0  0  0  0  0  0  0
   24.4782   77.3707   15.5385 C   0  0  0  0  0  0  0  0  0  0  0  0
   23.6364   78.0011   16.4317 C   0  0  0  0  0  0  0  0  0  0  0  0
   24.2433   78.9074   17.2653 C   0  0  0  0  0  0  0  0  0  0  0  0
   25.5971   79.2045   17.2500 C   0  0  0  0  0  0  0  0  0  0  0  0
   26.3981   78.5600   16.3514 C   0  0  0  0  0  0  0  0  0  0  0  0
   25.8468   77.6533   15.5064 C   0  0  0  0  0  0  0  0  0  0  0  0
   20.4262   80.0571   19.0612 C   0  0  0  0  0  0  0  0  0  0  0  0
   21.1704   80.8291   19.9261 C   0  0  0  0  0  0  0  0  0  0  0  0
   20.6581   81.9724   20.5167 C   0  0  0  0  0  0  0  0  0  0  0  0
   19.3665   82.3658   20.2413 C   0  0  0  0  0  0  0  0  0  0  0  0
   18.6127   81.6176   19.3898 C   0  0  0  0  0  0  0  0  0  0  0  0
   19.1436   80.4587   18.7968 C   0  0  0  0  0  0  0  0  0  0  0  0
   18.6266   83.9531   21.0485 Br  0  0  0  0  0  0  0  0  0  0  0  0
   20.8048   76.9569   14.4140 C   0  0  0  0  0  0  0  0  0  0  0  0
   19.6471   76.1645   14.9055 C   0  0  0  0  0  0  0  0  0  0  0  0
   19.0855   75.2733   13.9302 N   0  0  0  0  0  0  0  0  0  0  0  0
   19.7608   73.9952   14.0199 C   0  0  0  0  0  0  0  0  0  0  0  0
   19.1203   72.9824   13.0879 C   0  0  0  0  0  0  0  0  0  0  0  0
   19.1922   73.4544   11.7912 O   0  0  0  0  0  0  0  0  0  0  0  0
   18.5844   74.7025   11.6903 C   0  0  0  0  0  0  0  0  0  0  0  0
   19.3413   75.7264   12.5477 C   0  0  0  0  0  0  0  0  0  0  0  0
   18.0481   75.2000   13.9658 H   0  0  0  0  0  0  0  0  0  0  0  0
 10 11  1  0  0  0
 11 12  2  0  0  0
 11 16  1  0  0  0
 12 13  1  0  0  0
 12  1  1  0  0  0
 13 14  2  0  0  0
 14 15  1  0  0  0
 15 16  2  0  0  0
  1  2  1  0  0  0
  1  7  1  0  0  0
  2  3  1  0  0  0
  2 24  1  0  0  0
  3  4  2  0  0  0
  3  5  1  0  0  0
  5  6  2  0  0  0
  5  7  1  0  0  0
  7  8  2  0  0  0
  8  9  1  0  0  0
  8 17  1  0  0  0
 17 18  2  0  0  0
 17 22  1  0  0  0
 18 19  1  0  0  0
 19 20  2  0  0  0
 20 21  1  0  0  0
 20 23  1  0  0  0
 21 22  2  0  0  0
 24 25  1  0  0  0
 25 26  1  0  0  0
 26 27  1  0  0  0
 26 31  1  0  0  0
 27 28  1  0  0  0
 28 29  1  0  0  0
 29 30  1  0  0  0
 30 31  1  0  0  0
 26 32  1  0  0  0
M  CHG 1   9  -1
M  CHG 1  26   1
M  END
> <minimizedAffinity>
-10.42347

$$$$
874


 31 34  0  0  0  0  0  0  0  0999 V2000
   21.3349   79.2232   16.8692 N   0  0  0  0  0  0  0  0  0  0  0  0
   21.9550   80.1423   16.1617 N   0  0  0  0  0  0  0  0  0  0  0  0
   22.0092   79.7834   14.8874 N   0  0  0  0  0  0  0  0  0  0  0  0
   21.4006   78.5834   14.7641 C   0  0  0  0  0  0  0  0  0  0  0  0
   20.9966   78.2563   15.9744 C   0  0  0  0  0  0  0  0  0  0  0  0
   20.3724   77.0251   15.8507 C   0  0  0  0  0  0  0  0  0  0  0  0
   19.8594   76.3980   16.8023 O   0  0  0  0  0  0  0  0  0  0  0  0
   20.3928   76.6017   14.5741 N   0  0  0  0  0  0  0  0  0  0  0  0
   21.0332   77.5719   13.8962 C   0  0  0  0  0  0  0  0  0  0  0  0
   21.2679   77.5718   12.6679 O   0  0  0  0  0  0  0  0  0  0  0  0
   22.3413   81.0283   16.5787 H   0  0  0  0  0  0  0  0  0  0  0  0
   22.4470   80.3323   14.1080 H   0  0  0  0  0  0  0  0  0  0  0  0
   19.8466   75.3828   14.0700 C   0  0  0  0  0  0  0  0  0  0  0  0
   20.4579   74.1692   14.3171 C   0  0  0  0  0  0  0  0  0  0  0  0
   19.9427   72.9810   13.8379 C   0  0  0  0  0  0  0  0  0  0  0  0
   18.7870   72.9594   13.0852 C   0  0  0  0  0  0  0  0  0  0  0  0
   18.1600   74.1599   12.8255 C   0  0  0  0  0  0  0  0  0  0  0  0
   18.6914   75.3368   13.3141 C   0  0  0  0  0  0  0  0  0  0  0  0
   18.0507   71.3291   12.4085 Br  0  0  0  0  0  0  0  0  0  0  0  0
   21.0553   79.2075   18.2931 C   0  0  0  0  0  0  0  0  0  0  0  0
   20.6972   81.2990   19.6388 N   0  0  0  0  0  0  0  0  0  0  0  0
   20.2596   80.4129   18.6594 C   0  0  0  0  0  0  0  0  0  0  0  0
   19.1943   80.5736   18.0419 O   0  0  0  0  0  0  0  0  0  0  0  0
   21.6341   81.0516   20.1004 H   0  0  0  0  0  0  0  0  0  0  0  0
   20.8411   83.6078   18.1557 F   0  0  0  0  0  0  0  0  0  0  0  0
   20.1414   83.6558   19.3261 C   0  0  0  0  0  0  0  0  0  0  0  0
   20.0567   82.4854   20.0968 C   0  0  0  0  0  0  0  0  0  0  0  0
   19.3432   82.5834   21.2640 C   0  0  0  0  0  0  0  0  0  0  0  0
   18.7509   83.7787   21.6376 C   0  0  0  0  0  0  0  0  0  0  0  0
   18.8356   84.9132   20.8850 C   0  0  0  0  0  0  0  0  0  0  0  0
   19.5479   84.8308   19.7113 C   0  0  0  0  0  0  0  0  0  0  0  0
 25 26  1  0  0  0
 26 27  2  0  0  0
 26 31  1  0  0  0
 27 28  1  0  0  0
 27 21  1  0  0  0
 28 29  2  0  0  0
 29 30  1  0  0  0
 30 31  2  0  0  0
 21 22  1  0  0  0
 22 23  2  0  0  0
 22 20  1  0  0  0
 20  1  1  0  0  0
  1  2  1  0  0  0
  1  5  1  0  0  0
  2  3  1  0  0  0
  3  4  1  0  0  0
  4  5  2  0  0  0
  4  9  1  0  0  0
  5  6  1  0  0  0
  6  7  2  0  0  0
  6  8  1  0  0  0
  8  9  1  0  0  0
  8 13  1  0  0  0
  9 10  2  0  0  0
 13 14  2  0  0  0
 13 18  1  0  0  0
 14 15  1  0  0  0
 15 16  2  0  0  0
 16 17  1  0  0  0
 16 19  1  0  0  0
 17 18  2  0  0  0
 21 24  1  0  0  0
  2 11  1  0  0  0
  3 12  1  0  0  0
M  END
> <minimizedAffinity>
-10.05367

$$$$
886


 31 34  0  0  0  0  0  0  0  0999 V2000
   19.9675   80.7442   18.8028 N   0  0  0  0  0  0  0  0  0  0  0  0
   20.7968   80.2662   17.8597 C   0  0  0  0  0  0  0  0  0  0  0  0
   21.5857   81.0232   17.2313 O   0  0  0  0  0  0  0  0  0  0  0  0
   20.6642   78.9008   17.6908 C   0  0  0  0  0  0  0  0  0  0  0  0
   19.7234   78.5404   18.5593 C   0  0  0  0  0  0  0  0  0  0  0  0
   19.5591   77.2210   18.4274 N   0  0  0  0  0  0  0  0  0  0  0  0
   20.3859   76.7884   17.4939 N   0  0  0  0  0  0  0  0  0  0  0  0
   21.0908   77.8072   17.0117 N   0  0  0  0  0  0  0  0  0  0  0  0
   19.2894   79.6549   19.2450 C   0  0  0  0  0  0  0  0  0  0  0  0
   18.4116   79.7396   20.1505 O   0  0  0  0  0  0  0  0  0  0  0  0
   18.8707   76.6556   18.9966 H   0  0  0  0  0  0  0  0  0  0  0  0
   20.4862   75.8152   17.1729 H   0  0  0  0  0  0  0  0  0  0  0  0
   19.2973   85.9659   20.7190 F   0  0  0  0  0  0  0  0  0  0  0  0
   19.4602   84.6941   20.2469 C   0  0  0  0  0  0  0  0  0  0  0  0
   20.0182   84.4920   19.0164 C   0  0  0  0  0  0  0  0  0  0  0  0
   20.1905   83.1957   18.5251 C   0  0  0  0  0  0  0  0  0  0  0  0
   19.8096   82.0893   19.2504 C   0  0  0  0  0  0  0  0  0  0  0  0
   19.2467   82.3292   20.4944 C   0  0  0  0  0  0  0  0  0  0  0  0
   19.0723   83.6022   20.9885 C   0  0  0  0  0  0  0  0  0  0  0  0
   22.1024   77.8105   15.9950 C   0  0  0  0  0  0  0  0  0  0  0  0
   21.6455   77.4652   14.6446 C   0  0  0  0  0  0  0  0  0  0  0  0
   21.1910   76.3245   14.4689 O   0  0  0  0  0  0  0  0  0  0  0  0
   21.7230   78.3970   13.6055 N   0  0  0  0  0  0  0  0  0  0  0  0
   22.1295   79.3755   13.8333 H   0  0  0  0  0  0  0  0  0  0  0  0
   21.3397   78.2586   12.2511 C   0  0  0  0  0  0  0  0  0  0  0  0
   20.1612   77.6541   11.8840 C   0  0  0  0  0  0  0  0  0  0  0  0
   19.7497   77.4980   10.5569 C   0  0  0  0  0  0  0  0  0  0  0  0
   20.5941   77.9880    9.5930 C   0  0  0  0  0  0  0  0  0  0  0  0
   21.7767   78.5965    9.9323 C   0  0  0  0  0  0  0  0  0  0  0  0
   22.1573   78.7366   11.2416 C   0  0  0  0  0  0  0  0  0  0  0  0
   20.0893   77.8087    7.7410 Br  0  0  0  0  0  0  0  0  0  0  0  0
 13 14  1  0  0  0
 14 15  2  0  0  0
 14 19  1  0  0  0
 15 16  1  0  0  0
 16 17  2  0  0  0
 17 18  1  0  0  0
 17  1  1  0  0  0
 18 19  2  0  0  0
  1  2  1  0  0  0
  1  9  1  0  0  0
  2  3  2  0  0  0
  2  4  1  0  0  0
  4  5  2  0  0  0
  4  8  1  0  0  0
  5  6  1  0  0  0
  5  9  1  0  0  0
  6  7  1  0  0  0
  7  8  1  0  0  0
  8 20  1  0  0  0
 20 21  1  0  0  0
 21 22  2  0  0  0
 21 23  1  0  0  0
 23 25  1  0  0  0
 25 26  2  0  0  0
 25 30  1  0  0  0
 26 27  1  0  0  0
 27 28  2  0  0  0
 28 29  1  0  0  0
 28 31  1  0  0  0
 29 30  2  0  0  0
  9 10  2  0  0  0
  6 11  1  0  0  0
  7 12  1  0  0  0
 23 24  1  0  0  0
M  END
> <minimizedAffinity>
-11.47987

$$$$
892


 27 30  0  0  0  0  0  0  0  0999 V2000
   23.6901   78.2418   14.2952 C   0  0  0  0  0  0  0  0  0  0  0  0
   23.4992   77.7021   15.6225 N   0  0  0  0  0  0  0  0  0  0  0  0
   22.6445   78.3846   16.5460 C   0  0  0  0  0  0  0  0  0  0  0  0
   21.7309   77.8633   17.9304 S   0  0  0  0  0  0  0  0  0  0  0  0
   21.0416   79.3496   18.3838 C   0  0  0  0  0  0  0  0  0  0  0  0
   21.5316   80.2038   17.4580 C   0  0  0  0  0  0  0  0  0  0  0  0
   22.3535   79.7177   16.5129 C   0  0  0  0  0  0  0  0  0  0  0  0
   23.0445   80.3946   15.3787 C   0  0  0  0  0  0  0  0  0  0  0  0
   22.9088   81.6247   15.1782 O   0  0  0  0  0  0  0  0  0  0  0  0
   23.8751   79.6692   14.4962 N   0  0  0  0  0  0  0  0  0  0  0  0
   21.0695   81.6465   17.6242 C   0  0  0  0  0  0  0  0  0  0  0  0
   20.6519   81.8430   19.0451 C   0  0  0  0  0  0  0  0  0  0  0  0
   19.5104   80.9374   19.2504 N   0  0  0  0  0  0  0  0  0  0  0  0
   20.1292   79.6546   19.5099 C   0  0  0  0  0  0  0  0  0  0  0  0
   18.6778   81.3813   20.3430 C   0  0  0  0  0  0  0  0  0  0  0  0
   23.9594   76.8261   15.9552 H   0  0  0  0  0  0  0  0  0  0  0  0
   24.6460   80.1483   13.9647 H   0  0  0  0  0  0  0  0  0  0  0  0
   18.9841   80.8543   18.3552 H   0  0  0  0  0  0  0  0  0  0  0  0
   20.3764   79.4058    9.9785 I   0  0  0  0  0  0  0  0  0  0  0  0
   20.8718   78.3627   11.7366 C   0  0  0  0  0  0  0  0  0  0  0  0
   22.0710   78.6377   12.3956 C   0  0  0  0  0  0  0  0  0  0  0  0
   22.4328   77.9800   13.5469 C   0  0  0  0  0  0  0  0  0  0  0  0
   21.5258   77.0189   14.0158 C   0  0  0  0  0  0  0  0  0  0  0  0
   20.3508   76.7547   13.3616 C   0  0  0  0  0  0  0  0  0  0  0  0
   20.0078   77.4249   12.2109 C   0  0  0  0  0  0  0  0  0  0  0  0
   19.1447   75.4415   14.0291 Br  0  0  0  0  0  0  0  0  0  0  0  0
   22.9110   79.5952   11.8719 O   0  0  0  0  0  0  0  0  0  0  0  0
 19 20  1  0  0  0
 20 21  2  0  0  0
 20 25  1  0  0  0
 21 22  1  0  0  0
 21 27  1  0  0  0
 22 23  2  0  0  0
 22  1  1  0  0  0
 23 24  1  0  0  0
 24 25  2  0  0  0
 24 26  1  0  0  0
  1  2  1  0  0  0
  1 10  1  0  0  0
  2  3  1  0  0  0
  3  4  1  0  0  0
  3  7  2  0  0  0
  4  5  1  0  0  0
  5  6  2  0  0  0
  5 14  1  0  0  0
  6  7  1  0  0  0
  6 11  1  0  0  0
  7  8  1  0  0  0
  8  9  2  0  0  0
  8 10  1  0  0  0
 11 12  1  0  0  0
 12 13  1  0  0  0
 13 14  1  0  0  0
 13 15  1  0  0  0
  2 16  1  0  0  0
 10 17  1  0  0  0
 13 18  1  0  0  0
M  CHG 1  13   1
M  CHG 1  27  -1
M  END
> <minimizedAffinity>
-7.78725

$$$$
895


 28 31  0  0  0  0  0  0  0  0999 V2000
   22.5938   80.1255   12.7426 C   0  0  0  0  0  0  0  0  0  0  0  0
   21.1458   80.0053   12.5721 N   0  0  0  0  0  0  0  0  0  0  0  0
   20.5749   79.6139   11.2985 C   0  0  0  0  0  0  0  0  0  0  0  0
   18.9768   79.6719   10.6685 S   0  0  0  0  0  0  0  0  0  0  0  0
   19.2703   79.0125    9.1340 C   0  0  0  0  0  0  0  0  0  0  0  0
   20.6157   78.7597    9.1469 C   0  0  0  0  0  0  0  0  0  0  0  0
   21.2871   79.0746   10.2758 C   0  0  0  0  0  0  0  0  0  0  0  0
   22.7442   78.8997   10.5404 C   0  0  0  0  0  0  0  0  0  0  0  0
   23.5224   78.4077    9.6683 O   0  0  0  0  0  0  0  0  0  0  0  0
   23.2687   79.2893   11.7884 N   0  0  0  0  0  0  0  0  0  0  0  0
   21.0906   78.1516    7.8319 C   0  0  0  0  0  0  0  0  0  0  0  0
   20.2022   76.9903    7.4721 C   0  0  0  0  0  0  0  0  0  0  0  0
   18.8114   77.2464    7.6441 N   0  0  0  0  0  0  0  0  0  0  0  0
   18.5245   78.6588    7.8709 C   0  0  0  0  0  0  0  0  0  0  0  0
   18.3936   76.5620    8.8777 C   0  0  0  0  0  0  0  0  0  0  0  0
   20.4864   80.1937   13.3491 H   0  0  0  0  0  0  0  0  0  0  0  0
   24.2287   78.9521   12.0608 H   0  0  0  0  0  0  0  0  0  0  0  0
   18.2122   76.8882    6.8549 H   0  0  0  0  0  0  0  0  0  0  0  0
   21.1994   79.5715   18.0930 I   0  0  0  0  0  0  0  0  0  0  0  0
   22.4367   79.2482   16.4157 C   0  0  0  0  0  0  0  0  0  0  0  0
   23.5871   78.4973   16.5496 C   0  0  0  0  0  0  0  0  0  0  0  0
   24.4147   78.2756   15.4499 C   0  0  0  0  0  0  0  0  0  0  0  0
   24.0417   78.8232   14.2595 C   0  0  0  0  0  0  0  0  0  0  0  0
   22.8899   79.5821   14.0966 C   0  0  0  0  0  0  0  0  0  0  0  0
   22.0910   79.7885   15.1871 C   0  0  0  0  0  0  0  0  0  0  0  0
   23.9317   77.9584   17.7749 O   0  0  0  0  0  0  0  0  0  0  0  0
   25.5587   77.5133   15.6441 O   0  0  0  0  0  0  0  0  0  0  0  0
   25.5333   76.1491   15.2681 C   0  0  0  0  0  0  0  0  0  0  0  0
 19 20  1  0  0  0
 20 21  2  0  0  0
 20 25  1  0  0  0
 21 22  1  0  0  0
 21 26  1  0  0  0
 22 23  2  0  0  0
 22 27  1  0  0  0
 23 24  1  0  0  0
 24 25  2  0  0  0
 24  1  1  0  0  0
  1  2  1  0  0  0
  1 10  1  0  0  0
  2  3  1  0  0  0
  3  4  1  0  0  0
  3  7  2  0  0  0
  4  5  1  0  0  0
  5  6  2  0  0  0
  5 14  1  0  0  0
  6  7  1  0  0  0
  6 11  1  0  0  0
  7  8  1  0  0  0
  8  9  2  0  0  0
  8 10  1  0  0  0
 11 12  1  0  0  0
 12 13  1  0  0  0
 13 14  1  0  0  0
 13 15  1  0  0  0
 27 28  1  0  0  0
  2 16  1  0  0  0
 10 17  1  0  0  0
 13 18  1  0  0  0
M  CHG 1  13   1
M  CHG 1  26  -1
M  END
> <minimizedAffinity>
-7.63472

$$$$
906


 27 30  0  0  0  0  0  0  0  0999 V2000
   21.2737   77.2599   14.3871 C   0  0  0  0  0  0  0  0  0  0  0  0
   21.3138   78.1769   13.4277 N   0  0  0  0  0  0  0  0  0  0  0  0
   20.6804   78.1042   12.2451 C   0  0  0  0  0  0  0  0  0  0  0  0
   20.5471   78.8423   11.1363 N   0  0  0  0  0  0  0  0  0  0  0  0
   19.7756   78.2391   10.2789 O   0  0  0  0  0  0  0  0  0  0  0  0
   19.3778   77.1026   10.7758 N   0  0  0  0  0  0  0  0  0  0  0  0
   19.9087   76.9632   11.9999 C   0  0  0  0  0  0  0  0  0  0  0  0
   19.8333   76.0176   12.9188 N   0  0  0  0  0  0  0  0  0  0  0  0
   20.4822   76.1355   14.0800 C   0  0  0  0  0  0  0  0  0  0  0  0
   20.2096   75.0436   14.7759 N   0  0  0  0  0  0  0  0  0  0  0  0
   19.3967   74.2488   14.0582 N   0  0  0  0  0  0  0  0  0  0  0  0
   19.1454   74.8410   12.8816 C   0  0  0  0  0  0  0  0  0  0  0  0
   21.9344   77.3248   15.6309 N   0  0  0  0  0  0  0  0  0  0  0  0
   21.4020   76.9533   16.4950 H   0  0  0  0  0  0  0  0  0  0  0  0
   21.6606   79.5724   17.8737 I   0  0  0  0  0  0  0  0  0  0  0  0
   23.3696   78.8403   16.8724 C   0  0  0  0  0  0  0  0  0  0  0  0
   23.2252   77.8195   15.9065 C   0  0  0  0  0  0  0  0  0  0  0  0
   24.3188   77.3306   15.2507 C   0  0  0  0  0  0  0  0  0  0  0  0
   25.5648   77.8768   15.5694 C   0  0  0  0  0  0  0  0  0  0  0  0
   25.7348   78.8636   16.4994 C   0  0  0  0  0  0  0  0  0  0  0  0
   24.6104   79.3515   17.1615 C   0  0  0  0  0  0  0  0  0  0  0  0
   18.3036   74.3715   11.7491 C   0  0  0  0  0  0  0  0  0  0  0  0
   17.4125   73.2439   12.1124 C   0  0  0  0  0  0  0  0  0  0  0  0
   16.4197   73.3720   12.8587 O   0  0  0  0  0  0  0  0  0  0  0  0
   17.6888   72.0020   11.6112 O   0  0  0  0  0  0  0  0  0  0  0  0
   17.1638   70.8134   12.0840 C   0  0  0  0  0  0  0  0  0  0  0  0
   16.0559   70.2242   11.2976 C   0  0  0  0  0  0  0  0  0  0  0  0
 15 16  1  0  0  0
 16 17  2  0  0  0
 16 21  1  0  0  0
 17 18  1  0  0  0
 17 13  1  0  0  0
 18 19  2  0  0  0
 19 20  1  0  0  0
 20 21  2  0  0  0
 13  1  1  0  0  0
  1  2  2  0  0  0
  1  9  1  0  0  0
  2  3  1  0  0  0
  3  4  2  0  0  0
  3  7  1  0  0  0
  4  5  1  0  0  0
  5  6  1  0  0  0
  6  7  2  0  0  0
  7  8  1  0  0  0
  8  9  1  0  0  0
  8 12  1  0  0  0
  9 10  2  0  0  0
 10 11  1  0  0  0
 11 12  2  0  0  0
 12 22  1  0  0  0
 22 23  1  0  0  0
 23 24  2  0  0  0
 23 25  1  0  0  0
 25 26  1  0  0  0
 26 27  1  0  0  0
 13 14  1  0  0  0
M  END
> <minimizedAffinity>
-9.43703

$$$$
908


 25 28  0  0  0  0  0  0  0  0999 V2000
   21.3736   78.7640   16.4270 N   0  0  0  0  0  0  0  0  0  0  0  0
   21.1406   79.7727   17.2854 C   0  0  0  0  0  0  0  0  0  0  0  0
   21.4958   80.9771   17.1113 O   0  0  0  0  0  0  0  0  0  0  0  0
   20.4559   79.3370   18.4014 C   0  0  0  0  0  0  0  0  0  0  0  0
   20.2687   78.0401   18.2178 C   0  0  0  0  0  0  0  0  0  0  0  0
   19.5960   77.6275   19.3180 N   0  0  0  0  0  0  0  0  0  0  0  0
   19.3835   78.6398   20.1387 N   0  0  0  0  0  0  0  0  0  0  0  0
   19.9069   79.7066   19.5919 N   0  0  0  0  0  0  0  0  0  0  0  0
   20.8300   77.6769   17.0039 C   0  0  0  0  0  0  0  0  0  0  0  0
   20.8207   76.4937   16.5316 O   0  0  0  0  0  0  0  0  0  0  0  0
   19.2801   76.6538   19.5116 H   0  0  0  0  0  0  0  0  0  0  0  0
   18.8915   78.5991   21.0542 H   0  0  0  0  0  0  0  0  0  0  0  0
   24.5067   78.7244   16.9017 I   0  0  0  0  0  0  0  0  0  0  0  0
   23.4240   78.7907   15.0843 C   0  0  0  0  0  0  0  0  0  0  0  0
   22.0466   78.7988   15.1676 C   0  0  0  0  0  0  0  0  0  0  0  0
   21.3589   78.8415   13.9721 C   0  0  0  0  0  0  0  0  0  0  0  0
   22.0238   78.8758   12.7583 C   0  0  0  0  0  0  0  0  0  0  0  0
   23.4008   78.8670   12.6874 C   0  0  0  0  0  0  0  0  0  0  0  0
   24.0953   78.8243   13.8785 C   0  0  0  0  0  0  0  0  0  0  0  0
   19.9305   81.0350   20.0967 C   0  0  0  0  0  0  0  0  0  0  0  0
   19.0875   82.0144   19.6202 C   0  0  0  0  0  0  0  0  0  0  0  0
   19.1351   83.3002   20.1338 C   0  0  0  0  0  0  0  0  0  0  0  0
   20.0182   83.6538   21.1330 C   0  0  0  0  0  0  0  0  0  0  0  0
   20.8625   82.6744   21.6114 C   0  0  0  0  0  0  0  0  0  0  0  0
   20.8227   81.3971   21.1080 C   0  0  0  0  0  0  0  0  0  0  0  0
 13 14  1  0  0  0
 14 15  2  0  0  0
 14 19  1  0  0  0
 15 16  1  0  0  0
 15  1  1  0  0  0
 16 17  2  0  0  0
 17 18  1  0  0  0
 18 19  2  0  0  0
  1  2  1  0  0  0
  1  9  1  0  0  0
  2  3  2  0  0  0
  2  4  1  0  0  0
  4  5  2  0  0  0
  4  8  1  0  0  0
  5  6  1  0  0  0
  5  9  1  0  0  0
  6  7  1  0  0  0
  7  8  1  0  0  0
  8 20  1  0  0  0
 20 21  2  0  0  0
 20 25  1  0  0  0
 21 22  1  0  0  0
 22 23  2  0  0  0
 23 24  1  0  0  0
 24 25  2  0  0  0
  9 10  2  0  0  0
  6 11  1  0  0  0
  7 12  1  0  0  0
M  END
> <minimizedAffinity>
-10.60760

$$$$
910


 26 29  0  0  0  0  0  0  0  0999 V2000
   20.8826   79.2678   16.7504 C   0  0  0  0  0  0  0  0  0  0  0  0
   20.3143   78.6668   17.8974 C   0  0  0  0  0  0  0  0  0  0  0  0
   19.9675   77.4099   18.1489 N   0  0  0  0  0  0  0  0  0  0  0  0
   19.4796   77.3540   19.3506 O   0  0  0  0  0  0  0  0  0  0  0  0
   19.4913   78.5175   19.8939 N   0  0  0  0  0  0  0  0  0  0  0  0
   20.0108   79.3799   19.0105 C   0  0  0  0  0  0  0  0  0  0  0  0
   20.2576   80.7344   19.0439 C   0  0  0  0  0  0  0  0  0  0  0  0
   20.8068   81.3483   17.9480 C   0  0  0  0  0  0  0  0  0  0  0  0
   21.1207   80.6341   16.8082 C   0  0  0  0  0  0  0  0  0  0  0  0
   19.9228   81.4372   20.2110 N   0  0  0  0  0  0  0  0  0  0  0  0
   18.7562   82.3167   20.2979 C   0  0  0  0  0  0  0  0  0  0  0  0
   19.3345   83.6918   20.5629 C   0  0  0  0  0  0  0  0  0  0  0  0
   20.7151   83.7024   20.6788 O   0  0  0  0  0  0  0  0  0  0  0  0
   21.2360   82.8150   21.5966 C   0  0  0  0  0  0  0  0  0  0  0  0
   20.6328   81.4272   21.4698 C   0  0  0  0  0  0  0  0  0  0  0  0
   21.5208   77.5459   14.7549 C   0  0  0  0  0  0  0  0  0  0  0  0
   22.5530   76.7583   14.7770 O   0  0  0  0  0  0  0  0  0  0  0  0
   21.2074   78.3918   15.7352 N   0  0  0  0  0  0  0  0  0  0  0  0
   22.3909   78.1353   16.3573 H   0  0  0  0  0  0  0  0  0  0  0  0
   22.2912   79.7313   12.0893 I   0  0  0  0  0  0  0  0  0  0  0  0
   20.9495   78.0981   12.3390 C   0  0  0  0  0  0  0  0  0  0  0  0
   20.7661   77.3568   13.4860 C   0  0  0  0  0  0  0  0  0  0  0  0
   19.8438   76.4295   13.2163 N   0  0  0  0  0  0  0  0  0  0  0  0
   19.4591   76.5795   11.9546 N   0  0  0  0  0  0  0  0  0  0  0  0
   20.1099   77.5884   11.3796 C   0  0  0  0  0  0  0  0  0  0  0  0
   19.3320   75.3595   14.0928 C   0  0  0  0  0  0  0  0  0  0  0  0
 20 21  1  0  0  0
 21 22  2  0  0  0
 21 25  1  0  0  0
 22 23  1  0  0  0
 22 16  1  0  0  0
 23 24  1  0  0  0
 23 26  1  0  0  0
 24 25  2  0  0  0
 16 17  2  0  0  0
 16 18  1  0  0  0
 18  1  1  0  0  0
  1  2  1  0  0  0
  1  9  2  0  0  0
  2  3  2  0  0  0
  2  6  1  0  0  0
  3  4  1  0  0  0
  4  5  1  0  0  0
  5  6  2  0  0  0
  6  7  1  0  0  0
  7  8  2  0  0  0
  7 10  1  0  0  0
  8  9  1  0  0  0
 10 11  1  0  0  0
 10 15  1  0  0  0
 11 12  1  0  0  0
 12 13  1  0  0  0
 13 14  1  0  0  0
 14 15  1  0  0  0
 18 19  1  0  0  0
M  END
> <minimizedAffinity>
-8.95797

$$$$
920


 24 27  0  0  0  0  0  0  0  0999 V2000
   20.1017   77.8374   11.2802 N   0  0  0  0  0  0  0  0  0  0  0  0
   19.9890   76.9934   12.2580 C   0  0  0  0  0  0  0  0  0  0  0  0
   20.3646   76.8296   14.0105 S   0  0  0  0  0  0  0  0  0  0  0  0
   19.6911   75.1882   14.1247 C   0  0  0  0  0  0  0  0  0  0  0  0
   19.2363   74.8331   12.9437 C   0  0  0  0  0  0  0  0  0  0  0  0
   19.3794   75.7871   11.9066 N   0  0  0  0  0  0  0  0  0  0  0  0
   19.0498   75.8976   10.4624 C   0  0  0  0  0  0  0  0  0  0  0  0
   19.5935   77.2303   10.0812 C   0  0  0  0  0  0  0  0  0  0  0  0
   18.6286   73.4763   12.8094 C   0  0  0  0  0  0  0  0  0  0  0  0
   17.2830   73.2918   12.6283 C   0  0  0  0  0  0  0  0  0  0  0  0
   16.7152   72.0097   12.4925 C   0  0  0  0  0  0  0  0  0  0  0  0
   17.5143   70.8909   12.5393 C   0  0  0  0  0  0  0  0  0  0  0  0
   18.8629   71.0699   12.7206 C   0  0  0  0  0  0  0  0  0  0  0  0
   19.4136   72.3382   12.8530 C   0  0  0  0  0  0  0  0  0  0  0  0
   20.6735   79.1285   11.3689 C   0  0  0  0  0  0  0  0  0  0  0  0
   22.0647   79.3235   11.6808 C   0  0  0  0  0  0  0  0  0  0  0  0
   22.7858   79.5922   10.6248 O   0  0  0  0  0  0  0  0  0  0  0  0
   25.5096   79.0378   16.9983 I   0  0  0  0  0  0  0  0  0  0  0  0
   24.3517   79.1676   15.2731 C   0  0  0  0  0  0  0  0  0  0  0  0
   23.4042   80.1464   15.0437 C   0  0  0  0  0  0  0  0  0  0  0  0
   22.6594   80.2040   13.8965 C   0  0  0  0  0  0  0  0  0  0  0  0
   22.8166   79.2835   12.9055 C   0  0  0  0  0  0  0  0  0  0  0  0
   23.7683   78.2877   13.1187 C   0  0  0  0  0  0  0  0  0  0  0  0
   24.5067   78.2282   14.2533 C   0  0  0  0  0  0  0  0  0  0  0  0
 18 19  1  0  0  0
 19 20  2  0  0  0
 19 24  1  0  0  0
 20 21  1  0  0  0
 21 22  2  0  0  0
 22 23  1  0  0  0
 22 16  1  0  0  0
 23 24  2  0  0  0
 16 17  2  0  0  0
 16 15  1  0  0  0
 15  1  1  0  0  0
  1  2  2  0  0  0
  1  8  1  0  0  0
  2  3  1  0  0  0
  2  6  1  0  0  0
  3  4  1  0  0  0
  4  5  2  0  0  0
  5  6  1  0  0  0
  5  9  1  0  0  0
  6  7  1  0  0  0
  7  8  1  0  0  0
  9 10  2  0  0  0
  9 14  1  0  0  0
 10 11  1  0  0  0
 11 12  2  0  0  0
 12 13  1  0  0  0
 13 14  2  0  0  0
M  END
> <minimizedAffinity>
-9.65717

$$$$
924


 29 32  0  0  0  0  0  0  0  0999 V2000
   19.7969   77.3618   16.6420 C   0  0  0  0  0  0  0  0  0  0  0  0
   19.3616   76.6018   15.6228 N   0  0  0  0  0  0  0  0  0  0  0  0
   20.1774   76.2517   14.6204 C   0  0  0  0  0  0  0  0  0  0  0  0
   21.4427   76.6976   14.6861 N   0  0  0  0  0  0  0  0  0  0  0  0
   21.9155   77.4619   15.6911 C   0  0  0  0  0  0  0  0  0  0  0  0
   21.0639   77.7908   16.6799 N   0  0  0  0  0  0  0  0  0  0  0  0
   23.2696   77.8928   15.6828 N   0  0  0  0  0  0  0  0  0  0  0  0
   24.1941   77.3258   14.7287 C   0  0  0  0  0  0  0  0  0  0  0  0
   25.5396   77.2474   15.4638 C   0  0  0  0  0  0  0  0  0  0  0  0
   25.9506   78.5320   15.7069 O   0  0  0  0  0  0  0  0  0  0  0  0
   25.1415   79.2885   16.5076 C   0  0  0  0  0  0  0  0  0  0  0  0
   23.7178   78.8757   16.6073 C   0  0  0  0  0  0  0  0  0  0  0  0
   19.7373   75.4455   13.5271 N   0  0  0  0  0  0  0  0  0  0  0  0
   19.4326   75.9757   12.2327 C   0  0  0  0  0  0  0  0  0  0  0  0
   18.8276   74.8437   11.3998 C   0  0  0  0  0  0  0  0  0  0  0  0
   17.8186   74.1892   12.0867 O   0  0  0  0  0  0  0  0  0  0  0  0
   18.2590   73.5248   13.2046 C   0  0  0  0  0  0  0  0  0  0  0  0
   19.5869   74.0131   13.7248 C   0  0  0  0  0  0  0  0  0  0  0  0
   18.8961   77.7267   17.7147 N   0  0  0  0  0  0  0  0  0  0  0  0
   17.9624   78.1361   17.4920 H   0  0  0  0  0  0  0  0  0  0  0  0
   19.7310   78.4785   19.7361 C   0  0  0  0  0  0  0  0  0  0  0  0
   19.2911   77.5562   19.0000 N   0  0  0  0  0  0  0  0  0  0  0  0
   20.1852   84.7222   18.6734 I   0  0  0  0  0  0  0  0  0  0  0  0
   20.0982   82.6510   18.9552 C   0  0  0  0  0  0  0  0  0  0  0  0
   20.8257   81.7749   18.2105 C   0  0  0  0  0  0  0  0  0  0  0  0
   20.7210   80.3966   18.4500 C   0  0  0  0  0  0  0  0  0  0  0  0
   19.9116   79.8666   19.4113 C   0  0  0  0  0  0  0  0  0  0  0  0
   19.1733   80.7924   20.1637 C   0  0  0  0  0  0  0  0  0  0  0  0
   19.2721   82.1432   19.9332 C   0  0  0  0  0  0  0  0  0  0  0  0
 23 24  1  0  0  0
 24 25  2  0  0  0
 24 29  1  0  0  0
 25 26  1  0  0  0
 26 27  2  0  0  0
 27 28  1  0  0  0
 27 21  1  0  0  0
 28 29  2  0  0  0
 21 22  2  0  0  0
 22 19  1  0  0  0
 19  1  1  0  0  0
  1  2  2  0  0  0
  1  6  1  0  0  0
  2  3  1  0  0  0
  3  4  2  0  0  0
  3 13  1  0  0  0
  4  5  1  0  0  0
  5  6  2  0  0  0
  5  7  1  0  0  0
  7  8  1  0  0  0
  7 12  1  0  0  0
  8  9  1  0  0  0
  9 10  1  0  0  0
 10 11  1  0  0  0
 11 12  1  0  0  0
 13 14  1  0  0  0
 13 18  1  0  0  0
 14 15  1  0  0  0
 15 16  1  0  0  0
 16 17  1  0  0  0
 17 18  1  0  0  0
 19 20  1  0  0  0
M  END
> <minimizedAffinity>
-9.89787

$$$$
935


 34 38  0  0  0  0  0  0  0  0999 V2000
   19.5788   75.5841   12.8576 N   0  0  0  0  0  0  0  0  0  0  0  0
   19.5918   76.6722   12.0681 C   0  0  0  0  0  0  0  0  0  0  0  0
   20.3425   77.7897   12.3611 C   0  0  0  0  0  0  0  0  0  0  0  0
   21.0890   77.7285   13.5215 C   0  0  0  0  0  0  0  0  0  0  0  0
   21.8310   78.6717   13.9311 O   0  0  0  0  0  0  0  0  0  0  0  0
   21.0845   76.6262   14.3339 N   0  0  0  0  0  0  0  0  0  0  0  0
   20.3227   75.5782   13.9755 C   0  0  0  0  0  0  0  0  0  0  0  0
   20.2861   74.5443   14.6897 O   0  0  0  0  0  0  0  0  0  0  0  0
   18.8386   76.6923   10.9226 O   0  0  0  0  0  0  0  0  0  0  0  0
   21.6461   76.5852   15.2046 H   0  0  0  0  0  0  0  0  0  0  0  0
   20.3960   79.0049   11.5695 C   0  0  0  0  0  0  0  0  0  0  0  0
   21.6840   79.5626   11.3049 N   0  0  0  0  0  0  0  0  0  0  0  0
   22.5430   78.7342   10.5038 C   0  0  0  0  0  0  0  0  0  0  0  0
   21.8311   77.5447    9.8947 C   0  0  0  0  0  0  0  0  0  0  0  0
   20.5083   78.0154    9.3386 C   0  0  0  0  0  0  0  0  0  0  0  0
   19.7838   78.7890   10.2096 C   0  0  0  0  0  0  0  0  0  0  0  0
   18.5733   79.3180    9.8309 C   0  0  0  0  0  0  0  0  0  0  0  0
   18.1290   79.0345    8.5473 C   0  0  0  0  0  0  0  0  0  0  0  0
   18.8449   78.2576    7.6600 C   0  0  0  0  0  0  0  0  0  0  0  0
   20.0683   77.7416    8.0853 C   0  0  0  0  0  0  0  0  0  0  0  0
   18.1291   78.1695    6.4764 O   0  0  0  0  0  0  0  0  0  0  0  0
   16.7741   78.5814    6.7195 C   0  0  0  0  0  0  0  0  0  0  0  0
   16.9668   79.4057    7.8539 O   0  0  0  0  0  0  0  0  0  0  0  0
   21.4191   80.7611   10.4664 C   0  0  0  0  0  0  0  0  0  0  0  0
   22.1786   79.9862   12.1074 H   0  0  0  0  0  0  0  0  0  0  0  0
   17.8596   80.0885   10.7043 O   0  0  0  0  0  0  0  0  0  0  0  0
   17.9723   81.4618   10.9014 C   0  0  0  0  0  0  0  0  0  0  0  0
   16.0820   70.5014   11.4299 I   0  0  0  0  0  0  0  0  0  0  0  0
   17.2268   72.1916   11.9175 C   0  0  0  0  0  0  0  0  0  0  0  0
   18.4234   72.4366   11.2521 C   0  0  0  0  0  0  0  0  0  0  0  0
   19.1736   73.5330   11.5629 C   0  0  0  0  0  0  0  0  0  0  0  0
   18.7966   74.4445   12.5362 C   0  0  0  0  0  0  0  0  0  0  0  0
   17.6011   74.2048   13.2055 C   0  0  0  0  0  0  0  0  0  0  0  0
   16.8499   73.0938   12.8843 C   0  0  0  0  0  0  0  0  0  0  0  0
 28 29  1  0  0  0
 29 30  2  0  0  0
 29 34  1  0  0  0
 30 31  1  0  0  0
 31 32  2  0  0  0
 32 33  1  0  0  0
 32  1  1  0  0  0
 33 34  2  0  0  0
  1  2  1  0  0  0
  1  7  1  0  0  0
  2  3  2  0  0  0
  2  9  1  0  0  0
  3  4  1  0  0  0
  3 11  1  0  0  0
  4  5  2  0  0  0
  4  6  1  0  0  0
  6  7  1  0  0  0
  7  8  2  0  0  0
 11 12  1  0  0  0
 11 16  1  0  0  0
 12 13  1  0  0  0
 12 24  1  0  0  0
 13 14  1  0  0  0
 14 15  1  0  0  0
 15 16  2  0  0  0
 15 20  1  0  0  0
 16 17  1  0  0  0
 17 18  2  0  0  0
 17 26  1  0  0  0
 18 19  1  0  0  0
 18 23  1  0  0  0
 19 20  2  0  0  0
 19 21  1  0  0  0
 21 22  1  0  0  0
 22 23  1  0  0  0
 26 27  1  0  0  0
  6 10  1  0  0  0
 12 25  1  0  0  0
M  CHG 1   9  -1
M  CHG 1  12   1
M  END
> <minimizedAffinity>
-9.19309

$$$$
937


 26 29  0  0  0  0  0  0  0  0999 V2000
   22.5623   78.6362   15.5959 N   0  0  0  0  0  0  0  0  0  0  0  0
   21.7366   77.7254   16.3023 C   0  0  0  0  0  0  0  0  0  0  0  0
   21.2448   76.6867   15.7899 O   0  0  0  0  0  0  0  0  0  0  0  0
   21.5621   78.1930   17.7056 C   0  0  0  0  0  0  0  0  0  0  0  0
   22.8615   78.9455   17.9370 C   0  0  0  0  0  0  0  0  0  0  0  0
   23.3048   79.3437   16.5864 C   0  0  0  0  0  0  0  0  0  0  0  0
   24.2087   80.1854   16.3100 O   0  0  0  0  0  0  0  0  0  0  0  0
   22.8632   79.5455    9.3041 I   0  0  0  0  0  0  0  0  0  0  0  0
   22.7540   79.2467   11.3926 C   0  0  0  0  0  0  0  0  0  0  0  0
   21.6197   79.5453   12.1177 C   0  0  0  0  0  0  0  0  0  0  0  0
   21.5764   79.3405   13.4821 C   0  0  0  0  0  0  0  0  0  0  0  0
   22.6573   78.8336   14.1725 C   0  0  0  0  0  0  0  0  0  0  0  0
   23.7779   78.5425   13.4316 C   0  0  0  0  0  0  0  0  0  0  0  0
   23.8438   78.7389   12.0660 C   0  0  0  0  0  0  0  0  0  0  0  0
   20.4186   79.0068   17.7628 N   0  0  0  0  0  0  0  0  0  0  0  0
   19.4398   78.8139   18.7371 C   0  0  0  0  0  0  0  0  0  0  0  0
   18.7274   80.1770   18.9394 C   0  0  0  0  0  0  0  0  0  0  0  0
   19.7515   81.1950   19.1209 N   0  0  0  0  0  0  0  0  0  0  0  0
   20.6774   81.3751   18.0305 C   0  0  0  0  0  0  0  0  0  0  0  0
   20.4570   80.2220   17.0550 C   0  0  0  0  0  0  0  0  0  0  0  0
   19.8277   81.9529   20.3072 C   0  0  0  0  0  0  0  0  0  0  0  0
   18.8534   82.8492   20.6227 N   0  0  0  0  0  0  0  0  0  0  0  0
   18.8646   83.5855   21.7317 C   0  0  0  0  0  0  0  0  0  0  0  0
   19.9078   83.4632   22.6397 C   0  0  0  0  0  0  0  0  0  0  0  0
   20.8955   82.5505   22.3135 C   0  0  0  0  0  0  0  0  0  0  0  0
   20.8440   81.8289   21.1858 N   0  0  0  0  0  0  0  0  0  0  0  0
  8  9  1  0  0  0
  9 10  2  0  0  0
  9 14  1  0  0  0
 10 11  1  0  0  0
 11 12  2  0  0  0
 12 13  1  0  0  0
 12  1  1  0  0  0
 13 14  2  0  0  0
  1  2  1  0  0  0
  1  6  1  0  0  0
  2  3  2  0  0  0
  2  4  1  0  0  0
  4  5  1  0  0  0
  4 15  1  0  0  0
  5  6  1  0  0  0
  6  7  2  0  0  0
 15 16  1  0  0  0
 15 20  1  0  0  0
 16 17  1  0  0  0
 17 18  1  0  0  0
 18 19  1  0  0  0
 18 21  1  0  0  0
 19 20  1  0  0  0
 21 22  2  0  0  0
 21 26  1  0  0  0
 22 23  1  0  0  0
 23 24  2  0  0  0
 24 25  1  0  0  0
 25 26  2  0  0  0
M  END
> <minimizedAffinity>
-9.65734

$$$$
950


 26 29  0  0  0  0  0  0  0  0999 V2000
   20.7634   78.5407   11.8183 C   0  0  0  0  0  0  0  0  0  0  0  0
   20.7397   77.6205   12.8709 C   0  0  0  0  0  0  0  0  0  0  0  0
   19.9166   76.5911   13.1357 N   0  0  0  0  0  0  0  0  0  0  0  0
   20.3044   76.0280   14.2420 O   0  0  0  0  0  0  0  0  0  0  0  0
   21.3446   76.6392   14.7181 N   0  0  0  0  0  0  0  0  0  0  0  0
   21.6577   77.6523   13.8878 C   0  0  0  0  0  0  0  0  0  0  0  0
   22.6442   78.6147   13.8907 C   0  0  0  0  0  0  0  0  0  0  0  0
   22.6586   79.5120   12.8526 C   0  0  0  0  0  0  0  0  0  0  0  0
   21.7242   79.4884   11.8094 C   0  0  0  0  0  0  0  0  0  0  0  0
   23.5847   78.6314   14.9515 N   0  0  0  0  0  0  0  0  0  0  0  0
   23.4342   79.5553   16.0569 C   0  0  0  0  0  0  0  0  0  0  0  0
   24.5080   79.2966   17.0552 C   0  0  0  0  0  0  0  0  0  0  0  0
   24.6540   77.9675   17.4015 O   0  0  0  0  0  0  0  0  0  0  0  0
   24.8909   77.1220   16.3645 C   0  0  0  0  0  0  0  0  0  0  0  0
   24.7317   77.7466   15.0010 C   0  0  0  0  0  0  0  0  0  0  0  0
   19.9568   78.1720    9.4700 C   0  0  0  0  0  0  0  0  0  0  0  0
   21.1428   78.0467    9.0062 O   0  0  0  0  0  0  0  0  0  0  0  0
   19.7661   78.4124   10.8237 N   0  0  0  0  0  0  0  0  0  0  0  0
   18.7457   78.5199   11.1226 H   0  0  0  0  0  0  0  0  0  0  0  0
   19.2627   75.0909    7.5730 I   0  0  0  0  0  0  0  0  0  0  0  0
   18.4612   77.0100    7.7098 C   0  0  0  0  0  0  0  0  0  0  0  0
   17.3659   77.4560    6.9699 C   0  0  0  0  0  0  0  0  0  0  0  0
   17.1329   78.7301    7.2885 N   0  0  0  0  0  0  0  0  0  0  0  0
   18.0218   79.0810    8.1762 N   0  0  0  0  0  0  0  0  0  0  0  0
   18.8752   78.0442    8.4760 C   0  0  0  0  0  0  0  0  0  0  0  0
   16.0579   79.5542    6.7189 C   0  0  0  0  0  0  0  0  0  0  0  0
 20 21  1  0  0  0
 21 22  2  0  0  0
 21 25  1  0  0  0
 22 23  1  0  0  0
 23 24  1  0  0  0
 23 26  1  0  0  0
 24 25  2  0  0  0
 25 16  1  0  0  0
 16 17  2  0  0  0
 16 18  1  0  0  0
 18  1  1  0  0  0
  1  2  1  0  0  0
  1  9  2  0  0  0
  2  3  2  0  0  0
  2  6  1  0  0  0
  3  4  1  0  0  0
  4  5  1  0  0  0
  5  6  2  0  0  0
  6  7  1  0  0  0
  7  8  2  0  0  0
  7 10  1  0  0  0
  8  9  1  0  0  0
 10 11  1  0  0  0
 10 15  1  0  0  0
 11 12  1  0  0  0
 12 13  1  0  0  0
 13 14  1  0  0  0
 14 15  1  0  0  0
 18 19  1  0  0  0
M  END
> <minimizedAffinity>
-8.44616

$$$$
956


 30 33  0  0  0  0  0  0  0  0999 V2000
   20.7532   77.1142   13.9268 I   0  0  0  0  0  0  0  0  0  0  0  0
   20.6098   77.8744   11.9657 C   0  0  0  0  0  0  0  0  0  0  0  0
   21.2218   78.9944   11.4857 C   0  0  0  0  0  0  0  0  0  0  0  0
   20.8177   79.0690   10.1522 C   0  0  0  0  0  0  0  0  0  0  0  0
   20.0081   78.0614    9.8238 N   0  0  0  0  0  0  0  0  0  0  0  0
   19.8755   77.3262   10.9275 C   0  0  0  0  0  0  0  0  0  0  0  0
   21.2793   80.0957    9.4188 N   0  0  0  0  0  0  0  0  0  0  0  0
   22.0984   81.0157    9.9516 C   0  0  0  0  0  0  0  0  0  0  0  0
   22.4833   80.9412   11.2292 N   0  0  0  0  0  0  0  0  0  0  0  0
   22.0607   79.9285   12.0480 C   0  0  0  0  0  0  0  0  0  0  0  0
   19.3855   77.7835    8.5642 C   0  0  0  0  0  0  0  0  0  0  0  0
   18.2310   78.5228    8.3367 O   0  0  0  0  0  0  0  0  0  0  0  0
   17.7589   77.9800    7.1449 C   0  0  0  0  0  0  0  0  0  0  0  0
   17.9764   76.4869    7.2241 C   0  0  0  0  0  0  0  0  0  0  0  0
   18.8308   76.3585    8.4909 C   0  0  0  0  0  0  0  0  0  0  0  0
   18.7687   76.0238    6.1729 O   0  0  0  0  0  0  0  0  0  0  0  0
   18.1649   76.0210    5.3670 H   0  0  0  0  0  0  0  0  0  0  0  0
   16.2414   78.1884    7.0420 C   0  0  0  0  0  0  0  0  0  0  0  0
   15.6504   76.9922    6.6141 O   0  0  0  0  0  0  0  0  0  0  0  0
   15.3263   76.4523    7.4026 H   0  0  0  0  0  0  0  0  0  0  0  0
   22.5032   79.8995   13.4011 N   0  0  0  0  0  0  0  0  0  0  0  0
   23.7077   79.2042   13.7100 C   0  0  0  0  0  0  0  0  0  0  0  0
   24.3146   78.6520   12.7572 O   0  0  0  0  0  0  0  0  0  0  0  0
   22.0291   80.3404   14.1940 H   0  0  0  0  0  0  0  0  0  0  0  0
   24.2666   79.0961   15.0296 C   0  0  0  0  0  0  0  0  0  0  0  0
   25.6106   78.9297   15.2203 C   0  0  0  0  0  0  0  0  0  0  0  0
   26.1696   78.8268   16.4960 C   0  0  0  0  0  0  0  0  0  0  0  0
   25.3579   78.8929   17.5899 C   0  0  0  0  0  0  0  0  0  0  0  0
   24.0067   79.0592   17.4295 C   0  0  0  0  0  0  0  0  0  0  0  0
   23.4676   79.1602   16.1419 C   0  0  0  0  0  0  0  0  0  0  0  0
  1  2  1  0  0  0
  2  3  1  0  0  0
  2  6  2  0  0  0
  3  4  2  0  0  0
  3 10  1  0  0  0
  4  5  1  0  0  0
  4  7  1  0  0  0
  5  6  1  0  0  0
  5 11  1  0  0  0
 11 12  1  0  0  0
 11 15  1  0  0  0
 12 13  1  0  0  0
 13 14  1  0  0  0
 13 18  1  0  0  0
 14 15  1  0  0  0
 14 16  1  0  0  0
 18 19  1  0  0  0
  7  8  2  0  0  0
  8  9  1  0  0  0
  9 10  2  0  0  0
 10 21  1  0  0  0
 21 22  1  0  0  0
 22 23  2  0  0  0
 22 25  1  0  0  0
 25 26  2  0  0  0
 25 30  1  0  0  0
 26 27  1  0  0  0
 27 28  2  0  0  0
 28 29  1  0  0  0
 29 30  2  0  0  0
 16 17  1  0  0  0
 19 20  1  0  0  0
 21 24  1  0  0  0
M  END
> <minimizedAffinity>
-9.03367

$$$$
961


 29 33  0  0  0  0  0  0  0  0999 V2000
   20.7237   77.4061   15.3097 C   0  0  0  0  0  0  0  0  0  0  0  0
   20.7824   77.5877   16.6071 N   0  0  0  0  0  0  0  0  0  0  0  0
   21.5132   78.6238   17.1189 C   0  0  0  0  0  0  0  0  0  0  0  0
   22.2051   79.5125   16.3548 C   0  0  0  0  0  0  0  0  0  0  0  0
   22.1648   79.3556   14.9864 C   0  0  0  0  0  0  0  0  0  0  0  0
   22.7192   80.0336   13.9228 N   0  0  0  0  0  0  0  0  0  0  0  0
   22.3561   79.4503   12.7930 C   0  0  0  0  0  0  0  0  0  0  0  0
   21.5677   78.4003   13.1508 N   0  0  0  0  0  0  0  0  0  0  0  0
   21.4352   78.3195   14.4803 C   0  0  0  0  0  0  0  0  0  0  0  0
   23.5291   81.1964   14.1511 C   0  0  0  0  0  0  0  0  0  0  0  0
   20.0421   76.7783   17.5294 C   0  0  0  0  0  0  0  0  0  0  0  0
   22.6784   79.8197   11.4096 C   0  0  0  0  0  0  0  0  0  0  0  0
   22.2738   80.9541   10.7881 C   0  0  0  0  0  0  0  0  0  0  0  0
   22.6218   81.1880    9.4444 C   0  0  0  0  0  0  0  0  0  0  0  0
   23.3750   80.2674    8.7524 C   0  0  0  0  0  0  0  0  0  0  0  0
   23.8033   79.0980    9.3661 C   0  0  0  0  0  0  0  0  0  0  0  0
   23.4459   78.9125   10.6606 C   0  0  0  0  0  0  0  0  0  0  0  0
   19.6814   76.1688   13.3981 C   0  0  0  0  0  0  0  0  0  0  0  0
   20.0838   76.3062   14.6119 C   0  0  0  0  0  0  0  0  0  0  0  0
   19.3690   76.3745   10.1898 Br  0  0  0  0  0  0  0  0  0  0  0  0
   18.8875   74.9489   11.3592 C   0  0  0  0  0  0  0  0  0  0  0  0
   18.3116   73.7935   10.7739 C   0  0  0  0  0  0  0  0  0  0  0  0
   17.8972   72.7485   11.5543 C   0  0  0  0  0  0  0  0  0  0  0  0
   18.0511   72.8452   12.9198 C   0  0  0  0  0  0  0  0  0  0  0  0
   18.6116   73.9719   13.4780 C   0  0  0  0  0  0  0  0  0  0  0  0
   19.0532   75.0711   12.6992 C   0  0  0  0  0  0  0  0  0  0  0  0
   17.5507   71.6566   13.4764 O   0  0  0  0  0  0  0  0  0  0  0  0
   17.5922   70.6937   12.4435 C   0  0  0  0  0  0  0  0  0  0  0  0
   17.3085   71.5049   11.3044 O   0  0  0  0  0  0  0  0  0  0  0  0
 20 21  1  0  0  0
 21 22  2  0  0  0
 21 26  1  0  0  0
 22 23  1  0  0  0
 23 24  2  0  0  0
 23 29  1  0  0  0
 24 25  1  0  0  0
 24 27  1  0  0  0
 25 26  2  0  0  0
 26 18  1  0  0  0
 18 19  2  0  0  0
 19  1  1  0  0  0
  1  2  2  0  0  0
  1  9  1  0  0  0
  2  3  1  0  0  0
  2 11  1  0  0  0
  3  4  2  0  0  0
  4  5  1  0  0  0
  5  6  1  0  0  0
  5  9  2  0  0  0
  6  7  1  0  0  0
  6 10  1  0  0  0
  7  8  2  0  0  0
  7 12  1  0  0  0
  8  9  1  0  0  0
 12 13  2  0  0  0
 12 17  1  0  0  0
 13 14  1  0  0  0
 14 15  2  0  0  0
 15 16  1  0  0  0
 16 17  2  0  0  0
 27 28  1  0  0  0
 28 29  1  0  0  0
M  END
> <minimizedAffinity>
-10.67849

$$$$
969


 31 34  0  0  0  0  0  0  0  0999 V2000
   20.6611   76.6692   16.8742 Br  0  0  0  0  0  0  0  0  0  0  0  0
   21.1357   77.9052   15.5102 C   0  0  0  0  0  0  0  0  0  0  0  0
   20.8360   77.7108   14.1648 C   0  0  0  0  0  0  0  0  0  0  0  0
   21.2054   78.6422   13.2081 C   0  0  0  0  0  0  0  0  0  0  0  0
   21.8817   79.7858   13.5813 C   0  0  0  0  0  0  0  0  0  0  0  0
   22.1799   79.9844   14.9004 C   0  0  0  0  0  0  0  0  0  0  0  0
   21.8110   79.0578   15.8426 C   0  0  0  0  0  0  0  0  0  0  0  0
   22.1516   79.3326   17.1799 O   0  0  0  0  0  0  0  0  0  0  0  0
   23.1200   81.5967   15.3513 Br  0  0  0  0  0  0  0  0  0  0  0  0
   20.9212   78.4739   11.8701 C   0  0  0  0  0  0  0  0  0  0  0  0
   20.2442   77.3289   11.5056 C   0  0  0  0  0  0  0  0  0  0  0  0
   19.8936   76.3975   12.5847 C   0  0  0  0  0  0  0  0  0  0  0  0
   19.2099   75.2432   12.1997 C   0  0  0  0  0  0  0  0  0  0  0  0
   18.8978   75.0203   10.8786 C   0  0  0  0  0  0  0  0  0  0  0  0
   18.2805   73.9667   10.5795 O   0  0  0  0  0  0  0  0  0  0  0  0
   19.2447   75.9229    9.8789 C   0  0  0  0  0  0  0  0  0  0  0  0
   19.9135   77.0724   10.1844 C   0  0  0  0  0  0  0  0  0  0  0  0
   18.7707   75.5341    8.0684 Br  0  0  0  0  0  0  0  0  0  0  0  0
   18.7202   73.9776   13.5604 Br  0  0  0  0  0  0  0  0  0  0  0  0
   20.1941   76.6172   13.8429 O   0  0  0  0  0  0  0  0  0  0  0  0
   21.3195   79.4555   10.8600 C   0  0  0  0  0  0  0  0  0  0  0  0
   20.4282   80.4187   10.4236 C   0  0  0  0  0  0  0  0  0  0  0  0
   20.7775   81.3505    9.4694 C   0  0  0  0  0  0  0  0  0  0  0  0
   22.0527   81.3108    8.9444 C   0  0  0  0  0  0  0  0  0  0  0  0
   22.9613   80.3801    9.3457 C   0  0  0  0  0  0  0  0  0  0  0  0
   22.5948   79.4562   10.2995 C   0  0  0  0  0  0  0  0  0  0  0  0
   24.5631   80.4030    8.6256 Cl  0  0  0  0  0  0  0  0  0  0  0  0
   18.8011   80.4499   11.1126 Cl  0  0  0  0  0  0  0  0  0  0  0  0
   23.5502   78.4627   10.7268 C   0  0  0  0  0  0  0  0  0  0  0  0
   23.8661   77.4764   10.0062 O   0  0  0  0  0  0  0  0  0  0  0  0
   24.1637   78.5652   11.9732 O   0  0  0  0  0  0  0  0  0  0  0  0
  1  2  1  0  0  0
  2  3  2  0  0  0
  2  7  1  0  0  0
  3  4  1  0  0  0
  3 20  1  0  0  0
  4  5  2  0  0  0
  4 10  1  0  0  0
  5  6  1  0  0  0
  6  7  2  0  0  0
  6  9  1  0  0  0
  7  8  1  0  0  0
 10 11  2  0  0  0
 10 21  1  0  0  0
 11 12  1  0  0  0
 11 17  1  0  0  0
 12 13  2  0  0  0
 12 20  1  0  0  0
 13 14  1  0  0  0
 13 19  1  0  0  0
 14 15  2  0  0  0
 14 16  1  0  0  0
 16 17  2  0  0  0
 16 18  1  0  0  0
 21 22  2  0  0  0
 21 26  1  0  0  0
 22 23  1  0  0  0
 22 28  1  0  0  0
 23 24  2  0  0  0
 24 25  1  0  0  0
 25 26  2  0  0  0
 25 27  1  0  0  0
 26 29  1  0  0  0
 29 30  2  0  0  0
 29 31  1  0  0  0
M  CHG 1   8  -1
M  END
> <minimizedAffinity>
-5.86510

$$$$
971


 29 33  0  0  0  0  0  0  0  0999 V2000
   20.7182   76.7868   16.5727 Br  0  0  0  0  0  0  0  0  0  0  0  0
   21.2858   78.1112   15.3231 C   0  0  0  0  0  0  0  0  0  0  0  0
   21.0130   77.9877   13.9479 C   0  0  0  0  0  0  0  0  0  0  0  0
   21.4014   78.9114   13.0232 C   0  0  0  0  0  0  0  0  0  0  0  0
   22.1028   80.0284   13.4824 C   0  0  0  0  0  0  0  0  0  0  0  0
   22.3673   80.1478   14.8145 C   0  0  0  0  0  0  0  0  0  0  0  0
   21.9764   79.2170   15.7553 C   0  0  0  0  0  0  0  0  0  0  0  0
   22.2839   79.4064   17.1131 O   0  0  0  0  0  0  0  0  0  0  0  0
   23.3246   81.6707   15.4502 Br  0  0  0  0  0  0  0  0  0  0  0  0
   21.1036   78.7561   11.6056 C   0  0  0  0  0  0  0  0  0  0  0  0
   20.2566   79.8456   11.2457 O   0  0  0  0  0  0  0  0  0  0  0  0
   20.8184   80.6381   10.2825 C   0  0  0  0  0  0  0  0  0  0  0  0
   20.2950   81.6598    9.7826 O   0  0  0  0  0  0  0  0  0  0  0  0
   22.1081   80.0466    9.9829 C   0  0  0  0  0  0  0  0  0  0  0  0
   22.3142   78.9237   10.7514 C   0  0  0  0  0  0  0  0  0  0  0  0
   23.4781   78.2455   10.5952 C   0  0  0  0  0  0  0  0  0  0  0  0
   24.4165   78.6869    9.6861 C   0  0  0  0  0  0  0  0  0  0  0  0
   24.2141   79.8116    8.9148 C   0  0  0  0  0  0  0  0  0  0  0  0
   23.0429   80.5070    9.0603 C   0  0  0  0  0  0  0  0  0  0  0  0
   20.3659   77.5376   11.2892 C   0  0  0  0  0  0  0  0  0  0  0  0
   20.0039   76.6476   12.2621 C   0  0  0  0  0  0  0  0  0  0  0  0
   19.2911   75.4752   11.9375 C   0  0  0  0  0  0  0  0  0  0  0  0
   18.9645   75.2415   10.6222 C   0  0  0  0  0  0  0  0  0  0  0  0
   19.3280   76.1397    9.6295 C   0  0  0  0  0  0  0  0  0  0  0  0
   20.0195   77.2738    9.9515 C   0  0  0  0  0  0  0  0  0  0  0  0
   18.8826   75.8294    7.8032 Br  0  0  0  0  0  0  0  0  0  0  0  0
   18.2630   74.0851   10.3169 O   0  0  0  0  0  0  0  0  0  0  0  0
   18.8025   74.2541   13.3267 Br  0  0  0  0  0  0  0  0  0  0  0  0
   20.3060   76.8329   13.6038 O   0  0  0  0  0  0  0  0  0  0  0  0
  1  2  1  0  0  0
  2  3  2  0  0  0
  2  7  1  0  0  0
  3  4  1  0  0  0
  3 29  1  0  0  0
  4  5  2  0  0  0
  4 10  1  0  0  0
  5  6  1  0  0  0
  6  7  2  0  0  0
  6  9  1  0  0  0
  7  8  1  0  0  0
 10 11  1  0  0  0
 10 15  1  0  0  0
 10 20  1  0  0  0
 11 12  1  0  0  0
 12 13  2  0  0  0
 12 14  1  0  0  0
 14 15  2  0  0  0
 14 19  1  0  0  0
 15 16  1  0  0  0
 16 17  2  0  0  0
 17 18  1  0  0  0
 18 19  2  0  0  0
 20 21  2  0  0  0
 20 25  1  0  0  0
 21 22  1  0  0  0
 21 29  1  0  0  0
 22 23  2  0  0  0
 22 28  1  0  0  0
 23 24  1  0  0  0
 23 27  1  0  0  0
 24 25  2  0  0  0
 24 26  1  0  0  0
M  CHG 1   8  -1
M  CHG 1  27  -1
M  END
> <minimizedAffinity>
-9.59125

$$$$
978


 33 37  0  0  0  0  0  0  0  0999 V2000
   22.6087   80.0316   13.7420 I   0  0  0  0  0  0  0  0  0  0  0  0
   22.2767   79.3926   11.7568 C   0  0  0  0  0  0  0  0  0  0  0  0
   21.4177   78.3139   11.5723 C   0  0  0  0  0  0  0  0  0  0  0  0
   21.1850   77.8809   10.3078 C   0  0  0  0  0  0  0  0  0  0  0  0
   21.8126   78.5289    9.2408 C   0  0  0  0  0  0  0  0  0  0  0  0
   22.6645   79.5977    9.4138 C   0  0  0  0  0  0  0  0  0  0  0  0
   22.8958   80.0326   10.7032 C   0  0  0  0  0  0  0  0  0  0  0  0
   23.7507   81.1070   10.9009 O   0  0  0  0  0  0  0  0  0  0  0  0
   23.5923   80.5466    7.7608 I   0  0  0  0  0  0  0  0  0  0  0  0
   20.3080   76.7657   10.0029 C   0  0  0  0  0  0  0  0  0  0  0  0
   21.0112   75.7198    9.3163 O   0  0  0  0  0  0  0  0  0  0  0  0
   20.4523   75.4340    8.0986 C   0  0  0  0  0  0  0  0  0  0  0  0
   20.8002   74.5822    7.2309 O   0  0  0  0  0  0  0  0  0  0  0  0
   19.3143   76.3301    7.9524 C   0  0  0  0  0  0  0  0  0  0  0  0
   19.2273   77.1107    9.0650 C   0  0  0  0  0  0  0  0  0  0  0  0
   18.2150   78.0634    9.1803 C   0  0  0  0  0  0  0  0  0  0  0  0
   17.2841   78.2371    8.1786 C   0  0  0  0  0  0  0  0  0  0  0  0
   17.3754   77.4379    7.0422 C   0  0  0  0  0  0  0  0  0  0  0  0
   18.3694   76.4997    6.9257 C   0  0  0  0  0  0  0  0  0  0  0  0
   18.4690   75.5187    5.5130 Cl  0  0  0  0  0  0  0  0  0  0  0  0
   16.2303   77.6070    5.7411 Cl  0  0  0  0  0  0  0  0  0  0  0  0
   16.0281   79.4402    8.3569 Cl  0  0  0  0  0  0  0  0  0  0  0  0
   18.1626   79.0217   10.6223 Cl  0  0  0  0  0  0  0  0  0  0  0  0
   19.7106   76.1734   11.2304 C   0  0  0  0  0  0  0  0  0  0  0  0
   19.9649   76.6310   12.4778 C   0  0  0  0  0  0  0  0  0  0  0  0
   19.3387   75.9834   13.5408 C   0  0  0  0  0  0  0  0  0  0  0  0
   18.4871   74.9156   13.3687 C   0  0  0  0  0  0  0  0  0  0  0  0
   18.2510   74.4761   12.0816 C   0  0  0  0  0  0  0  0  0  0  0  0
   18.8510   75.0889   11.0122 C   0  0  0  0  0  0  0  0  0  0  0  0
   16.9528   72.8440   11.7854 I   0  0  0  0  0  0  0  0  0  0  0  0
   17.8703   74.2786   14.4142 O   0  0  0  0  0  0  0  0  0  0  0  0
   19.7248   76.6841   15.4811 I   0  0  0  0  0  0  0  0  0  0  0  0
   20.8148   77.7015   12.6887 O   0  0  0  0  0  0  0  0  0  0  0  0
  1  2  1  0  0  0
  2  3  2  0  0  0
  2  7  1  0  0  0
  3  4  1  0  0  0
  3 33  1  0  0  0
  4  5  2  0  0  0
  4 10  1  0  0  0
  5  6  1  0  0  0
  6  7  2  0  0  0
  6  9  1  0  0  0
  7  8  1  0  0  0
 10 11  1  0  0  0
 10 15  1  0  0  0
 10 24  1  0  0  0
 11 12  1  0  0  0
 12 13  2  0  0  0
 12 14  1  0  0  0
 14 15  2  0  0  0
 14 19  1  0  0  0
 15 16  1  0  0  0
 16 17  2  0  0  0
 16 23  1  0  0  0
 17 18  1  0  0  0
 17 22  1  0  0  0
 18 19  2  0  0  0
 18 21  1  0  0  0
 19 20  1  0  0  0
 24 25  2  0  0  0
 24 29  1  0  0  0
 25 26  1  0  0  0
 25 33  1  0  0  0
 26 27  2  0  0  0
 26 32  1  0  0  0
 27 28  1  0  0  0
 27 31  1  0  0  0
 28 29  2  0  0  0
 28 30  1  0  0  0
M  CHG 1   8  -1
M  CHG 1  31  -1
M  END
> <minimizedAffinity>
3.99536

$$$$
979


 29 33  0  0  0  0  0  0  0  0999 V2000
   18.7076   74.2413   13.2484 I   0  0  0  0  0  0  0  0  0  0  0  0
   19.2992   75.5435   11.6850 C   0  0  0  0  0  0  0  0  0  0  0  0
   20.0331   76.6792   12.0676 C   0  0  0  0  0  0  0  0  0  0  0  0
   20.4247   77.5303   11.0832 C   0  0  0  0  0  0  0  0  0  0  0  0
   20.0839   77.2423    9.7495 C   0  0  0  0  0  0  0  0  0  0  0  0
   19.3686   76.1337    9.3784 C   0  0  0  0  0  0  0  0  0  0  0  0
   18.9725   75.2710   10.3766 C   0  0  0  0  0  0  0  0  0  0  0  0
   18.2463   74.1389   10.0367 O   0  0  0  0  0  0  0  0  0  0  0  0
   18.8904   75.7600    7.3475 I   0  0  0  0  0  0  0  0  0  0  0  0
   21.1945   78.7440   11.3812 C   0  0  0  0  0  0  0  0  0  0  0  0
   20.5902   79.8982   10.8299 O   0  0  0  0  0  0  0  0  0  0  0  0
   21.4014   80.5326    9.9262 C   0  0  0  0  0  0  0  0  0  0  0  0
   21.1764   81.5771    9.2588 O   0  0  0  0  0  0  0  0  0  0  0  0
   22.6386   79.7682    9.8515 C   0  0  0  0  0  0  0  0  0  0  0  0
   22.5266   78.7157   10.7011 C   0  0  0  0  0  0  0  0  0  0  0  0
   23.6040   77.8278   10.8032 C   0  0  0  0  0  0  0  0  0  0  0  0
   24.7410   78.0288   10.0551 C   0  0  0  0  0  0  0  0  0  0  0  0
   24.8565   79.0966    9.1905 C   0  0  0  0  0  0  0  0  0  0  0  0
   23.8056   79.9751    9.0825 C   0  0  0  0  0  0  0  0  0  0  0  0
   21.4776   78.9162   12.8164 C   0  0  0  0  0  0  0  0  0  0  0  0
   21.0599   78.0311   13.7498 C   0  0  0  0  0  0  0  0  0  0  0  0
   21.3629   78.2590   15.0883 C   0  0  0  0  0  0  0  0  0  0  0  0
   22.0759   79.3622   15.4646 C   0  0  0  0  0  0  0  0  0  0  0  0
   22.5174   80.2821   14.5422 C   0  0  0  0  0  0  0  0  0  0  0  0
   22.2063   80.0373   13.2330 C   0  0  0  0  0  0  0  0  0  0  0  0
   23.6206   81.9875   15.1306 I   0  0  0  0  0  0  0  0  0  0  0  0
   22.3657   79.5644   16.8079 O   0  0  0  0  0  0  0  0  0  0  0  0
   20.7020   76.8622   16.5485 I   0  0  0  0  0  0  0  0  0  0  0  0
   20.3234   76.8821   13.4189 O   0  0  0  0  0  0  0  0  0  0  0  0
  1  2  1  0  0  0
  2  3  2  0  0  0
  2  7  1  0  0  0
  3  4  1  0  0  0
  3 29  1  0  0  0
  4  5  2  0  0  0
  4 10  1  0  0  0
  5  6  1  0  0  0
  6  7  2  0  0  0
  6  9  1  0  0  0
  7  8  1  0  0  0
 10 11  1  0  0  0
 10 15  1  0  0  0
 10 20  1  0  0  0
 11 12  1  0  0  0
 12 13  2  0  0  0
 12 14  1  0  0  0
 14 15  2  0  0  0
 14 19  1  0  0  0
 15 16  1  0  0  0
 16 17  2  0  0  0
 17 18  1  0  0  0
 18 19  2  0  0  0
 20 21  2  0  0  0
 20 25  1  0  0  0
 21 22  1  0  0  0
 21 29  1  0  0  0
 22 23  2  0  0  0
 22 28  1  0  0  0
 23 24  1  0  0  0
 23 27  1  0  0  0
 24 25  2  0  0  0
 24 26  1  0  0  0
M  CHG 1   8  -1
M  CHG 1  27  -1
M  END
> <minimizedAffinity>
-5.54020

$$$$
980


 27 30  0  0  0  0  0  0  0  0999 V2000
   18.9177   75.1812   10.4294 I   0  0  0  0  0  0  0  0  0  0  0  0
   19.4930   75.7065   12.3871 C   0  0  0  0  0  0  0  0  0  0  0  0
   20.2424   76.8325   12.6643 C   0  0  0  0  0  0  0  0  0  0  0  0
   20.6214   77.1795   13.9433 C   0  0  0  0  0  0  0  0  0  0  0  0
   20.2225   76.3494   14.9746 C   0  0  0  0  0  0  0  0  0  0  0  0
   19.4699   75.2161   14.7057 C   0  0  0  0  0  0  0  0  0  0  0  0
   19.0931   74.8735   13.4131 C   0  0  0  0  0  0  0  0  0  0  0  0
   18.3367   73.7240   13.1998 O   0  0  0  0  0  0  0  0  0  0  0  0
   21.3690   78.3009   14.2404 C   0  0  0  0  0  0  0  0  0  0  0  0
   21.7345   79.0890   13.1531 C   0  0  0  0  0  0  0  0  0  0  0  0
   21.3138   78.6876   11.8137 C   0  0  0  0  0  0  0  0  0  0  0  0
   21.7059   79.5091   10.7777 C   0  0  0  0  0  0  0  0  0  0  0  0
   22.4539   80.6513   10.9676 C   0  0  0  0  0  0  0  0  0  0  0  0
   22.8046   81.3933   10.0029 O   0  0  0  0  0  0  0  0  0  0  0  0
   22.8526   81.0316   12.2342 C   0  0  0  0  0  0  0  0  0  0  0  0
   22.4753   80.2302   13.2934 C   0  0  0  0  0  0  0  0  0  0  0  0
   21.1476   79.0139    8.8128 I   0  0  0  0  0  0  0  0  0  0  0  0
   20.6032   77.5965   11.6649 O   0  0  0  0  0  0  0  0  0  0  0  0
   21.7720   78.6713   15.5927 C   0  0  0  0  0  0  0  0  0  0  0  0
   23.0455   78.3140   16.0251 C   0  0  0  0  0  0  0  0  0  0  0  0
   23.4687   78.6406   17.2862 C   0  0  0  0  0  0  0  0  0  0  0  0
   22.6245   79.3268   18.1311 C   0  0  0  0  0  0  0  0  0  0  0  0
   21.3596   79.6927   17.7272 C   0  0  0  0  0  0  0  0  0  0  0  0
   20.9552   79.3544   16.4551 C   0  0  0  0  0  0  0  0  0  0  0  0
   23.9486   77.5864   15.1381 C   0  0  0  0  0  0  0  0  0  0  0  0
   23.9781   76.3375   15.0739 O   0  0  0  0  0  0  0  0  0  0  0  0
   24.8309   78.2710   14.3145 O   0  0  0  0  0  0  0  0  0  0  0  0
  1  2  1  0  0  0
  2  3  2  0  0  0
  2  7  1  0  0  0
  3  4  1  0  0  0
  3 18  1  0  0  0
  4  5  2  0  0  0
  4  9  1  0  0  0
  5  6  1  0  0  0
  6  7  2  0  0  0
  7  8  1  0  0  0
  9 10  2  0  0  0
  9 19  1  0  0  0
 10 11  1  0  0  0
 10 16  1  0  0  0
 11 12  2  0  0  0
 11 18  1  0  0  0
 12 13  1  0  0  0
 12 17  1  0  0  0
 13 14  2  0  0  0
 13 15  1  0  0  0
 15 16  2  0  0  0
 19 20  2  0  0  0
 19 24  1  0  0  0
 20 21  1  0  0  0
 20 25  1  0  0  0
 21 22  2  0  0  0
 22 23  1  0  0  0
 23 24  2  0  0  0
 25 26  2  0  0  0
 25 27  1  0  0  0
M  CHG 1   8  -1
M  END
> <minimizedAffinity>
-8.15566

$$$$
983


 34 37  0  0  0  0  0  0  0  0999 V2000
   23.2443   79.7360   14.9771 C   0  0  0  0  0  0  0  0  0  0  0  0
   23.2297   79.3694   13.6245 C   0  0  0  0  0  0  0  0  0  0  0  0
   21.9391   79.6119   13.2091 C   0  0  0  0  0  0  0  0  0  0  0  0
   21.2388   80.0898   14.2473 N   0  0  0  0  0  0  0  0  0  0  0  0
   22.0123   80.1860   15.3717 C   0  0  0  0  0  0  0  0  0  0  0  0
   21.6047   79.3408   11.8849 C   0  0  0  0  0  0  0  0  0  0  0  0
   22.5578   78.8463   11.0376 C   0  0  0  0  0  0  0  0  0  0  0  0
   23.8693   78.5979   11.4545 C   0  0  0  0  0  0  0  0  0  0  0  0
   24.2011   78.8715   12.7850 C   0  0  0  0  0  0  0  0  0  0  0  0
   25.1465   77.9103   10.2291 Br  0  0  0  0  0  0  0  0  0  0  0  0
   19.8376   79.6641   11.2853 Br  0  0  0  0  0  0  0  0  0  0  0  0
   20.2160   80.3643   14.2212 H   0  0  0  0  0  0  0  0  0  0  0  0
   21.5661   80.7069   16.6585 C   0  0  0  0  0  0  0  0  0  0  0  0
   21.2252   82.0111   16.8471 N   0  0  0  0  0  0  0  0  0  0  0  0
   20.8672   82.2294   18.1222 C   0  0  0  0  0  0  0  0  0  0  0  0
   20.9664   81.0470   18.8222 C   0  0  0  0  0  0  0  0  0  0  0  0
   21.4082   80.1177   17.8736 C   0  0  0  0  0  0  0  0  0  0  0  0
   20.6607   80.9585   20.1649 C   0  0  0  0  0  0  0  0  0  0  0  0
   20.2375   82.0780   20.8640 C   0  0  0  0  0  0  0  0  0  0  0  0
   20.1321   83.2751   20.1738 C   0  0  0  0  0  0  0  0  0  0  0  0
   20.4417   83.3438   18.8313 C   0  0  0  0  0  0  0  0  0  0  0  0
   20.2750   85.0225   17.9429 Br  0  0  0  0  0  0  0  0  0  0  0  0
   19.8082   81.9793   22.7296 Br  0  0  0  0  0  0  0  0  0  0  0  0
   21.2290   82.7634   16.1235 H   0  0  0  0  0  0  0  0  0  0  0  0
   21.6407   78.7917   18.1905 O   0  0  0  0  0  0  0  0  0  0  0  0
   20.3811   77.6496   18.3196 S   0  0  0  0  0  0  0  0  0  0  0  0
   20.1464   77.2690   19.7524 O   0  0  0  0  0  0  0  0  0  0  0  0
   20.6946   76.3882   17.5660 O   0  0  0  0  0  0  0  0  0  0  0  0
   18.9716   78.2831   17.6173 O   0  0  0  0  0  0  0  0  0  0  0  0
   24.3824   79.6359   15.7695 O   0  0  0  0  0  0  0  0  0  0  0  0
   24.8816   78.1325   16.4197 S   0  0  0  0  0  0  0  0  0  0  0  0
   26.0058   77.6405   15.5505 O   0  0  0  0  0  0  0  0  0  0  0  0
   25.3880   78.2974   17.8315 O   0  0  0  0  0  0  0  0  0  0  0  0
   23.6417   76.9993   16.3509 O   0  0  0  0  0  0  0  0  0  0  0  0
 31 32  2  0  0  0
 31 33  2  0  0  0
 31 34  1  0  0  0
 31 30  1  0  0  0
 30  1  1  0  0  0
  1  2  1  0  0  0
  1  5  2  0  0  0
  2  3  2  0  0  0
  2  9  1  0  0  0
  3  4  1  0  0  0
  3  6  1  0  0  0
  4  5  1  0  0  0
  5 13  1  0  0  0
 13 14  1  0  0  0
 13 17  2  0  0  0
 14 15  1  0  0  0
 15 16  2  0  0  0
 15 21  1  0  0  0
 16 17  1  0  0  0
 16 18  1  0  0  0
 17 25  1  0  0  0
 25 26  1  0  0  0
 26 27  2  0  0  0
 26 28  2  0  0  0
 26 29  1  0  0  0
 18 19  2  0  0  0
 19 20  1  0  0  0
 19 23  1  0  0  0
 20 21  2  0  0  0
 21 22  1  0  0  0
  6  7  2  0  0  0
  6 11  1  0  0  0
  7  8  1  0  0  0
  8  9  2  0  0  0
  8 10  1  0  0  0
  4 12  1  0  0  0
 14 24  1  0  0  0
M  END
> <minimizedAffinity>
-7.14165

$$$$
985


 28 31  0  0  0  0  0  0  0  0999 V2000
   22.1263   78.6775   17.2347 N   0  0  0  0  0  0  0  0  0  0  0  0
   23.3954   78.4726   16.8626 C   0  0  0  0  0  0  0  0  0  0  0  0
   24.5133   79.2389   16.9895 N   0  0  0  0  0  0  0  0  0  0  0  0
   25.7105   78.8607   16.5503 C   0  0  0  0  0  0  0  0  0  0  0  0
   25.8241   77.6623   15.9497 N   0  0  0  0  0  0  0  0  0  0  0  0
   24.7569   76.8525   15.7917 C   0  0  0  0  0  0  0  0  0  0  0  0
   23.5144   77.2425   16.2464 C   0  0  0  0  0  0  0  0  0  0  0  0
   22.2850   76.7067   16.2543 N   0  0  0  0  0  0  0  0  0  0  0  0
   21.4449   77.5817   16.8554 C   0  0  0  0  0  0  0  0  0  0  0  0
   19.5672   77.3278   17.1381 Br  0  0  0  0  0  0  0  0  0  0  0  0
   24.8698   75.6116   15.1718 O   0  0  0  0  0  0  0  0  0  0  0  0
   26.8519   79.6993   16.7061 N   0  0  0  0  0  0  0  0  0  0  0  0
   25.6717   75.0339   15.4654 H   0  0  0  0  0  0  0  0  0  0  0  0
   27.1297   80.2672   15.8769 H   0  0  0  0  0  0  0  0  0  0  0  0
   27.3945   79.7515   17.6044 H   0  0  0  0  0  0  0  0  0  0  0  0
   20.0231   83.3584   19.6521 P   0  0  0  0  0  0  0  0  0  0  0  0
   21.2049   83.4825   20.5883 O   0  0  0  0  0  0  0  0  0  0  0  0
   20.5293   82.9164   18.0834 O   0  0  0  0  0  0  0  0  0  0  0  0
   20.0951   81.6077   17.8872 C   0  0  0  0  0  0  0  0  0  0  0  0
   20.3261   80.8857   19.2204 C   0  0  0  0  0  0  0  0  0  0  0  0
   20.6394   79.6171   18.7987 O   0  0  0  0  0  0  0  0  0  0  0  0
   21.6785   79.8735   17.9047 C   0  0  0  0  0  0  0  0  0  0  0  0
   20.9938   80.8406   16.9406 C   0  0  0  0  0  0  0  0  0  0  0  0
   21.8857   81.6383   16.2691 O   0  0  0  0  0  0  0  0  0  0  0  0
   19.0892   81.0013   20.0289 C   0  0  0  0  0  0  0  0  0  0  0  0
   18.8229   82.3592   20.2352 O   0  0  0  0  0  0  0  0  0  0  0  0
   19.3758   84.9354   19.4995 O   0  0  0  0  0  0  0  0  0  0  0  0
   21.6364   81.6843   15.2920 H   0  0  0  0  0  0  0  0  0  0  0  0
 16 17  2  0  0  0
 16 18  1  0  0  0
 16 26  1  0  0  0
 16 27  1  0  0  0
 18 19  1  0  0  0
 19 20  1  0  0  0
 19 23  1  0  0  0
 20 21  1  0  0  0
 20 25  1  0  0  0
 21 22  1  0  0  0
 22 23  1  0  0  0
 22  1  1  0  0  0
 23 24  1  0  0  0
  1  2  1  0  0  0
  1  9  1  0  0  0
  2  3  2  0  0  0
  2  7  1  0  0  0
  3  4  1  0  0  0
  4  5  2  0  0  0
  4 12  1  0  0  0
  5  6  1  0  0  0
  6  7  2  0  0  0
  6 11  1  0  0  0
  7  8  1  0  0  0
  8  9  2  0  0  0
  9 10  1  0  0  0
 25 26  1  0  0  0
 24 28  1  0  0  0
 11 13  1  0  0  0
 12 14  1  0  0  0
 12 15  1  0  0  0
M  END
> <minimizedAffinity>
-9.26052

$$$$
991


 34 39  0  0  0  0  0  0  0  0999 V2000
   23.0485   78.5506   14.6843 N   0  0  0  0  0  0  0  0  0  0  0  0
   22.4715   78.5379   13.4565 C   0  0  0  0  0  0  0  0  0  0  0  0
   23.4288   78.6310   12.4687 C   0  0  0  0  0  0  0  0  0  0  0  0
   24.6064   78.7008   13.1241 N   0  0  0  0  0  0  0  0  0  0  0  0
   24.3688   78.6530   14.4508 C   0  0  0  0  0  0  0  0  0  0  0  0
   25.6625   78.7138   15.8583 Br  0  0  0  0  0  0  0  0  0  0  0  0
   23.0414   78.6349   11.1437 C   0  0  0  0  0  0  0  0  0  0  0  0
   23.9013   78.7184   10.2393 O   0  0  0  0  0  0  0  0  0  0  0  0
   21.7437   78.5487   10.7719 N   0  0  0  0  0  0  0  0  0  0  0  0
   20.8263   78.4590   11.7519 C   0  0  0  0  0  0  0  0  0  0  0  0
   19.6353   78.3871   11.1314 N   0  0  0  0  0  0  0  0  0  0  0  0
   19.7661   78.4277    9.7932 C   0  0  0  0  0  0  0  0  0  0  0  0
   21.1215   78.5323    9.5610 C   0  0  0  0  0  0  0  0  0  0  0  0
   21.1888   78.4540   13.0662 N   0  0  0  0  0  0  0  0  0  0  0  0
   20.4724   78.3835   13.8236 H   0  0  0  0  0  0  0  0  0  0  0  0
   19.7250   79.9025   19.2577 P   0  0  0  0  0  0  0  0  0  0  0  0
   19.3825   81.1069   20.4613 S   0  0  0  0  0  0  0  0  0  0  0  0
   21.3594   80.0527   18.8189 O   0  0  0  0  0  0  0  0  0  0  0  0
   21.3998   80.0366   17.4278 C   0  0  0  0  0  0  0  0  0  0  0  0
   20.4450   78.9230   16.9910 C   0  0  0  0  0  0  0  0  0  0  0  0
   21.0031   78.4379   15.8407 O   0  0  0  0  0  0  0  0  0  0  0  0
   22.3884   78.4715   15.9850 C   0  0  0  0  0  0  0  0  0  0  0  0
   22.7289   79.6132   16.8791 C   0  0  0  0  0  0  0  0  0  0  0  0
   23.5819   79.2105   17.9149 O   0  0  0  0  0  0  0  0  0  0  0  0
   19.0973   79.5747   16.7926 C   0  0  0  0  0  0  0  0  0  0  0  0
   18.7030   80.2099   17.9484 O   0  0  0  0  0  0  0  0  0  0  0  0
   19.3756   78.3496   19.8250 O   0  0  0  0  0  0  0  0  0  0  0  0
   23.1359   78.6114   18.5475 H   0  0  0  0  0  0  0  0  0  0  0  0
   18.6972   78.3742    8.7871 C   0  0  0  0  0  0  0  0  0  0  0  0
   18.5606   77.2693    7.9776 C   0  0  0  0  0  0  0  0  0  0  0  0
   17.5597   77.1892    7.0176 C   0  0  0  0  0  0  0  0  0  0  0  0
   16.6883   78.2454    6.8803 C   0  0  0  0  0  0  0  0  0  0  0  0
   16.7918   79.3765    7.6750 C   0  0  0  0  0  0  0  0  0  0  0  0
   17.8031   79.4009    8.6108 C   0  0  0  0  0  0  0  0  0  0  0  0
 16 17  2  0  0  0
 16 18  1  0  0  0
 16 26  1  0  0  0
 16 27  1  0  0  0
 18 19  1  0  0  0
 19 20  1  0  0  0
 19 23  1  0  0  0
 20 21  1  0  0  0
 20 25  1  0  0  0
 21 22  1  0  0  0
 22 23  1  0  0  0
 22  1  1  0  0  0
 23 24  1  0  0  0
  1  2  1  0  0  0
  1  5  1  0  0  0
  2  3  2  0  0  0
  2 14  1  0  0  0
  3  4  1  0  0  0
  3  7  1  0  0  0
  4  5  2  0  0  0
  5  6  1  0  0  0
  7  8  2  0  0  0
  7  9  1  0  0  0
  9 10  1  0  0  0
  9 13  1  0  0  0
 10 11  2  0  0  0
 10 14  1  0  0  0
 11 12  1  0  0  0
 12 13  2  0  0  0
 12 29  1  0  0  0
 29 30  2  0  0  0
 29 34  1  0  0  0
 30 31  1  0  0  0
 31 32  2  0  0  0
 32 33  1  0  0  0
 33 34  2  0  0  0
 25 26  1  0  0  0
 24 28  1  0  0  0
 14 15  1  0  0  0
M  END
> <minimizedAffinity>
-9.35305

$$$$
993


 26 29  0  0  0  0  0  0  0  0999 V2000
   19.3896   83.0993   20.6801 P   0  0  0  0  0  0  0  0  0  0  0  0
   20.6196   82.8398   21.8909 S   0  0  0  0  0  0  0  0  0  0  0  0
   18.9241   81.6021   20.0039 O   0  0  0  0  0  0  0  0  0  0  0  0
   19.9623   81.1866   19.2072 C   0  0  0  0  0  0  0  0  0  0  0  0
   20.1516   82.2072   18.0770 C   0  0  0  0  0  0  0  0  0  0  0  0
   20.9592   81.4688   17.2138 O   0  0  0  0  0  0  0  0  0  0  0  0
   20.3554   80.2393   17.0979 C   0  0  0  0  0  0  0  0  0  0  0  0
   19.6271   79.9549   18.3871 C   0  0  0  0  0  0  0  0  0  0  0  0
   18.2557   80.0247   18.1069 O   0  0  0  0  0  0  0  0  0  0  0  0
   20.8124   83.4543   18.5757 C   0  0  0  0  0  0  0  0  0  0  0  0
   19.9494   84.0853   19.4534 O   0  0  0  0  0  0  0  0  0  0  0  0
   18.0559   83.7669   21.4308 O   0  0  0  0  0  0  0  0  0  0  0  0
   17.7632   79.2367   18.4017 H   0  0  0  0  0  0  0  0  0  0  0  0
   21.3036   79.1618   16.8876 N   0  0  0  0  0  0  0  0  0  0  0  0
   22.2139   79.1353   15.8816 C   0  0  0  0  0  0  0  0  0  0  0  0
   22.4855   80.0081   14.8776 N   0  0  0  0  0  0  0  0  0  0  0  0
   23.4587   79.7563   13.9803 C   0  0  0  0  0  0  0  0  0  0  0  0
   24.1823   78.6139   14.0757 N   0  0  0  0  0  0  0  0  0  0  0  0
   23.9434   77.7245   15.0556 C   0  0  0  0  0  0  0  0  0  0  0  0
   22.9479   77.9711   15.9833 C   0  0  0  0  0  0  0  0  0  0  0  0
   22.4823   77.2949   17.0491 N   0  0  0  0  0  0  0  0  0  0  0  0
   21.4843   78.0296   17.5881 C   0  0  0  0  0  0  0  0  0  0  0  0
   20.4271   77.5930   19.1303 Br  0  0  0  0  0  0  0  0  0  0  0  0
   24.7165   76.5232   15.1431 N   0  0  0  0  0  0  0  0  0  0  0  0
   25.6667   76.5031   14.6810 H   0  0  0  0  0  0  0  0  0  0  0  0
   24.3789   75.6764   15.6413 H   0  0  0  0  0  0  0  0  0  0  0  0
  1  2  2  0  0  0
  1  3  1  0  0  0
  1 11  1  0  0  0
  1 12  1  0  0  0
  3  4  1  0  0  0
  4  5  1  0  0  0
  4  8  1  0  0  0
  5  6  1  0  0  0
  5 10  1  0  0  0
  6  7  1  0  0  0
  7  8  1  0  0  0
  7 14  1  0  0  0
  8  9  1  0  0  0
 14 15  1  0  0  0
 14 22  1  0  0  0
 15 16  2  0  0  0
 15 20  1  0  0  0
 16 17  1  0  0  0
 17 18  2  0  0  0
 18 19  1  0  0  0
 19 20  2  0  0  0
 19 24  1  0  0  0
 20 21  1  0  0  0
 21 22  2  0  0  0
 22 23  1  0  0  0
 10 11  1  0  0  0
  9 13  1  0  0  0
 24 25  1  0  0  0
 24 26  1  0  0  0
M  END
> <minimizedAffinity>
-9.21760

$$$$
999


 35 38  0  0  0  0  0  0  0  0999 V2000
   23.4171   78.2684   13.9886 N   0  0  0  0  0  0  0  0  0  0  0  0
   23.3730   79.1030   12.8446 C   0  0  0  0  0  0  0  0  0  0  0  0
   24.0378   80.1731   12.8608 O   0  0  0  0  0  0  0  0  0  0  0  0
   22.8543   77.3813   13.9518 H   0  0  0  0  0  0  0  0  0  0  0  0
   22.5320   80.8990   15.6768 S   0  0  0  0  0  0  0  0  0  0  0  0
   23.5971   79.5318   16.1295 C   0  0  0  0  0  0  0  0  0  0  0  0
   22.7742   78.4106   16.4558 N   0  0  0  0  0  0  0  0  0  0  0  0
   21.3868   78.3723   16.8016 C   0  0  0  0  0  0  0  0  0  0  0  0
   20.7717   79.4686   17.1161 C   0  0  0  0  0  0  0  0  0  0  0  0
   21.4422   80.8496   17.1463 C   0  0  0  0  0  0  0  0  0  0  0  0
   23.9512   77.6568   16.2228 C   0  0  0  0  0  0  0  0  0  0  0  0
   24.6106   76.6798   16.5958 O   0  0  0  0  0  0  0  0  0  0  0  0
   24.2052   78.6620   15.1115 C   0  0  0  0  0  0  0  0  0  0  0  0
   20.7486   77.0238   16.7744 C   0  0  0  0  0  0  0  0  0  0  0  0
   20.4151   76.3998   15.7902 O   0  0  0  0  0  0  0  0  0  0  0  0
   20.4915   76.3777   17.9982 O   0  0  0  0  0  0  0  0  0  0  0  0
   19.3824   79.5870   17.4783 C   0  0  0  0  0  0  0  0  0  0  0  0
   18.9021   80.5586   18.2910 O   0  0  0  0  0  0  0  0  0  0  0  0
   18.9852   80.5067   19.6875 C   0  0  0  0  0  0  0  0  0  0  0  0
   18.7903   79.4012   20.2259 O   0  0  0  0  0  0  0  0  0  0  0  0
   19.2950   81.7625   20.4111 C   0  0  0  0  0  0  0  0  0  0  0  0
   22.5842   78.7577   11.6579 C   0  0  0  0  0  0  0  0  0  0  0  0
   21.4748   78.0930   11.5705 O   0  0  0  0  0  0  0  0  0  0  0  0
   21.0613   77.9796   10.3500 C   0  0  0  0  0  0  0  0  0  0  0  0
   21.9904   78.6349    9.5337 C   0  0  0  0  0  0  0  0  0  0  0  0
   22.9491   79.1214   10.3812 C   0  0  0  0  0  0  0  0  0  0  0  0
   19.8219   77.2846    9.8431 C   0  0  0  0  0  0  0  0  0  0  0  0
   19.0098   76.8700   10.9111 O   0  0  0  0  0  0  0  0  0  0  0  0
   18.9470   75.6095   11.4324 C   0  0  0  0  0  0  0  0  0  0  0  0
   19.1369   75.3005   12.7764 C   0  0  0  0  0  0  0  0  0  0  0  0
   19.0488   73.9916   13.1947 C   0  0  0  0  0  0  0  0  0  0  0  0
   18.7788   72.9425   12.3473 C   0  0  0  0  0  0  0  0  0  0  0  0
   18.5882   73.2407   11.0089 C   0  0  0  0  0  0  0  0  0  0  0  0
   18.6750   74.5587   10.5803 C   0  0  0  0  0  0  0  0  0  0  0  0
   18.6683   71.1481   12.9850 Br  0  0  0  0  0  0  0  0  0  0  0  0
  5  6  1  0  0  0
  5 10  1  0  0  0
  6  7  1  0  0  0
  6 13  1  0  0  0
  7  8  1  0  0  0
  7 11  1  0  0  0
  8  9  2  0  0  0
  8 14  1  0  0  0
  9 10  1  0  0  0
  9 17  1  0  0  0
 17 18  1  0  0  0
 18 19  1  0  0  0
 19 20  2  0  0  0
 19 21  1  0  0  0
 14 15  2  0  0  0
 14 16  1  0  0  0
 11 12  2  0  0  0
 11 13  1  0  0  0
 13  1  1  0  0  0
  1  2  1  0  0  0
  2  3  2  0  0  0
  2 22  1  0  0  0
 22 23  1  0  0  0
 22 26  2  0  0  0
 23 24  1  0  0  0
 24 25  2  0  0  0
 24 27  1  0  0  0
 25 26  1  0  0  0
 27 28  1  0  0  0
 28 29  1  0  0  0
 29 30  2  0  0  0
 29 34  1  0  0  0
 30 31  1  0  0  0
 31 32  2  0  0  0
 32 33  1  0  0  0
 32 35  1  0  0  0
 33 34  2  0  0  0
  1  4  1  0  0  0
M  END
> <minimizedAffinity>
-9.58095

$$$$
1001


 26 29  0  0  0  0  0  0  0  0999 V2000
   24.8418   78.2219   15.7784 P   0  0  0  0  0  0  0  0  0  0  0  0
   26.3676   78.3060   15.8518 O   0  0  0  0  0  0  0  0  0  0  0  0
   24.2400   79.7753   15.9839 O   0  0  0  0  0  0  0  0  0  0  0  0
   23.2081   79.8091   16.8857 C   0  0  0  0  0  0  0  0  0  0  0  0
   22.4457   78.4863   16.7292 C   0  0  0  0  0  0  0  0  0  0  0  0
   21.1579   78.7422   17.0949 O   0  0  0  0  0  0  0  0  0  0  0  0
   20.8759   80.0685   16.9181 C   0  0  0  0  0  0  0  0  0  0  0  0
   22.1218   80.7940   16.5444 C   0  0  0  0  0  0  0  0  0  0  0  0
   22.1875   81.1393   15.2091 O   0  0  0  0  0  0  0  0  0  0  0  0
   23.1668   77.4893   17.5781 C   0  0  0  0  0  0  0  0  0  0  0  0
   24.3436   77.1487   16.9553 O   0  0  0  0  0  0  0  0  0  0  0  0
   24.4855   77.6567   14.2037 O   0  0  0  0  0  0  0  0  0  0  0  0
   22.7583   81.9032   15.0267 H   0  0  0  0  0  0  0  0  0  0  0  0
   20.2834   80.5650   18.1531 N   0  0  0  0  0  0  0  0  0  0  0  0
   20.1341   81.8670   18.4929 C   0  0  0  0  0  0  0  0  0  0  0  0
   20.4647   82.9922   17.8367 N   0  0  0  0  0  0  0  0  0  0  0  0
   20.2063   84.1838   18.3995 C   0  0  0  0  0  0  0  0  0  0  0  0
   19.6212   84.2392   19.6101 N   0  0  0  0  0  0  0  0  0  0  0  0
   19.2636   83.1596   20.3216 C   0  0  0  0  0  0  0  0  0  0  0  0
   19.5342   81.9267   19.7332 C   0  0  0  0  0  0  0  0  0  0  0  0
   19.3207   80.6797   20.1441 N   0  0  0  0  0  0  0  0  0  0  0  0
   19.7786   79.8619   19.1793 C   0  0  0  0  0  0  0  0  0  0  0  0
   19.7493   77.9335   19.1922 Br  0  0  0  0  0  0  0  0  0  0  0  0
   18.6453   83.2056   21.5995 N   0  0  0  0  0  0  0  0  0  0  0  0
   19.2762   83.2581   22.4535 H   0  0  0  0  0  0  0  0  0  0  0  0
   17.6332   83.1937   21.7562 H   0  0  0  0  0  0  0  0  0  0  0  0
  1  2  2  0  0  0
  1  3  1  0  0  0
  1 11  1  0  0  0
  1 12  1  0  0  0
  3  4  1  0  0  0
  4  5  1  0  0  0
  4  8  1  0  0  0
  5  6  1  0  0  0
  5 10  1  0  0  0
  6  7  1  0  0  0
  7  8  1  0  0  0
  7 14  1  0  0  0
  8  9  1  0  0  0
 14 15  1  0  0  0
 14 22  1  0  0  0
 15 16  2  0  0  0
 15 20  1  0  0  0
 16 17  1  0  0  0
 17 18  2  0  0  0
 18 19  1  0  0  0
 19 20  2  0  0  0
 19 24  1  0  0  0
 20 21  1  0  0  0
 21 22  2  0  0  0
 22 23  1  0  0  0
 10 11  1  0  0  0
  9 13  1  0  0  0
 24 25  1  0  0  0
 24 26  1  0  0  0
M  END
> <minimizedAffinity>
-9.18781

$$$$
1008


 29 32  0  0  0  0  0  0  0  0999 V2000
   22.3574   79.9512   15.0981 C   0  0  0  0  0  0  0  0  0  0  0  0
   22.6358   81.1313   15.4240 O   0  0  0  0  0  0  0  0  0  0  0  0
   21.9296   79.0202   16.0905 N   0  0  0  0  0  0  0  0  0  0  0  0
   21.8149   79.4215   17.4762 C   0  0  0  0  0  0  0  0  0  0  0  0
   20.6087   78.8531   18.1565 C   0  0  0  0  0  0  0  0  0  0  0  0
   19.6730   78.3511   17.0537 C   0  0  0  0  0  0  0  0  0  0  0  0
   20.3733   77.1588   16.4391 C   0  0  0  0  0  0  0  0  0  0  0  0
   21.6063   77.6633   15.7348 C   0  0  0  0  0  0  0  0  0  0  0  0
   19.9091   79.8411   19.0387 C   0  0  0  0  0  0  0  0  0  0  0  0
   20.0440   81.1927   19.0040 N   0  0  0  0  0  0  0  0  0  0  0  0
   19.2691   81.7590   19.9335 C   0  0  0  0  0  0  0  0  0  0  0  0
   18.6424   80.7143   20.5535 N   0  0  0  0  0  0  0  0  0  0  0  0
   19.0282   79.5738   20.0155 N   0  0  0  0  0  0  0  0  0  0  0  0
   19.3826   83.2469   19.9362 C   0  0  0  0  0  0  0  0  0  0  0  0
   20.0846   83.5048   18.6390 C   0  0  0  0  0  0  0  0  0  0  0  0
   20.7731   82.2089   18.2667 C   0  0  0  0  0  0  0  0  0  0  0  0
   21.5410   79.4137   11.4818 C   0  0  0  0  0  0  0  0  0  0  0  0
   21.4432   79.7830   12.8035 C   0  0  0  0  0  0  0  0  0  0  0  0
   22.4742   79.5547   13.7091 C   0  0  0  0  0  0  0  0  0  0  0  0
   23.6131   78.9385   13.2393 C   0  0  0  0  0  0  0  0  0  0  0  0
   23.7195   78.5606   11.9010 C   0  0  0  0  0  0  0  0  0  0  0  0
   22.6885   78.7945   11.0188 C   0  0  0  0  0  0  0  0  0  0  0  0
   25.0607   78.5920   14.4112 Br  0  0  0  0  0  0  0  0  0  0  0  0
   20.2157   79.7274   10.4009 S   0  0  0  0  0  0  0  0  0  0  0  0
   19.0556   78.8291   10.7776 O   0  0  0  0  0  0  0  0  0  0  0  0
   20.6061   79.4260    8.9747 O   0  0  0  0  0  0  0  0  0  0  0  0
   19.6769   81.3464   10.5720 N   0  0  0  0  0  0  0  0  0  0  0  0
   19.9411   81.9340    9.7447 H   0  0  0  0  0  0  0  0  0  0  0  0
   20.0666   81.7680   11.4517 H   0  0  0  0  0  0  0  0  0  0  0  0
 24 25  2  0  0  0
 24 26  2  0  0  0
 24 27  1  0  0  0
 24 17  1  0  0  0
 17 18  2  0  0  0
 17 22  1  0  0  0
 18 19  1  0  0  0
 19 20  2  0  0  0
 19  1  1  0  0  0
 20 21  1  0  0  0
 20 23  1  0  0  0
 21 22  2  0  0  0
  1  2  2  0  0  0
  1  3  1  0  0  0
  3  4  1  0  0  0
  3  8  1  0  0  0
  4  5  1  0  0  0
  5  6  1  0  0  0
  5  9  1  0  0  0
  6  7  1  0  0  0
  7  8  1  0  0  0
  9 10  1  0  0  0
  9 13  2  0  0  0
 10 11  1  0  0  0
 10 16  1  0  0  0
 11 12  2  0  0  0
 11 14  1  0  0  0
 12 13  1  0  0  0
 14 15  1  0  0  0
 15 16  1  0  0  0
 27 28  1  0  0  0
 27 29  1  0  0  0
M  END
> <minimizedAffinity>
-9.44930

$$$$
1011


 29 32  0  0  0  0  0  0  0  0999 V2000
   21.3760   78.0128   15.7625 C   0  0  0  0  0  0  0  0  0  0  0  0
   20.6227   77.0356   15.1044 C   0  0  0  0  0  0  0  0  0  0  0  0
   20.5004   77.0528   13.7323 C   0  0  0  0  0  0  0  0  0  0  0  0
   21.1035   78.0182   12.9461 C   0  0  0  0  0  0  0  0  0  0  0  0
   21.8425   78.9774   13.5799 C   0  0  0  0  0  0  0  0  0  0  0  0
   21.9714   78.9663   14.9728 C   0  0  0  0  0  0  0  0  0  0  0  0
   23.0014   80.3221   15.8546 Br  0  0  0  0  0  0  0  0  0  0  0  0
   20.7702   77.7664   11.5161 C   0  0  0  0  0  0  0  0  0  0  0  0
   19.5175   76.8732   11.6406 C   0  0  0  0  0  0  0  0  0  0  0  0
   19.7864   76.1468   12.8713 N   0  0  0  0  0  0  0  0  0  0  0  0
   19.4566   74.8184   13.2274 C   0  0  0  0  0  0  0  0  0  0  0  0
   19.7732   74.3105   14.3278 O   0  0  0  0  0  0  0  0  0  0  0  0
   18.7043   73.9882   12.2571 C   0  0  0  0  0  0  0  0  0  0  0  0
   17.4229   73.4571   12.7558 C   0  0  0  0  0  0  0  0  0  0  0  0
   18.5735   72.5242   12.4668 C   0  0  0  0  0  0  0  0  0  0  0  0
   21.5184   77.9635   17.4991 S   0  0  0  0  0  0  0  0  0  0  0  0
   20.7809   76.7461   18.0446 O   0  0  0  0  0  0  0  0  0  0  0  0
   22.9352   77.8177   17.9408 O   0  0  0  0  0  0  0  0  0  0  0  0
   20.7508   79.3313   18.2107 N   0  0  0  0  0  0  0  0  0  0  0  0
   21.0999   79.4251   19.1846 H   0  0  0  0  0  0  0  0  0  0  0  0
   19.3050   79.2387   18.1842 C   0  0  0  0  0  0  0  0  0  0  0  0
   18.8056   80.0224   19.3887 C   0  0  0  0  0  0  0  0  0  0  0  0
   19.8958   80.8933   19.9539 C   0  0  0  0  0  0  0  0  0  0  0  0
   19.5565   82.2501   19.7402 N   0  0  0  0  0  0  0  0  0  0  0  0
   19.2760   83.0243   20.8961 C   0  0  0  0  0  0  0  0  0  0  0  0
   18.4633   84.2372   20.4755 C   0  0  0  0  0  0  0  0  0  0  0  0
   18.9501   84.7948   19.3101 O   0  0  0  0  0  0  0  0  0  0  0  0
   20.2531   84.4129   19.0137 C   0  0  0  0  0  0  0  0  0  0  0  0
   20.2128   82.9192   18.6782 C   0  0  0  0  0  0  0  0  0  0  0  0
 16 17  2  0  0  0
 16 18  2  0  0  0
 16 19  1  0  0  0
 16  1  1  0  0  0
 19 21  1  0  0  0
 21 22  1  0  0  0
 22 23  1  0  0  0
 23 24  1  0  0  0
 24 25  1  0  0  0
 24 29  1  0  0  0
 25 26  1  0  0  0
 26 27  1  0  0  0
 27 28  1  0  0  0
 28 29  1  0  0  0
  1  2  2  0  0  0
  1  6  1  0  0  0
  2  3  1  0  0  0
  3  4  2  0  0  0
  3 10  1  0  0  0
  4  5  1  0  0  0
  4  8  1  0  0  0
  5  6  2  0  0  0
  6  7  1  0  0  0
  8  9  1  0  0  0
  9 10  1  0  0  0
 10 11  1  0  0  0
 11 12  2  0  0  0
 11 13  1  0  0  0
 13 14  1  0  0  0
 13 15  1  0  0  0
 14 15  1  0  0  0
 19 20  1  0  0  0
M  END
> <minimizedAffinity>
-9.34652

$$$$
1027


 32 35  0  0  0  0  0  0  0  0999 V2000
   22.4543   78.0370   17.2240 S   0  0  0  0  0  0  0  0  0  0  0  0
   23.4893   76.9807   17.6123 O   0  0  0  0  0  0  0  0  0  0  0  0
   22.7882   79.2215   18.1008 O   0  0  0  0  0  0  0  0  0  0  0  0
   22.7513   78.4173   15.5497 C   0  0  0  0  0  0  0  0  0  0  0  0
   21.7793   78.0617   14.6059 C   0  0  0  0  0  0  0  0  0  0  0  0
   21.9231   78.2474   13.2496 C   0  0  0  0  0  0  0  0  0  0  0  0
   23.0771   78.8135   12.7526 C   0  0  0  0  0  0  0  0  0  0  0  0
   24.0406   79.1700   13.6632 C   0  0  0  0  0  0  0  0  0  0  0  0
   23.8880   78.9793   15.0464 C   0  0  0  0  0  0  0  0  0  0  0  0
   25.2611   79.6119   16.2265 Br  0  0  0  0  0  0  0  0  0  0  0  0
   23.0106   78.9207   11.2746 C   0  0  0  0  0  0  0  0  0  0  0  0
   21.5096   78.7723   11.0221 C   0  0  0  0  0  0  0  0  0  0  0  0
   21.0642   77.9548   12.1455 N   0  0  0  0  0  0  0  0  0  0  0  0
   19.9894   77.0497   12.0999 C   0  0  0  0  0  0  0  0  0  0  0  0
   19.3205   76.9495   11.0131 O   0  0  0  0  0  0  0  0  0  0  0  0
   19.5433   76.1758   13.2115 C   0  0  0  0  0  0  0  0  0  0  0  0
   20.9413   77.4275   17.6091 N   0  0  0  0  0  0  0  0  0  0  0  0
   19.7765   77.9911   17.0956 C   0  0  0  0  0  0  0  0  0  0  0  0
   19.2241   79.1282   17.8651 C   0  0  0  0  0  0  0  0  0  0  0  0
   18.5313   80.0118   17.3056 O   0  0  0  0  0  0  0  0  0  0  0  0
   19.5236   79.1532   19.2563 N   0  0  0  0  0  0  0  0  0  0  0  0
   20.0657   77.9658   19.8105 C   0  0  0  0  0  0  0  0  0  0  0  0
   19.8799   77.7435   21.0398 O   0  0  0  0  0  0  0  0  0  0  0  0
   20.8306   76.9986   18.9959 C   0  0  0  0  0  0  0  0  0  0  0  0
   19.2706   80.3435   20.0400 C   0  0  0  0  0  0  0  0  0  0  0  0
   20.3566   81.3621   19.9939 C   0  0  0  0  0  0  0  0  0  0  0  0
   19.9510   82.7421   20.2536 C   0  0  0  0  0  0  0  0  0  0  0  0
   20.1558   83.7455   19.3480 C   0  0  0  0  0  0  0  0  0  0  0  0
   19.7562   85.0159   19.6551 C   0  0  0  0  0  0  0  0  0  0  0  0
   19.1449   85.3229   20.8657 C   0  0  0  0  0  0  0  0  0  0  0  0
   18.9508   84.3019   21.7551 C   0  0  0  0  0  0  0  0  0  0  0  0
   19.3400   83.0137   21.4785 C   0  0  0  0  0  0  0  0  0  0  0  0
  1  2  2  0  0  0
  1  3  2  0  0  0
  1 17  1  0  0  0
  1  4  1  0  0  0
 17 18  1  0  0  0
 17 24  1  0  0  0
 18 19  1  0  0  0
 19 20  2  0  0  0
 19 21  1  0  0  0
 21 22  1  0  0  0
 21 25  1  0  0  0
 22 23  2  0  0  0
 22 24  1  0  0  0
 25 26  1  0  0  0
 26 27  1  0  0  0
 27 28  2  0  0  0
 27 32  1  0  0  0
 28 29  1  0  0  0
 29 30  2  0  0  0
 30 31  1  0  0  0
 31 32  2  0  0  0
  4  5  2  0  0  0
  4  9  1  0  0  0
  5  6  1  0  0  0
  6  7  2  0  0  0
  6 13  1  0  0  0
  7  8  1  0  0  0
  7 11  1  0  0  0
  8  9  2  0  0  0
  9 10  1  0  0  0
 11 12  1  0  0  0
 12 13  1  0  0  0
 13 14  1  0  0  0
 14 15  2  0  0  0
 14 16  1  0  0  0
M  END
> <minimizedAffinity>
-11.36506

$$$$
1028


 25 28  0  0  0  0  0  0  0  0999 V2000
   23.1014   79.5020   16.5930 N   0  0  0  0  0  0  0  0  0  0  0  0
   22.2201   80.5250   16.1560 C   0  0  0  0  0  0  0  0  0  0  0  0
   21.0778   79.8774   16.8363 C   0  0  0  0  0  0  0  0  0  0  0  0
   22.0880   78.9553   17.4239 C   0  0  0  0  0  0  0  0  0  0  0  0
   20.3892   80.6671   17.8389 N   0  0  0  0  0  0  0  0  0  0  0  0
   19.4590   80.2872   18.6756 N   0  0  0  0  0  0  0  0  0  0  0  0
   19.0748   81.3157   19.4438 N   0  0  0  0  0  0  0  0  0  0  0  0
   19.7830   82.4029   19.0917 C   0  0  0  0  0  0  0  0  0  0  0  0
   20.6145   81.9714   18.0680 C   0  0  0  0  0  0  0  0  0  0  0  0
   19.7001   83.7852   19.6719 C   0  0  0  0  0  0  0  0  0  0  0  0
   19.5694   83.6543   21.1116 N   0  0  0  0  0  0  0  0  0  0  0  0
   20.4352   82.8952   21.9629 C   0  0  0  0  0  0  0  0  0  0  0  0
   19.9478   83.1284   23.3645 C   0  0  0  0  0  0  0  0  0  0  0  0
   18.9462   84.2372   23.3382 C   0  0  0  0  0  0  0  0  0  0  0  0
   18.5475   84.2718   21.8881 C   0  0  0  0  0  0  0  0  0  0  0  0
   17.4829   84.7725   21.4830 O   0  0  0  0  0  0  0  0  0  0  0  0
   23.7680   78.4371   15.4653 S   0  0  0  0  0  0  0  0  0  0  0  0
   23.5850   77.0298   15.9569 O   0  0  0  0  0  0  0  0  0  0  0  0
   25.2552   78.6414   15.3002 O   0  0  0  0  0  0  0  0  0  0  0  0
   23.0095   78.5233   13.8771 C   0  0  0  0  0  0  0  0  0  0  0  0
   21.4302   78.0229   13.4361 S   0  0  0  0  0  0  0  0  0  0  0  0
   21.4664   78.4293   11.7777 C   0  0  0  0  0  0  0  0  0  0  0  0
   22.7255   78.9483   11.6210 C   0  0  0  0  0  0  0  0  0  0  0  0
   23.5098   78.9941   12.6996 C   0  0  0  0  0  0  0  0  0  0  0  0
   20.0994   78.2239   10.4360 Br  0  0  0  0  0  0  0  0  0  0  0  0
 17 18  2  0  0  0
 17 19  2  0  0  0
 17  1  1  0  0  0
 17 20  1  0  0  0
  1  2  1  0  0  0
  1  4  1  0  0  0
  2  3  1  0  0  0
  3  4  1  0  0  0
  3  5  1  0  0  0
  5  6  1  0  0  0
  5  9  1  0  0  0
  6  7  2  0  0  0
  7  8  1  0  0  0
  8  9  2  0  0  0
  8 10  1  0  0  0
 10 11  1  0  0  0
 11 12  1  0  0  0
 11 15  1  0  0  0
 12 13  1  0  0  0
 13 14  1  0  0  0
 14 15  1  0  0  0
 15 16  2  0  0  0
 20 21  1  0  0  0
 20 24  2  0  0  0
 21 22  1  0  0  0
 22 23  2  0  0  0
 22 25  1  0  0  0
 23 24  1  0  0  0
M  END
> <minimizedAffinity>
-8.81303

$$$$
1037


 31 34  0  0  0  0  0  0  0  0999 V2000
   21.4142   78.8633   18.2891 N   0  0  0  0  0  0  0  0  0  0  0  0
   21.4993   77.5178   17.8334 C   0  0  0  0  0  0  0  0  0  0  0  0
   21.7271   77.2717   16.4150 C   0  0  0  0  0  0  0  0  0  0  0  0
   22.1715   78.3758   15.5869 N   0  0  0  0  0  0  0  0  0  0  0  0
   22.1222   79.7204   16.0730 C   0  0  0  0  0  0  0  0  0  0  0  0
   22.2381   79.7825   17.5912 C   0  0  0  0  0  0  0  0  0  0  0  0
   22.6692   78.0806   14.3166 C   0  0  0  0  0  0  0  0  0  0  0  0
   22.7477   76.7448   14.1369 O   0  0  0  0  0  0  0  0  0  0  0  0
   19.8649   79.4259   18.6816 S   0  0  0  0  0  0  0  0  0  0  0  0
   19.4008   78.7582   19.9467 O   0  0  0  0  0  0  0  0  0  0  0  0
   18.8683   79.0302   17.6054 O   0  0  0  0  0  0  0  0  0  0  0  0
   19.7771   81.1492   18.9804 C   0  0  0  0  0  0  0  0  0  0  0  0
   19.0050   81.6355   20.0345 C   0  0  0  0  0  0  0  0  0  0  0  0
   18.8854   82.9801   20.3119 C   0  0  0  0  0  0  0  0  0  0  0  0
   19.5367   83.9189   19.5440 C   0  0  0  0  0  0  0  0  0  0  0  0
   20.3015   83.4455   18.5003 C   0  0  0  0  0  0  0  0  0  0  0  0
   20.4267   82.0909   18.2140 C   0  0  0  0  0  0  0  0  0  0  0  0
   19.4182   85.2959   19.8183 O   0  0  0  0  0  0  0  0  0  0  0  0
   19.1037   85.7267   21.1544 C   0  0  0  0  0  0  0  0  0  0  0  0
   17.9871   84.8579   21.6081 C   0  0  0  0  0  0  0  0  0  0  0  0
   16.9670   85.3152   22.1720 O   0  0  0  0  0  0  0  0  0  0  0  0
   18.0734   83.4599   21.3971 N   0  0  0  0  0  0  0  0  0  0  0  0
   17.5907   82.7502   21.9668 H   0  0  0  0  0  0  0  0  0  0  0  0
   23.0990   78.8726   13.2009 C   0  0  0  0  0  0  0  0  0  0  0  0
   22.2819   79.0035   11.9968 C   0  0  0  0  0  0  0  0  0  0  0  0
   22.8016   78.7611   10.7489 C   0  0  0  0  0  0  0  0  0  0  0  0
   22.0094   78.8835    9.6079 C   0  0  0  0  0  0  0  0  0  0  0  0
   20.7009   79.2466    9.7349 C   0  0  0  0  0  0  0  0  0  0  0  0
   20.1658   79.4915   11.0008 C   0  0  0  0  0  0  0  0  0  0  0  0
   20.9408   79.3722   12.1103 C   0  0  0  0  0  0  0  0  0  0  0  0
   24.6398   78.2562   10.5452 Br  0  0  0  0  0  0  0  0  0  0  0  0
  9 10  2  0  0  0
  9 11  2  0  0  0
  9  1  1  0  0  0
  9 12  1  0  0  0
  1  2  1  0  0  0
  1  6  1  0  0  0
  2  3  1  0  0  0
  3  4  1  0  0  0
  4  5  1  0  0  0
  4  7  1  0  0  0
  5  6  1  0  0  0
  7  8  2  0  0  0
  7 24  1  0  0  0
 24 25  1  0  0  0
 25 26  2  0  0  0
 25 30  1  0  0  0
 26 27  1  0  0  0
 26 31  1  0  0  0
 27 28  2  0  0  0
 28 29  1  0  0  0
 29 30  2  0  0  0
 12 13  2  0  0  0
 12 17  1  0  0  0
 13 14  1  0  0  0
 14 15  2  0  0  0
 14 22  1  0  0  0
 15 16  1  0  0  0
 15 18  1  0  0  0
 16 17  2  0  0  0
 18 19  1  0  0  0
 19 20  1  0  0  0
 20 21  2  0  0  0
 20 22  1  0  0  0
 22 23  1  0  0  0
M  END
> <minimizedAffinity>
-10.29564

$$$$
1040


 34 38  0  0  0  0  0  0  0  0999 V2000
   23.1175   78.2373   14.7015 S   0  0  0  0  0  0  0  0  0  0  0  0
   23.6125   77.0448   15.4250 O   0  0  0  0  0  0  0  0  0  0  0  0
   24.3408   78.7773   13.9518 O   0  0  0  0  0  0  0  0  0  0  0  0
   21.9339   77.9111   13.4743 C   0  0  0  0  0  0  0  0  0  0  0  0
   20.8940   76.9911   13.6675 C   0  0  0  0  0  0  0  0  0  0  0  0
   19.9579   76.7348   12.6858 C   0  0  0  0  0  0  0  0  0  0  0  0
   20.0086   77.3797   11.4667 C   0  0  0  0  0  0  0  0  0  0  0  0
   21.0213   78.2776   11.2707 C   0  0  0  0  0  0  0  0  0  0  0  0
   21.9576   78.5263   12.2688 C   0  0  0  0  0  0  0  0  0  0  0  0
   22.9932   79.5088   11.9073 C   0  0  0  0  0  0  0  0  0  0  0  0
   22.3725   80.7533   11.3111 C   0  0  0  0  0  0  0  0  0  0  0  0
   21.3498   80.4230   10.3928 N   0  0  0  0  0  0  0  0  0  0  0  0
   21.2091   79.0509   10.0218 C   0  0  0  0  0  0  0  0  0  0  0  0
   20.1407   81.1631   10.4831 C   0  0  0  0  0  0  0  0  0  0  0  0
   19.0828   75.7945   13.1837 O   0  0  0  0  0  0  0  0  0  0  0  0
   19.5465   75.3572   14.4299 C   0  0  0  0  0  0  0  0  0  0  0  0
   20.6173   76.2165   14.7898 O   0  0  0  0  0  0  0  0  0  0  0  0
   19.0561   77.1228   10.4590 O   0  0  0  0  0  0  0  0  0  0  0  0
   19.1936   75.9292    9.6750 C   0  0  0  0  0  0  0  0  0  0  0  0
   22.6430   79.5283   15.7356 N   0  0  0  0  0  0  0  0  0  0  0  0
   23.0124   79.3513   17.0975 C   0  0  0  0  0  0  0  0  0  0  0  0
   21.9906   78.5844   17.9269 C   0  0  0  0  0  0  0  0  0  0  0  0
   20.7112   79.1852   17.7511 N   0  0  0  0  0  0  0  0  0  0  0  0
   20.2727   79.1627   16.3184 C   0  0  0  0  0  0  0  0  0  0  0  0
   21.2919   79.9379   15.5543 C   0  0  0  0  0  0  0  0  0  0  0  0
   19.8372   79.7658   18.6481 C   0  0  0  0  0  0  0  0  0  0  0  0
   18.7243   80.2302   18.1156 O   0  0  0  0  0  0  0  0  0  0  0  0
   19.9213   79.9571   20.0667 C   0  0  0  0  0  0  0  0  0  0  0  0
   19.9919   81.2684   20.6005 N   0  0  0  0  0  0  0  0  0  0  0  0
   20.9994   81.8231   21.2723 N   0  0  0  0  0  0  0  0  0  0  0  0
   20.7223   83.0951   21.5851 C   0  0  0  0  0  0  0  0  0  0  0  0
   19.4705   83.3446   21.0786 C   0  0  0  0  0  0  0  0  0  0  0  0
   19.0215   82.2111   20.4700 C   0  0  0  0  0  0  0  0  0  0  0  0
   18.5105   85.0072   21.2045 Br  0  0  0  0  0  0  0  0  0  0  0  0
  1  2  2  0  0  0
  1  3  2  0  0  0
  1 20  1  0  0  0
  1  4  1  0  0  0
 20 21  1  0  0  0
 20 25  1  0  0  0
 21 22  1  0  0  0
 22 23  1  0  0  0
 23 24  1  0  0  0
 23 26  1  0  0  0
 24 25  1  0  0  0
 26 27  2  0  0  0
 26 28  1  0  0  0
 28 29  1  0  0  0
 29 30  1  0  0  0
 29 33  1  0  0  0
 30 31  2  0  0  0
 31 32  1  0  0  0
 32 33  2  0  0  0
 32 34  1  0  0  0
  4  5  2  0  0  0
  4  9  1  0  0  0
  5  6  1  0  0  0
  5 17  1  0  0  0
  6  7  2  0  0  0
  6 15  1  0  0  0
  7  8  1  0  0  0
  7 18  1  0  0  0
  8  9  2  0  0  0
  8 13  1  0  0  0
  9 10  1  0  0  0
 10 11  1  0  0  0
 11 12  1  0  0  0
 12 13  1  0  0  0
 12 14  1  0  0  0
 18 19  1  0  0  0
 15 16  1  0  0  0
 16 17  1  0  0  0
M  END
> <minimizedAffinity>
-9.53755

$$$$
1042


 31 34  0  0  0  0  0  0  0  0999 V2000
   21.0191   78.7046   10.4281 N   0  0  0  0  0  0  0  0  0  0  0  0
   20.6319   79.8342   11.1304 C   0  0  0  0  0  0  0  0  0  0  0  0
   21.9135   80.6107   11.5395 C   0  0  0  0  0  0  0  0  0  0  0  0
   22.8260   79.7203   12.2009 N   0  0  0  0  0  0  0  0  0  0  0  0
   23.2655   78.5648   11.4527 C   0  0  0  0  0  0  0  0  0  0  0  0
   22.4236   78.5074   10.1968 C   0  0  0  0  0  0  0  0  0  0  0  0
   23.2998   79.9185   13.5118 C   0  0  0  0  0  0  0  0  0  0  0  0
   22.9153   80.9216   14.1545 O   0  0  0  0  0  0  0  0  0  0  0  0
   19.9786   77.7505    9.5616 S   0  0  0  0  0  0  0  0  0  0  0  0
   18.6905   78.5474    9.3143 O   0  0  0  0  0  0  0  0  0  0  0  0
   20.4912   77.4818    8.1433 O   0  0  0  0  0  0  0  0  0  0  0  0
   19.4617   76.2488   10.2636 C   0  0  0  0  0  0  0  0  0  0  0  0
   19.0790   75.1235    9.5841 C   0  0  0  0  0  0  0  0  0  0  0  0
   18.6282   73.9765   10.2473 C   0  0  0  0  0  0  0  0  0  0  0  0
   18.5475   73.9202   11.6029 C   0  0  0  0  0  0  0  0  0  0  0  0
   18.9254   75.0284   12.3120 C   0  0  0  0  0  0  0  0  0  0  0  0
   19.3679   76.1572   11.6648 C   0  0  0  0  0  0  0  0  0  0  0  0
   19.2257   75.0884    7.6929 Br  0  0  0  0  0  0  0  0  0  0  0  0
   24.2304   78.9732   14.1306 C   0  0  0  0  0  0  0  0  0  0  0  0
   23.8777   78.7456   15.5294 N   0  0  0  0  0  0  0  0  0  0  0  0
   24.5813   79.0882   16.7055 C   0  0  0  0  0  0  0  0  0  0  0  0
   25.7052   79.6886   16.7373 O   0  0  0  0  0  0  0  0  0  0  0  0
   23.8065   78.6426   17.8119 N   0  0  0  0  0  0  0  0  0  0  0  0
   22.4566   78.4749   17.3408 C   0  0  0  0  0  0  0  0  0  0  0  0
   21.6089   79.6956   17.4914 C   0  0  0  0  0  0  0  0  0  0  0  0
   20.2000   79.1191   17.3030 C   0  0  0  0  0  0  0  0  0  0  0  0
   20.2675   77.7755   17.9755 C   0  0  0  0  0  0  0  0  0  0  0  0
   21.7095   77.4139   18.1149 C   0  0  0  0  0  0  0  0  0  0  0  0
   22.6602   78.0822   15.9259 C   0  0  0  0  0  0  0  0  0  0  0  0
   21.9275   77.3371   15.2372 O   0  0  0  0  0  0  0  0  0  0  0  0
   24.2238   78.4902   18.7635 H   0  0  0  0  0  0  0  0  0  0  0  0
  9 10  2  0  0  0
  9 11  2  0  0  0
  9  1  1  0  0  0
  9 12  1  0  0  0
  1  2  1  0  0  0
  1  6  1  0  0  0
  2  3  1  0  0  0
  3  4  1  0  0  0
  4  5  1  0  0  0
  4  7  1  0  0  0
  5  6  1  0  0  0
  7  8  2  0  0  0
  7 19  1  0  0  0
 19 20  1  0  0  0
 20 21  1  0  0  0
 20 29  1  0  0  0
 21 22  2  0  0  0
 21 23  1  0  0  0
 23 24  1  0  0  0
 24 25  1  0  0  0
 24 28  1  0  0  0
 24 29  1  0  0  0
 25 26  1  0  0  0
 26 27  1  0  0  0
 27 28  1  0  0  0
 29 30  2  0  0  0
 12 13  2  0  0  0
 12 17  1  0  0  0
 13 14  1  0  0  0
 13 18  1  0  0  0
 14 15  2  0  0  0
 15 16  1  0  0  0
 16 17  2  0  0  0
 23 31  1  0  0  0
M  END
> <minimizedAffinity>
-9.83423

$$$$
1043


 31 34  0  0  0  0  0  0  0  0999 V2000
   21.1410   78.8509   17.1286 N   0  0  0  0  0  0  0  0  0  0  0  0
   22.4743   79.0877   17.6399 C   0  0  0  0  0  0  0  0  0  0  0  0
   23.4600   78.0955   17.0748 C   0  0  0  0  0  0  0  0  0  0  0  0
   23.3030   78.1253   15.6058 N   0  0  0  0  0  0  0  0  0  0  0  0
   21.9817   77.8641   15.1258 C   0  0  0  0  0  0  0  0  0  0  0  0
   21.0792   77.6548   16.3644 C   0  0  0  0  0  0  0  0  0  0  0  0
   24.3998   78.4001   14.7764 C   0  0  0  0  0  0  0  0  0  0  0  0
   25.5279   78.6265   15.4190 O   0  0  0  0  0  0  0  0  0  0  0  0
   19.9282   78.9971   18.3207 S   0  0  0  0  0  0  0  0  0  0  0  0
   20.2755   78.0199   19.4292 O   0  0  0  0  0  0  0  0  0  0  0  0
   18.6138   78.5220   17.7540 O   0  0  0  0  0  0  0  0  0  0  0  0
   19.7679   80.6215   18.9434 C   0  0  0  0  0  0  0  0  0  0  0  0
   20.2135   81.7246   18.2436 C   0  0  0  0  0  0  0  0  0  0  0  0
   20.0814   83.0133   18.7480 C   0  0  0  0  0  0  0  0  0  0  0  0
   19.4980   83.2313   19.9692 C   0  0  0  0  0  0  0  0  0  0  0  0
   19.0480   82.1379   20.6786 C   0  0  0  0  0  0  0  0  0  0  0  0
   19.1823   80.8548   20.1695 C   0  0  0  0  0  0  0  0  0  0  0  0
   19.3106   85.0137   20.6748 Br  0  0  0  0  0  0  0  0  0  0  0  0
   24.5470   78.4866   13.3457 C   0  0  0  0  0  0  0  0  0  0  0  0
   23.6039   79.2216   12.5632 N   0  0  0  0  0  0  0  0  0  0  0  0
   22.9080   80.4395   12.9328 C   0  0  0  0  0  0  0  0  0  0  0  0
   23.0881   81.0174   14.0409 O   0  0  0  0  0  0  0  0  0  0  0  0
   22.0575   80.7963   11.8556 N   0  0  0  0  0  0  0  0  0  0  0  0
   21.8856   79.6366   11.0480 C   0  0  0  0  0  0  0  0  0  0  0  0
   20.6522   78.8391   11.3979 C   0  0  0  0  0  0  0  0  0  0  0  0
   20.5521   77.9024   10.2091 C   0  0  0  0  0  0  0  0  0  0  0  0
   21.1781   78.6349    9.0469 C   0  0  0  0  0  0  0  0  0  0  0  0
   21.6331   79.9694    9.5877 C   0  0  0  0  0  0  0  0  0  0  0  0
   23.1274   78.8900   11.2423 C   0  0  0  0  0  0  0  0  0  0  0  0
   23.6999   78.1049   10.4440 O   0  0  0  0  0  0  0  0  0  0  0  0
   21.6625   81.7705   11.7437 H   0  0  0  0  0  0  0  0  0  0  0  0
  9 10  2  0  0  0
  9 11  2  0  0  0
  9  1  1  0  0  0
  9 12  1  0  0  0
  1  2  1  0  0  0
  1  6  1  0  0  0
  2  3  1  0  0  0
  3  4  1  0  0  0
  4  5  1  0  0  0
  4  7  1  0  0  0
  5  6  1  0  0  0
  7  8  2  0  0  0
  7 19  1  0  0  0
 19 20  1  0  0  0
 20 21  1  0  0  0
 20 29  1  0  0  0
 21 22  2  0  0  0
 21 23  1  0  0  0
 23 24  1  0  0  0
 24 25  1  0  0  0
 24 28  1  0  0  0
 24 29  1  0  0  0
 25 26  1  0  0  0
 26 27  1  0  0  0
 27 28  1  0  0  0
 29 30  2  0  0  0
 12 13  2  0  0  0
 12 17  1  0  0  0
 13 14  1  0  0  0
 14 15  2  0  0  0
 15 16  1  0  0  0
 15 18  1  0  0  0
 16 17  2  0  0  0
 23 31  1  0  0  0
M  END
> <minimizedAffinity>
-10.25657

$$$$
1044


 30 33  0  0  0  0  0  0  0  0999 V2000
   20.9900   77.7833   17.3724 S   0  0  0  0  0  0  0  0  0  0  0  0
   22.4461   77.7067   17.6184 O   0  0  0  0  0  0  0  0  0  0  0  0
   20.3289   76.7787   18.3081 O   0  0  0  0  0  0  0  0  0  0  0  0
   20.5808   77.2506   15.7458 C   0  0  0  0  0  0  0  0  0  0  0  0
   19.6521   76.2540   15.5269 C   0  0  0  0  0  0  0  0  0  0  0  0
   19.3093   75.8149   14.2643 C   0  0  0  0  0  0  0  0  0  0  0  0
   19.9001   76.3718   13.1488 C   0  0  0  0  0  0  0  0  0  0  0  0
   20.8334   77.3741   13.3650 C   0  0  0  0  0  0  0  0  0  0  0  0
   21.1710   77.8083   14.6298 C   0  0  0  0  0  0  0  0  0  0  0  0
   19.5751   75.9494   11.8610 O   0  0  0  0  0  0  0  0  0  0  0  0
   18.8329   74.7799   11.5726 C   0  0  0  0  0  0  0  0  0  0  0  0
   18.0088   74.3418   12.7273 C   0  0  0  0  0  0  0  0  0  0  0  0
   17.0334   73.5868   12.4847 O   0  0  0  0  0  0  0  0  0  0  0  0
   18.3541   74.7872   14.0342 N   0  0  0  0  0  0  0  0  0  0  0  0
   17.8988   74.3561   14.8664 H   0  0  0  0  0  0  0  0  0  0  0  0
   20.3040   79.2976   17.6821 N   0  0  0  0  0  0  0  0  0  0  0  0
   20.7869   80.3890   16.9582 C   0  0  0  0  0  0  0  0  0  0  0  0
   20.6363   81.7314   17.5812 C   0  0  0  0  0  0  0  0  0  0  0  0
   20.5759   81.7251   19.0086 N   0  0  0  0  0  0  0  0  0  0  0  0
   20.6729   80.4633   19.7099 C   0  0  0  0  0  0  0  0  0  0  0  0
   19.7527   79.5036   18.9587 C   0  0  0  0  0  0  0  0  0  0  0  0
   20.4236   82.9104   19.7674 C   0  0  0  0  0  0  0  0  0  0  0  0
   20.3346   84.0433   19.1943 O   0  0  0  0  0  0  0  0  0  0  0  0
   20.3596   82.9226   21.2232 C   0  0  0  0  0  0  0  0  0  0  0  0
   19.3502   83.5673   21.9138 C   0  0  0  0  0  0  0  0  0  0  0  0
   19.2791   83.5850   23.2875 C   0  0  0  0  0  0  0  0  0  0  0  0
   20.2689   82.9240   23.9982 C   0  0  0  0  0  0  0  0  0  0  0  0
   21.2965   82.2656   23.3646 C   0  0  0  0  0  0  0  0  0  0  0  0
   21.3228   82.2781   21.9875 C   0  0  0  0  0  0  0  0  0  0  0  0
   18.0214   84.4563   20.8691 Br  0  0  0  0  0  0  0  0  0  0  0  0
  1  2  2  0  0  0
  1  3  2  0  0  0
  1 16  1  0  0  0
  1  4  1  0  0  0
 16 17  1  0  0  0
 16 21  1  0  0  0
 17 18  1  0  0  0
 18 19  1  0  0  0
 19 20  1  0  0  0
 19 22  1  0  0  0
 20 21  1  0  0  0
 22 23  2  0  0  0
 22 24  1  0  0  0
 24 25  2  0  0  0
 24 29  1  0  0  0
 25 26  1  0  0  0
 25 30  1  0  0  0
 26 27  2  0  0  0
 27 28  1  0  0  0
 28 29  2  0  0  0
  4  5  2  0  0  0
  4  9  1  0  0  0
  5  6  1  0  0  0
  6  7  2  0  0  0
  6 14  1  0  0  0
  7  8  1  0  0  0
  7 10  1  0  0  0
  8  9  2  0  0  0
 10 11  1  0  0  0
 11 12  1  0  0  0
 12 13  2  0  0  0
 12 14  1  0  0  0
 14 15  1  0  0  0
M  END
> <minimizedAffinity>
-11.38187

$$$$
1051


 27 30  0  0  0  0  0  0  0  0999 V2000
   21.3856   79.9285   18.3723 N   0  0  0  0  0  0  0  0  0  0  0  0
   21.5122   80.7163   17.2021 C   0  0  0  0  0  0  0  0  0  0  0  0
   21.6496   79.9814   15.9127 C   0  0  0  0  0  0  0  0  0  0  0  0
   22.3779   78.7454   16.0173 N   0  0  0  0  0  0  0  0  0  0  0  0
   22.8877   78.4058   17.3269 C   0  0  0  0  0  0  0  0  0  0  0  0
   21.6974   78.5447   18.2536 C   0  0  0  0  0  0  0  0  0  0  0  0
   22.6190   77.8699   14.9422 C   0  0  0  0  0  0  0  0  0  0  0  0
   23.2643   76.8152   15.1301 O   0  0  0  0  0  0  0  0  0  0  0  0
   22.1220   78.1817   13.6062 C   0  0  0  0  0  0  0  0  0  0  0  0
   20.9824   77.7468   13.0783 N   0  0  0  0  0  0  0  0  0  0  0  0
   20.8334   78.2203   11.8391 N   0  0  0  0  0  0  0  0  0  0  0  0
   21.8977   78.9929   11.5234 C   0  0  0  0  0  0  0  0  0  0  0  0
   22.7215   78.9667   12.6546 C   0  0  0  0  0  0  0  0  0  0  0  0
   22.0086   79.6042   10.3173 N   0  0  0  0  0  0  0  0  0  0  0  0
   21.0204   79.4395    9.3909 C   0  0  0  0  0  0  0  0  0  0  0  0
   19.9229   78.6592    9.6833 C   0  0  0  0  0  0  0  0  0  0  0  0
   19.8573   78.0593   10.9209 C   0  0  0  0  0  0  0  0  0  0  0  0
   18.5315   78.4286    8.3753 Br  0  0  0  0  0  0  0  0  0  0  0  0
   19.8618   80.0813   19.1592 S   0  0  0  0  0  0  0  0  0  0  0  0
   19.5868   78.8698   19.9903 O   0  0  0  0  0  0  0  0  0  0  0  0
   18.8132   80.1535   18.0573 O   0  0  0  0  0  0  0  0  0  0  0  0
   19.7897   81.4989   20.1756 C   0  0  0  0  0  0  0  0  0  0  0  0
   18.7982   82.4528   20.2094 C   0  0  0  0  0  0  0  0  0  0  0  0
   19.0994   83.3826   21.1167 N   0  0  0  0  0  0  0  0  0  0  0  0
   20.2520   83.0652   21.6738 N   0  0  0  0  0  0  0  0  0  0  0  0
   20.7195   81.9131   21.1293 C   0  0  0  0  0  0  0  0  0  0  0  0
   18.3287   84.5475   21.4619 C   0  0  0  0  0  0  0  0  0  0  0  0
 19 20  2  0  0  0
 19 21  2  0  0  0
 19  1  1  0  0  0
 19 22  1  0  0  0
  1  2  1  0  0  0
  1  6  1  0  0  0
  2  3  1  0  0  0
  3  4  1  0  0  0
  4  5  1  0  0  0
  4  7  1  0  0  0
  5  6  1  0  0  0
  7  8  2  0  0  0
  7  9  1  0  0  0
  9 10  2  0  0  0
  9 13  1  0  0  0
 10 11  1  0  0  0
 11 12  1  0  0  0
 11 17  1  0  0  0
 12 13  2  0  0  0
 12 14  1  0  0  0
 14 15  2  0  0  0
 15 16  1  0  0  0
 16 17  2  0  0  0
 16 18  1  0  0  0
 22 23  2  0  0  0
 22 26  1  0  0  0
 23 24  1  0  0  0
 24 25  1  0  0  0
 24 27  1  0  0  0
 25 26  2  0  0  0
M  END
> <minimizedAffinity>
-9.40829

$$$$
1056


 30 33  0  0  0  0  0  0  0  0999 V2000
   23.6207   77.8201   17.0507 N   0  0  0  0  0  0  0  0  0  0  0  0
   22.4979   76.9959   17.2886 C   0  0  0  0  0  0  0  0  0  0  0  0
   21.1690   77.6265   17.2177 C   0  0  0  0  0  0  0  0  0  0  0  0
   21.1649   78.9422   17.7840 N   0  0  0  0  0  0  0  0  0  0  0  0
   22.3624   79.4516   18.3881 C   0  0  0  0  0  0  0  0  0  0  0  0
   23.6075   79.1148   17.6288 C   0  0  0  0  0  0  0  0  0  0  0  0
   20.0016   79.7370   17.7534 C   0  0  0  0  0  0  0  0  0  0  0  0
   18.9664   79.2761   17.2212 O   0  0  0  0  0  0  0  0  0  0  0  0
   19.9255   81.0819   18.3096 C   0  0  0  0  0  0  0  0  0  0  0  0
   20.3420   82.1632   17.5549 C   0  0  0  0  0  0  0  0  0  0  0  0
   20.2720   83.4024   18.0652 N   0  0  0  0  0  0  0  0  0  0  0  0
   19.8028   83.6493   19.3075 C   0  0  0  0  0  0  0  0  0  0  0  0
   19.3897   82.6206   20.0675 N   0  0  0  0  0  0  0  0  0  0  0  0
   18.9157   82.8649   21.3218 C   0  0  0  0  0  0  0  0  0  0  0  0
   18.8472   84.1422   21.8392 C   0  0  0  0  0  0  0  0  0  0  0  0
   19.2677   85.2176   21.0740 C   0  0  0  0  0  0  0  0  0  0  0  0
   19.7417   84.9443   19.8108 C   0  0  0  0  0  0  0  0  0  0  0  0
   18.3378   84.4477   23.1992 C   0  0  0  0  0  0  0  0  0  0  0  0
   19.4497   81.3545   19.5761 C   0  0  0  0  0  0  0  0  0  0  0  0
   19.0676   80.4063   20.2784 O   0  0  0  0  0  0  0  0  0  0  0  0
   24.3477   77.6845   15.5292 S   0  0  0  0  0  0  0  0  0  0  0  0
   25.7453   78.1960   15.5713 O   0  0  0  0  0  0  0  0  0  0  0  0
   24.3836   76.2258   15.1447 O   0  0  0  0  0  0  0  0  0  0  0  0
   23.4060   78.5384   14.3364 C   0  0  0  0  0  0  0  0  0  0  0  0
   22.4035   77.8877   13.6482 C   0  0  0  0  0  0  0  0  0  0  0  0
   21.6913   78.6290   12.7111 C   0  0  0  0  0  0  0  0  0  0  0  0
   21.9594   79.9508   12.4680 C   0  0  0  0  0  0  0  0  0  0  0  0
   22.9701   80.5957   13.1662 C   0  0  0  0  0  0  0  0  0  0  0  0
   23.6987   79.8684   14.1135 C   0  0  0  0  0  0  0  0  0  0  0  0
   20.2966   77.7888   11.7288 Br  0  0  0  0  0  0  0  0  0  0  0  0
 21 22  2  0  0  0
 21 23  2  0  0  0
 21  1  1  0  0  0
 21 24  1  0  0  0
  1  2  1  0  0  0
  1  6  1  0  0  0
  2  3  1  0  0  0
  3  4  1  0  0  0
  4  5  1  0  0  0
  4  7  1  0  0  0
  5  6  1  0  0  0
  7  8  2  0  0  0
  7  9  1  0  0  0
  9 10  2  0  0  0
  9 19  1  0  0  0
 10 11  1  0  0  0
 11 12  2  0  0  0
 12 13  1  0  0  0
 12 17  1  0  0  0
 13 14  1  0  0  0
 13 19  1  0  0  0
 14 15  2  0  0  0
 15 16  1  0  0  0
 15 18  1  0  0  0
 16 17  2  0  0  0
 19 20  2  0  0  0
 24 25  2  0  0  0
 24 29  1  0  0  0
 25 26  1  0  0  0
 26 27  2  0  0  0
 26 30  1  0  0  0
 27 28  1  0  0  0
 28 29  2  0  0  0
M  END
> <minimizedAffinity>
-9.80480

$$$$
1061


 30 34  0  0  0  0  0  0  0  0999 V2000
   20.8803   79.2470    9.6242 N   0  0  0  0  0  0  0  0  0  0  0  0
   20.9876   80.6485    9.9335 C   0  0  0  0  0  0  0  0  0  0  0  0
   22.1525   80.9288   10.8549 C   0  0  0  0  0  0  0  0  0  0  0  0
   22.0506   80.0860   12.0727 N   0  0  0  0  0  0  0  0  0  0  0  0
   22.1779   78.6973   11.6547 C   0  0  0  0  0  0  0  0  0  0  0  0
   21.9775   78.5026   10.1619 C   0  0  0  0  0  0  0  0  0  0  0  0
   19.3483   78.5667    9.7228 S   0  0  0  0  0  0  0  0  0  0  0  0
   19.2192   77.8996   11.0862 O   0  0  0  0  0  0  0  0  0  0  0  0
   18.3363   79.7118    9.7810 O   0  0  0  0  0  0  0  0  0  0  0  0
   18.8626   77.5216    8.4496 C   0  0  0  0  0  0  0  0  0  0  0  0
   19.4879   76.3144    8.2527 C   0  0  0  0  0  0  0  0  0  0  0  0
   19.0627   75.4940    7.2231 C   0  0  0  0  0  0  0  0  0  0  0  0
   18.0263   75.8415    6.3759 C   0  0  0  0  0  0  0  0  0  0  0  0
   17.4015   77.0542    6.5776 C   0  0  0  0  0  0  0  0  0  0  0  0
   17.8295   77.8781    7.6126 C   0  0  0  0  0  0  0  0  0  0  0  0
   17.4405   74.7130    4.9551 Br  0  0  0  0  0  0  0  0  0  0  0  0
   23.2108   80.4653   12.8501 C   0  0  0  0  0  0  0  0  0  0  0  0
   23.6979   79.5209   13.8648 C   0  0  0  0  0  0  0  0  0  0  0  0
   22.8806   79.2016   14.9857 N   0  0  0  0  0  0  0  0  0  0  0  0
   22.0479   80.0258   15.7935 C   0  0  0  0  0  0  0  0  0  0  0  0
   22.1940   81.2451   15.9629 O   0  0  0  0  0  0  0  0  0  0  0  0
   20.9839   79.1865   16.3951 C   0  0  0  0  0  0  0  0  0  0  0  0
   21.7213   77.8314   16.4936 C   0  0  0  0  0  0  0  0  0  0  0  0
   22.1955   77.7371   17.8948 C   0  0  0  0  0  0  0  0  0  0  0  0
   22.2570   79.2150   18.3163 C   0  0  0  0  0  0  0  0  0  0  0  0
   20.8251   79.5116   17.8371 C   0  0  0  0  0  0  0  0  0  0  0  0
   20.1211   78.3451   18.4678 C   0  0  0  0  0  0  0  0  0  0  0  0
   20.9867   77.3653   18.7281 C   0  0  0  0  0  0  0  0  0  0  0  0
   22.7475   77.8437   15.4610 C   0  0  0  0  0  0  0  0  0  0  0  0
   23.3857   76.8322   15.0759 O   0  0  0  0  0  0  0  0  0  0  0  0
  7  8  2  0  0  0
  7  9  2  0  0  0
  7  1  1  0  0  0
  7 10  1  0  0  0
  1  2  1  0  0  0
  1  6  1  0  0  0
  2  3  1  0  0  0
  3  4  1  0  0  0
  4  5  1  0  0  0
  4 17  1  0  0  0
  5  6  1  0  0  0
 17 18  1  0  0  0
 18 19  1  0  0  0
 19 20  1  0  0  0
 19 29  1  0  0  0
 20 21  2  0  0  0
 20 22  1  0  0  0
 22 23  1  0  0  0
 22 26  1  0  0  0
 23 24  1  0  0  0
 23 29  1  0  0  0
 24 25  1  0  0  0
 24 28  1  0  0  0
 25 26  1  0  0  0
 26 27  1  0  0  0
 27 28  2  0  0  0
 29 30  2  0  0  0
 10 11  2  0  0  0
 10 15  1  0  0  0
 11 12  1  0  0  0
 12 13  2  0  0  0
 13 14  1  0  0  0
 13 16  1  0  0  0
 14 15  2  0  0  0
M  END
> <minimizedAffinity>
-10.25448

$$$$
1073


 28 31  0  0  0  0  0  0  0  0999 V2000
   20.7980   77.5621   16.5318 N   0  0  0  0  0  0  0  0  0  0  0  0
   20.1945   76.7810   15.5299 C   0  0  0  0  0  0  0  0  0  0  0  0
   20.9714   76.7554   14.2426 C   0  0  0  0  0  0  0  0  0  0  0  0
   21.8824   77.8321   14.0861 N   0  0  0  0  0  0  0  0  0  0  0  0
   22.8033   77.8904   15.1645 C   0  0  0  0  0  0  0  0  0  0  0  0
   22.2031   77.7093   16.5090 C   0  0  0  0  0  0  0  0  0  0  0  0
   20.0278   77.7301   17.9941 S   0  0  0  0  0  0  0  0  0  0  0  0
   18.6307   77.2080   17.9751 O   0  0  0  0  0  0  0  0  0  0  0  0
   20.7884   77.0296   19.0735 O   0  0  0  0  0  0  0  0  0  0  0  0
   19.9376   79.4547   18.4094 C   0  0  0  0  0  0  0  0  0  0  0  0
   20.6529   80.7884   17.6250 S   0  0  0  0  0  0  0  0  0  0  0  0
   20.0831   82.0358   18.6353 C   0  0  0  0  0  0  0  0  0  0  0  0
   19.3381   81.3659   19.5744 C   0  0  0  0  0  0  0  0  0  0  0  0
   19.2677   80.0313   19.4508 C   0  0  0  0  0  0  0  0  0  0  0  0
   20.3911   83.9228   18.5158 Br  0  0  0  0  0  0  0  0  0  0  0  0
   21.2342   79.0292   13.6994 C   0  0  0  0  0  0  0  0  0  0  0  0
   21.4109   79.4567   12.3531 N   0  0  0  0  0  0  0  0  0  0  0  0
   20.6765   78.9504   11.3840 N   0  0  0  0  0  0  0  0  0  0  0  0
   20.7831   79.2930   10.0909 C   0  0  0  0  0  0  0  0  0  0  0  0
   21.7296   80.2396    9.7777 C   0  0  0  0  0  0  0  0  0  0  0  0
   22.5300   80.8073   10.7462 C   0  0  0  0  0  0  0  0  0  0  0  0
   22.3369   80.3813   12.0537 C   0  0  0  0  0  0  0  0  0  0  0  0
   23.0811   80.9114   12.9506 O   0  0  0  0  0  0  0  0  0  0  0  0
   19.9692   78.7234    9.0590 N   0  0  0  0  0  0  0  0  0  0  0  0
   20.3526   78.0465    7.9717 C   0  0  0  0  0  0  0  0  0  0  0  0
   19.2555   77.6962    7.2755 N   0  0  0  0  0  0  0  0  0  0  0  0
   18.1621   78.1486    7.9147 C   0  0  0  0  0  0  0  0  0  0  0  0
   18.6290   78.7952    9.0394 C   0  0  0  0  0  0  0  0  0  0  0  0
  7  8  2  0  0  0
  7  9  2  0  0  0
  7  1  1  0  0  0
  7 10  1  0  0  0
  1  2  1  0  0  0
  1  6  1  0  0  0
  2  3  1  0  0  0
  3  4  1  0  0  0
  4  5  1  0  0  0
  4 16  1  0  0  0
  5  6  1  0  0  0
 16 17  1  0  0  0
 17 18  1  0  0  0
 17 22  1  0  0  0
 18 19  2  0  0  0
 19 20  1  0  0  0
 19 24  1  0  0  0
 20 21  2  0  0  0
 21 22  1  0  0  0
 22 23  2  0  0  0
 24 25  1  0  0  0
 24 28  1  0  0  0
 25 26  2  0  0  0
 26 27  1  0  0  0
 27 28  2  0  0  0
 10 11  1  0  0  0
 10 14  2  0  0  0
 11 12  1  0  0  0
 12 13  2  0  0  0
 12 15  1  0  0  0
 13 14  1  0  0  0
M  END
> <minimizedAffinity>
-9.27144

$$$$
1076


 29 32  0  0  0  0  0  0  0  0999 V2000
   21.6868   78.4819   15.2129 N   0  0  0  0  0  0  0  0  0  0  0  0
   21.4839   77.1207   14.8289 C   0  0  0  0  0  0  0  0  0  0  0  0
   20.3062   76.6153   15.6801 C   0  0  0  0  0  0  0  0  0  0  0  0
   20.2626   77.2443   16.9280 N   0  0  0  0  0  0  0  0  0  0  0  0
   21.5272   77.6380   17.4867 C   0  0  0  0  0  0  0  0  0  0  0  0
   22.3804   78.4180   16.5121 C   0  0  0  0  0  0  0  0  0  0  0  0
   22.7059   79.3605   14.1553 S   0  0  0  0  0  0  0  0  0  0  0  0
   24.1551   78.9881   14.3271 O   0  0  0  0  0  0  0  0  0  0  0  0
   22.5946   80.8188   14.5355 O   0  0  0  0  0  0  0  0  0  0  0  0
   22.2811   79.2119   12.4936 C   0  0  0  0  0  0  0  0  0  0  0  0
   21.0355   79.3767   11.9641 C   0  0  0  0  0  0  0  0  0  0  0  0
   20.7996   79.2338   10.6044 C   0  0  0  0  0  0  0  0  0  0  0  0
   21.8048   78.9225    9.7379 C   0  0  0  0  0  0  0  0  0  0  0  0
   23.0825   78.7489   10.2470 C   0  0  0  0  0  0  0  0  0  0  0  0
   23.3034   78.8921   11.5936 C   0  0  0  0  0  0  0  0  0  0  0  0
   19.0351   79.4706    9.8809 Br  0  0  0  0  0  0  0  0  0  0  0  0
   19.1624   78.0251   17.3115 C   0  0  0  0  0  0  0  0  0  0  0  0
   19.4022   79.2396   18.0219 N   0  0  0  0  0  0  0  0  0  0  0  0
   19.7268   80.4373   17.3351 N   0  0  0  0  0  0  0  0  0  0  0  0
   19.8812   81.4310   18.3448 C   0  0  0  0  0  0  0  0  0  0  0  0
   20.1903   82.6933   18.0744 C   0  0  0  0  0  0  0  0  0  0  0  0
   20.4069   83.9030   18.8999 C   0  0  0  0  0  0  0  0  0  0  0  0
   20.8830   83.5342   20.2846 C   0  0  0  0  0  0  0  0  0  0  0  0
   19.6821   82.9398   20.9985 C   0  0  0  0  0  0  0  0  0  0  0  0
   19.6944   81.4424   20.9557 C   0  0  0  0  0  0  0  0  0  0  0  0
   19.6624   80.8871   19.6370 N   0  0  0  0  0  0  0  0  0  0  0  0
   19.3644   79.5122   19.4151 C   0  0  0  0  0  0  0  0  0  0  0  0
   19.1126   78.7007   20.3402 O   0  0  0  0  0  0  0  0  0  0  0  0
   19.8324   80.5652   16.3009 H   0  0  0  0  0  0  0  0  0  0  0  0
  7  8  2  0  0  0
  7  9  2  0  0  0
  7  1  1  0  0  0
  7 10  1  0  0  0
  1  2  1  0  0  0
  1  6  1  0  0  0
  2  3  1  0  0  0
  3  4  1  0  0  0
  4  5  1  0  0  0
  4 17  1  0  0  0
  5  6  1  0  0  0
 17 18  1  0  0  0
 18 19  1  0  0  0
 18 27  1  0  0  0
 19 20  1  0  0  0
 20 21  2  0  0  0
 20 26  1  0  0  0
 21 22  1  0  0  0
 22 23  1  0  0  0
 23 24  1  0  0  0
 24 25  1  0  0  0
 25 26  1  0  0  0
 26 27  1  0  0  0
 27 28  2  0  0  0
 10 11  2  0  0  0
 10 15  1  0  0  0
 11 12  1  0  0  0
 12 13  2  0  0  0
 12 16  1  0  0  0
 13 14  1  0  0  0
 14 15  2  0  0  0
 19 29  1  0  0  0
M  END
> <minimizedAffinity>
-10.17614

$$$$
1081


 27 30  0  0  0  0  0  0  0  0999 V2000
   23.4100   79.4680   15.5840 N   0  0  0  0  0  0  0  0  0  0  0  0
   24.0027   79.3546   16.8613 C   0  0  0  0  0  0  0  0  0  0  0  0
   23.0960   79.4621   18.0415 C   0  0  0  0  0  0  0  0  0  0  0  0
   21.7070   79.6659   17.7130 N   0  0  0  0  0  0  0  0  0  0  0  0
   21.3653   80.4492   16.5699 C   0  0  0  0  0  0  0  0  0  0  0  0
   22.3140   80.3469   15.4272 C   0  0  0  0  0  0  0  0  0  0  0  0
   20.7306   79.0661   18.5766 C   0  0  0  0  0  0  0  0  0  0  0  0
   20.0458   79.6957   19.5465 N   0  0  0  0  0  0  0  0  0  0  0  0
   19.2693   78.7555   20.0975 N   0  0  0  0  0  0  0  0  0  0  0  0
   19.4683   77.6043   19.4941 N   0  0  0  0  0  0  0  0  0  0  0  0
   20.3675   77.7559   18.5447 N   0  0  0  0  0  0  0  0  0  0  0  0
   20.1275   81.0701   19.8962 C   0  0  0  0  0  0  0  0  0  0  0  0
   19.4994   82.0378   19.1461 C   0  0  0  0  0  0  0  0  0  0  0  0
   19.5981   83.3784   19.5161 C   0  0  0  0  0  0  0  0  0  0  0  0
   20.3166   83.7639   20.6266 C   0  0  0  0  0  0  0  0  0  0  0  0
   20.9561   82.7788   21.3900 C   0  0  0  0  0  0  0  0  0  0  0  0
   20.8463   81.4418   21.0044 C   0  0  0  0  0  0  0  0  0  0  0  0
   23.3565   78.0614   14.6293 S   0  0  0  0  0  0  0  0  0  0  0  0
   22.7534   76.8839   15.2857 O   0  0  0  0  0  0  0  0  0  0  0  0
   24.7918   77.6766   14.2913 O   0  0  0  0  0  0  0  0  0  0  0  0
   22.5541   78.4001   13.1206 C   0  0  0  0  0  0  0  0  0  0  0  0
   23.1654   79.0516   12.0792 C   0  0  0  0  0  0  0  0  0  0  0  0
   22.5120   79.3140   10.8753 C   0  0  0  0  0  0  0  0  0  0  0  0
   21.1857   78.8912   10.7400 C   0  0  0  0  0  0  0  0  0  0  0  0
   20.5620   78.2370   11.7789 C   0  0  0  0  0  0  0  0  0  0  0  0
   21.2374   77.9988   12.9431 C   0  0  0  0  0  0  0  0  0  0  0  0
   20.2287   79.2154    9.1148 Br  0  0  0  0  0  0  0  0  0  0  0  0
 18 19  2  0  0  0
 18 20  2  0  0  0
 18  1  1  0  0  0
 18 21  1  0  0  0
  1  2  1  0  0  0
  1  6  1  0  0  0
  2  3  1  0  0  0
  3  4  1  0  0  0
  4  5  1  0  0  0
  4  7  1  0  0  0
  5  6  1  0  0  0
  7  8  1  0  0  0
  7 11  2  0  0  0
  8  9  1  0  0  0
  8 12  1  0  0  0
  9 10  2  0  0  0
 10 11  1  0  0  0
 12 13  2  0  0  0
 12 17  1  0  0  0
 13 14  1  0  0  0
 14 15  2  0  0  0
 15 16  1  0  0  0
 16 17  2  0  0  0
 21 22  2  0  0  0
 21 26  1  0  0  0
 22 23  1  0  0  0
 23 24  2  0  0  0
 24 25  1  0  0  0
 24 27  1  0  0  0
 25 26  2  0  0  0
M  END
> <minimizedAffinity>
-9.73185

$$$$
1084


 29 32  0  0  0  0  0  0  0  0999 V2000
   20.9350   78.2124   16.1445 N   0  0  0  0  0  0  0  0  0  0  0  0
   20.1260   77.2348   15.4973 C   0  0  0  0  0  0  0  0  0  0  0  0
   20.7377   76.6940   14.2229 C   0  0  0  0  0  0  0  0  0  0  0  0
   21.6082   77.7054   13.6982 N   0  0  0  0  0  0  0  0  0  0  0  0
   22.7411   78.1085   14.4780 C   0  0  0  0  0  0  0  0  0  0  0  0
   22.3532   78.0438   15.9337 C   0  0  0  0  0  0  0  0  0  0  0  0
   21.3457   78.2810   12.4437 C   0  0  0  0  0  0  0  0  0  0  0  0
   20.5289   77.7127   11.5412 N   0  0  0  0  0  0  0  0  0  0  0  0
   20.2435   78.2026   10.3479 C   0  0  0  0  0  0  0  0  0  0  0  0
   20.8309   79.4048    9.9914 C   0  0  0  0  0  0  0  0  0  0  0  0
   21.6754   80.0268   10.8831 C   0  0  0  0  0  0  0  0  0  0  0  0
   21.9117   79.4570   12.0787 N   0  0  0  0  0  0  0  0  0  0  0  0
   22.3267   81.3192   10.5377 C   0  0  0  0  0  0  0  0  0  0  0  0
   19.3647   77.5033    9.4859 N   0  0  0  0  0  0  0  0  0  0  0  0
   18.5232   78.1522    8.5016 C   0  0  0  0  0  0  0  0  0  0  0  0
   18.2128   77.0954    7.4426 C   0  0  0  0  0  0  0  0  0  0  0  0
   19.3991   76.3988    7.2027 O   0  0  0  0  0  0  0  0  0  0  0  0
   19.7314   75.5254    8.2131 C   0  0  0  0  0  0  0  0  0  0  0  0
   19.2917   76.0633    9.5794 C   0  0  0  0  0  0  0  0  0  0  0  0
   20.6579   78.0984   17.8478 S   0  0  0  0  0  0  0  0  0  0  0  0
   19.5084   77.1284   18.0666 O   0  0  0  0  0  0  0  0  0  0  0  0
   21.8790   77.5243   18.5058 O   0  0  0  0  0  0  0  0  0  0  0  0
   20.2219   79.6393   18.5290 C   0  0  0  0  0  0  0  0  0  0  0  0
   20.5530   80.7931   17.8314 C   0  0  0  0  0  0  0  0  0  0  0  0
   20.2401   82.0465   18.3089 C   0  0  0  0  0  0  0  0  0  0  0  0
   19.5835   82.1730   19.5087 C   0  0  0  0  0  0  0  0  0  0  0  0
   19.2369   81.0483   20.2335 C   0  0  0  0  0  0  0  0  0  0  0  0
   19.5668   79.7958   19.7229 C   0  0  0  0  0  0  0  0  0  0  0  0
   19.1579   83.9146   20.1548 Br  0  0  0  0  0  0  0  0  0  0  0  0
 20 21  2  0  0  0
 20 22  2  0  0  0
 20  1  1  0  0  0
 20 23  1  0  0  0
  1  2  1  0  0  0
  1  6  1  0  0  0
  2  3  1  0  0  0
  3  4  1  0  0  0
  4  5  1  0  0  0
  4  7  1  0  0  0
  5  6  1  0  0  0
  7  8  2  0  0  0
  7 12  1  0  0  0
  8  9  1  0  0  0
  9 10  2  0  0  0
  9 14  1  0  0  0
 10 11  1  0  0  0
 11 12  2  0  0  0
 11 13  1  0  0  0
 14 15  1  0  0  0
 14 19  1  0  0  0
 15 16  1  0  0  0
 16 17  1  0  0  0
 17 18  1  0  0  0
 18 19  1  0  0  0
 23 24  2  0  0  0
 23 28  1  0  0  0
 24 25  1  0  0  0
 25 26  2  0  0  0
 26 27  1  0  0  0
 26 29  1  0  0  0
 27 28  2  0  0  0
M  END
> <minimizedAffinity>
-10.18570

$$$$
1089


 25 28  0  0  0  0  0  0  0  0999 V2000
   21.0451   79.2516    9.9173 N   0  0  0  0  0  0  0  0  0  0  0  0
   22.2906   78.6307    9.6819 C   0  0  0  0  0  0  0  0  0  0  0  0
   23.2309   78.5651   10.8597 C   0  0  0  0  0  0  0  0  0  0  0  0
   22.7234   79.2327   12.0169 N   0  0  0  0  0  0  0  0  0  0  0  0
   21.8061   80.3567   11.9517 C   0  0  0  0  0  0  0  0  0  0  0  0
   21.1661   80.4799   10.6000 C   0  0  0  0  0  0  0  0  0  0  0  0
   23.1115   78.7987   13.3134 C   0  0  0  0  0  0  0  0  0  0  0  0
   24.3583   79.1050   13.7804 N   0  0  0  0  0  0  0  0  0  0  0  0
   24.7398   78.7150   14.9970 C   0  0  0  0  0  0  0  0  0  0  0  0
   23.9377   78.0206   15.8025 N   0  0  0  0  0  0  0  0  0  0  0  0
   22.7184   77.7118   15.3664 C   0  0  0  0  0  0  0  0  0  0  0  0
   21.7191   77.0357   15.9401 N   0  0  0  0  0  0  0  0  0  0  0  0
   20.6730   76.9907   15.0682 C   0  0  0  0  0  0  0  0  0  0  0  0
   20.9991   77.6333   13.9464 N   0  0  0  0  0  0  0  0  0  0  0  0
   22.2512   78.0856   14.1052 C   0  0  0  0  0  0  0  0  0  0  0  0
   20.3821   77.7446   13.1208 H   0  0  0  0  0  0  0  0  0  0  0  0
   19.6951   78.3041   10.1859 S   0  0  0  0  0  0  0  0  0  0  0  0
   18.4666   79.2065   10.2162 O   0  0  0  0  0  0  0  0  0  0  0  0
   19.7199   77.5878   11.4868 O   0  0  0  0  0  0  0  0  0  0  0  0
   19.3605   77.1145    8.9242 C   0  0  0  0  0  0  0  0  0  0  0  0
   18.3617   77.2480    7.5499 S   0  0  0  0  0  0  0  0  0  0  0  0
   18.5934   75.6992    6.8825 C   0  0  0  0  0  0  0  0  0  0  0  0
   19.4623   75.1092    7.7686 C   0  0  0  0  0  0  0  0  0  0  0  0
   19.8523   75.8435    8.8165 C   0  0  0  0  0  0  0  0  0  0  0  0
   17.8445   74.9443    5.2966 Br  0  0  0  0  0  0  0  0  0  0  0  0
 17 18  2  0  0  0
 17 19  2  0  0  0
 17  1  1  0  0  0
 17 20  1  0  0  0
  1  2  1  0  0  0
  1  6  1  0  0  0
  2  3  1  0  0  0
  3  4  1  0  0  0
  4  5  1  0  0  0
  4  7  1  0  0  0
  5  6  1  0  0  0
  7  8  2  0  0  0
  7 15  1  0  0  0
  8  9  1  0  0  0
  9 10  2  0  0  0
 10 11  1  0  0  0
 11 12  1  0  0  0
 11 15  2  0  0  0
 12 13  2  0  0  0
 13 14  1  0  0  0
 14 15  1  0  0  0
 20 21  1  0  0  0
 20 24  2  0  0  0
 21 22  1  0  0  0
 22 23  2  0  0  0
 22 25  1  0  0  0
 23 24  1  0  0  0
 14 16  1  0  0  0
M  END
> <minimizedAffinity>
-8.33593

$$$$
1100


 26 29  0  0  0  0  0  0  0  0999 V2000
   21.4031   79.6610   17.8554 N   0  0  0  0  0  0  0  0  0  0  0  0
   20.6251   80.5391   17.0475 C   0  0  0  0  0  0  0  0  0  0  0  0
   19.3302   80.9593   17.7103 C   0  0  0  0  0  0  0  0  0  0  0  0
   19.5877   81.0645   19.1238 N   0  0  0  0  0  0  0  0  0  0  0  0
   19.8898   79.8295   19.8017 C   0  0  0  0  0  0  0  0  0  0  0  0
   20.7221   78.9834   18.9068 C   0  0  0  0  0  0  0  0  0  0  0  0
   19.5544   82.2879   19.8320 C   0  0  0  0  0  0  0  0  0  0  0  0
   19.2515   82.3506   21.1289 C   0  0  0  0  0  0  0  0  0  0  0  0
   19.2076   83.5854   21.8906 C   0  0  0  0  0  0  0  0  0  0  0  0
   18.8998   83.5878   23.1771 C   0  0  0  0  0  0  0  0  0  0  0  0
   19.5011   84.7985   21.2305 N   0  0  0  0  0  0  0  0  0  0  0  0
   19.8236   84.6930   19.8357 C   0  0  0  0  0  0  0  0  0  0  0  0
   19.8505   83.5248   19.1759 N   0  0  0  0  0  0  0  0  0  0  0  0
   20.1814   83.7507   17.9020 N   0  0  0  0  0  0  0  0  0  0  0  0
   20.3720   85.0695   17.7231 C   0  0  0  0  0  0  0  0  0  0  0  0
   20.1484   85.6390   18.9195 N   0  0  0  0  0  0  0  0  0  0  0  0
   19.4976   85.7245   21.6794 H   0  0  0  0  0  0  0  0  0  0  0  0
   22.3160   78.6136   16.8789 S   0  0  0  0  0  0  0  0  0  0  0  0
   21.7897   77.2017   16.8836 O   0  0  0  0  0  0  0  0  0  0  0  0
   23.7194   78.5402   17.4627 O   0  0  0  0  0  0  0  0  0  0  0  0
   22.5010   79.2125   15.2315 C   0  0  0  0  0  0  0  0  0  0  0  0
   21.9365   78.4692   13.8128 S   0  0  0  0  0  0  0  0  0  0  0  0
   22.4799   79.6053   12.6681 C   0  0  0  0  0  0  0  0  0  0  0  0
   23.0997   80.5538   13.4368 C   0  0  0  0  0  0  0  0  0  0  0  0
   23.1089   80.3463   14.7752 C   0  0  0  0  0  0  0  0  0  0  0  0
   22.2909   79.5993   10.7465 Br  0  0  0  0  0  0  0  0  0  0  0  0
 18 19  2  0  0  0
 18 20  2  0  0  0
 18  1  1  0  0  0
 18 21  1  0  0  0
  1  2  1  0  0  0
  1  6  1  0  0  0
  2  3  1  0  0  0
  3  4  1  0  0  0
  4  5  1  0  0  0
  4  7  1  0  0  0
  5  6  1  0  0  0
  7  8  2  0  0  0
  7 13  1  0  0  0
  8  9  1  0  0  0
  9 10  2  0  0  0
  9 11  1  0  0  0
 11 12  1  0  0  0
 12 13  1  0  0  0
 12 16  2  0  0  0
 13 14  1  0  0  0
 14 15  2  0  0  0
 15 16  1  0  0  0
 21 22  1  0  0  0
 21 25  2  0  0  0
 22 23  1  0  0  0
 23 24  2  0  0  0
 23 26  1  0  0  0
 24 25  1  0  0  0
 11 17  1  0  0  0
M  END
> <minimizedAffinity>
-9.27603

$$$$
1101


 26 29  0  0  0  0  0  0  0  0999 V2000
   21.0972   77.1718   16.7113 N   0  0  0  0  0  0  0  0  0  0  0  0
   22.1506   77.5833   17.5600 C   0  0  0  0  0  0  0  0  0  0  0  0
   22.0261   78.9440   18.1489 C   0  0  0  0  0  0  0  0  0  0  0  0
   20.6491   79.2154   18.5915 N   0  0  0  0  0  0  0  0  0  0  0  0
   19.7718   78.0643   18.5699 C   0  0  0  0  0  0  0  0  0  0  0  0
   19.7791   77.5445   17.1449 C   0  0  0  0  0  0  0  0  0  0  0  0
   20.2595   80.5125   18.9974 C   0  0  0  0  0  0  0  0  0  0  0  0
   20.5602   81.5889   18.1717 C   0  0  0  0  0  0  0  0  0  0  0  0
   20.1715   82.8624   18.5824 C   0  0  0  0  0  0  0  0  0  0  0  0
   19.5303   83.0595   19.7268 N   0  0  0  0  0  0  0  0  0  0  0  0
   19.2963   84.3772   19.8376 C   0  0  0  0  0  0  0  0  0  0  0  0
   19.8070   84.9710   18.7417 N   0  0  0  0  0  0  0  0  0  0  0  0
   20.3456   84.0451   17.9674 N   0  0  0  0  0  0  0  0  0  0  0  0
   18.5968   85.0677   20.9688 C   0  0  0  0  0  0  0  0  0  0  0  0
   19.2417   82.0588   20.5108 N   0  0  0  0  0  0  0  0  0  0  0  0
   19.5983   80.7961   20.1578 C   0  0  0  0  0  0  0  0  0  0  0  0
   21.3531   77.4147   15.0465 S   0  0  0  0  0  0  0  0  0  0  0  0
   22.8237   77.1297   14.7666 O   0  0  0  0  0  0  0  0  0  0  0  0
   21.1310   78.8510   14.6767 O   0  0  0  0  0  0  0  0  0  0  0  0
   20.4399   76.3244   14.0388 C   0  0  0  0  0  0  0  0  0  0  0  0
   20.0093   76.6891   12.7704 C   0  0  0  0  0  0  0  0  0  0  0  0
   19.2874   75.8267   11.9753 C   0  0  0  0  0  0  0  0  0  0  0  0
   18.9882   74.5647   12.4629 C   0  0  0  0  0  0  0  0  0  0  0  0
   19.3951   74.1547   13.7178 C   0  0  0  0  0  0  0  0  0  0  0  0
   20.1136   75.0466   14.4795 C   0  0  0  0  0  0  0  0  0  0  0  0
   17.9835   73.3779   11.3438 Br  0  0  0  0  0  0  0  0  0  0  0  0
 17 18  2  0  0  0
 17 19  2  0  0  0
 17  1  1  0  0  0
 17 20  1  0  0  0
  1  2  1  0  0  0
  1  6  1  0  0  0
  2  3  1  0  0  0
  3  4  1  0  0  0
  4  5  1  0  0  0
  4  7  1  0  0  0
  5  6  1  0  0  0
  7  8  2  0  0  0
  7 16  1  0  0  0
  8  9  1  0  0  0
  9 10  1  0  0  0
  9 13  2  0  0  0
 10 11  1  0  0  0
 10 15  1  0  0  0
 11 12  2  0  0  0
 11 14  1  0  0  0
 12 13  1  0  0  0
 15 16  2  0  0  0
 20 21  2  0  0  0
 20 25  1  0  0  0
 21 22  1  0  0  0
 22 23  2  0  0  0
 23 24  1  0  0  0
 23 26  1  0  0  0
 24 25  2  0  0  0
M  END
> <minimizedAffinity>
-10.25239

$$$$
1105


 33 36  0  0  0  0  0  0  0  0999 V2000
   20.0896   78.8802   11.0282 N   0  0  0  0  0  0  0  0  0  0  0  0
   19.2556   79.9760   10.6649 C   0  0  0  0  0  0  0  0  0  0  0  0
   19.9940   81.2588   10.3572 C   0  0  0  0  0  0  0  0  0  0  0  0
   21.1496   80.9986    9.4951 N   0  0  0  0  0  0  0  0  0  0  0  0
   21.9493   79.8805    9.9432 C   0  0  0  0  0  0  0  0  0  0  0  0
   22.9385   79.4819    9.3236 O   0  0  0  0  0  0  0  0  0  0  0  0
   21.4327   79.2870   11.2212 C   0  0  0  0  0  0  0  0  0  0  0  0
   21.3964   81.5287    8.6599 H   0  0  0  0  0  0  0  0  0  0  0  0
   19.8478   77.5837    9.9568 S   0  0  0  0  0  0  0  0  0  0  0  0
   21.0364   77.2576    9.1095 O   0  0  0  0  0  0  0  0  0  0  0  0
   18.7111   77.8898    8.9891 O   0  0  0  0  0  0  0  0  0  0  0  0
   19.3638   76.1249   10.8034 C   0  0  0  0  0  0  0  0  0  0  0  0
   19.3700   76.0303   12.1897 C   0  0  0  0  0  0  0  0  0  0  0  0
   19.0014   74.9042   12.8701 C   0  0  0  0  0  0  0  0  0  0  0  0
   18.5964   73.7886   12.1847 C   0  0  0  0  0  0  0  0  0  0  0  0
   18.5764   73.8467   10.7859 C   0  0  0  0  0  0  0  0  0  0  0  0
   18.9547   74.9957   10.1343 C   0  0  0  0  0  0  0  0  0  0  0  0
   18.0702   72.1917   13.0751 Br  0  0  0  0  0  0  0  0  0  0  0  0
   22.3673   78.3138   11.8226 C   0  0  0  0  0  0  0  0  0  0  0  0
   22.9435   78.8812   13.0652 C   0  0  0  0  0  0  0  0  0  0  0  0
   24.0395   79.4919   12.9507 O   0  0  0  0  0  0  0  0  0  0  0  0
   22.2940   78.7452   14.3301 N   0  0  0  0  0  0  0  0  0  0  0  0
   21.0438   78.0456   14.4475 C   0  0  0  0  0  0  0  0  0  0  0  0
   20.8349   77.3818   15.7729 C   0  0  0  0  0  0  0  0  0  0  0  0
   21.4645   78.0728   16.8847 N   0  0  0  0  0  0  0  0  0  0  0  0
   22.8718   78.3816   16.6809 C   0  0  0  0  0  0  0  0  0  0  0  0
   22.9111   79.3224   15.4954 C   0  0  0  0  0  0  0  0  0  0  0  0
   20.8340   78.4261   18.0853 C   0  0  0  0  0  0  0  0  0  0  0  0
   20.6019   77.4589   19.0379 C   0  0  0  0  0  0  0  0  0  0  0  0
   19.9652   77.8087   20.2187 C   0  0  0  0  0  0  0  0  0  0  0  0
   19.5490   79.0891   20.4868 C   0  0  0  0  0  0  0  0  0  0  0  0
   19.7835   80.0518   19.5323 C   0  0  0  0  0  0  0  0  0  0  0  0
   20.4199   79.7092   18.3482 C   0  0  0  0  0  0  0  0  0  0  0  0
  9 10  2  0  0  0
  9 11  2  0  0  0
  9  1  1  0  0  0
  9 12  1  0  0  0
  1  2  1  0  0  0
  1  7  1  0  0  0
  2  3  1  0  0  0
  3  4  1  0  0  0
  4  5  1  0  0  0
  5  6  2  0  0  0
  5  7  1  0  0  0
  7 19  1  0  0  0
 19 20  1  0  0  0
 20 21  2  0  0  0
 20 22  1  0  0  0
 22 23  1  0  0  0
 22 27  1  0  0  0
 23 24  1  0  0  0
 24 25  1  0  0  0
 25 26  1  0  0  0
 25 28  1  0  0  0
 26 27  1  0  0  0
 28 29  2  0  0  0
 28 33  1  0  0  0
 29 30  1  0  0  0
 30 31  2  0  0  0
 31 32  1  0  0  0
 32 33  2  0  0  0
 12 13  2  0  0  0
 12 17  1  0  0  0
 13 14  1  0  0  0
 14 15  2  0  0  0
 15 16  1  0  0  0
 15 18  1  0  0  0
 16 17  2  0  0  0
  4  8  1  0  0  0
M  END
> <minimizedAffinity>
-9.19115

$$$$
1112


 32 35  0  0  0  0  0  0  0  0999 V2000
   22.9732   78.0518   16.0073 C   0  0  0  0  0  0  0  0  0  0  0  0
   21.6381   78.9086   12.0149 C   0  0  0  0  0  0  0  0  0  0  0  0
   22.6581   79.6259   12.5699 C   0  0  0  0  0  0  0  0  0  0  0  0
   23.1110   79.3686   13.8605 C   0  0  0  0  0  0  0  0  0  0  0  0
   22.5536   78.3875   14.6250 C   0  0  0  0  0  0  0  0  0  0  0  0
   21.5191   77.6551   14.0694 C   0  0  0  0  0  0  0  0  0  0  0  0
   21.0709   77.9119   12.7867 C   0  0  0  0  0  0  0  0  0  0  0  0
   21.0410   79.2059   10.3891 S   0  0  0  0  0  0  0  0  0  0  0  0
   20.5720   80.6110   10.2276 O   0  0  0  0  0  0  0  0  0  0  0  0
   22.2251   79.0197    9.4620 O   0  0  0  0  0  0  0  0  0  0  0  0
   19.8432   78.0819    9.9207 N   0  0  0  0  0  0  0  0  0  0  0  0
   20.3776   76.9346    9.2352 C   0  0  0  0  0  0  0  0  0  0  0  0
   19.2098   76.2970    8.4768 C   0  0  0  0  0  0  0  0  0  0  0  0
   18.8820   77.0522    7.3718 O   0  0  0  0  0  0  0  0  0  0  0  0
   19.2775   78.3831    7.5950 C   0  0  0  0  0  0  0  0  0  0  0  0
   18.8924   78.7183    9.0282 C   0  0  0  0  0  0  0  0  0  0  0  0
   22.0694   77.1735   16.6404 O   0  0  0  0  0  0  0  0  0  0  0  0
   21.2092   77.5223   17.6527 C   0  0  0  0  0  0  0  0  0  0  0  0
   21.4813   77.1933   18.8240 O   0  0  0  0  0  0  0  0  0  0  0  0
   19.9851   78.2694   17.3753 C   0  0  0  0  0  0  0  0  0  0  0  0
   19.9533   79.5694   17.9781 N   0  0  0  0  0  0  0  0  0  0  0  0
   19.3666   79.8224   19.2612 C   0  0  0  0  0  0  0  0  0  0  0  0
   18.8183   78.9608   20.0063 O   0  0  0  0  0  0  0  0  0  0  0  0
   19.5027   81.2396   19.5763 C   0  0  0  0  0  0  0  0  0  0  0  0
   20.1467   81.8596   18.5378 C   0  0  0  0  0  0  0  0  0  0  0  0
   20.4048   83.2164   18.5816 C   0  0  0  0  0  0  0  0  0  0  0  0
   20.0212   83.9778   19.6692 C   0  0  0  0  0  0  0  0  0  0  0  0
   19.3716   83.3671   20.7213 C   0  0  0  0  0  0  0  0  0  0  0  0
   19.1259   82.0115   20.6513 C   0  0  0  0  0  0  0  0  0  0  0  0
   18.8218   84.3756   22.2428 Br  0  0  0  0  0  0  0  0  0  0  0  0
   20.4355   80.8246   17.5297 C   0  0  0  0  0  0  0  0  0  0  0  0
   21.0161   80.9954   16.4349 O   0  0  0  0  0  0  0  0  0  0  0  0
  8  9  2  0  0  0
  8 10  2  0  0  0
  8 11  1  0  0  0
  8  2  1  0  0  0
 11 12  1  0  0  0
 11 16  1  0  0  0
 12 13  1  0  0  0
 13 14  1  0  0  0
 14 15  1  0  0  0
 15 16  1  0  0  0
  2  3  2  0  0  0
  2  7  1  0  0  0
  3  4  1  0  0  0
  4  5  2  0  0  0
  5  6  1  0  0  0
  5  1  1  0  0  0
  6  7  2  0  0  0
  1 17  1  0  0  0
 17 18  1  0  0  0
 18 19  2  0  0  0
 18 20  1  0  0  0
 20 21  1  0  0  0
 21 22  1  0  0  0
 21 31  1  0  0  0
 22 23  2  0  0  0
 22 24  1  0  0  0
 24 25  2  0  0  0
 24 29  1  0  0  0
 25 26  1  0  0  0
 25 31  1  0  0  0
 26 27  2  0  0  0
 27 28  1  0  0  0
 28 29  2  0  0  0
 28 30  1  0  0  0
 31 32  2  0  0  0
M  END
> <minimizedAffinity>
-10.51540

$$$$
1113


 28 31  0  0  0  0  0  0  0  0999 V2000
   20.5506   79.0398   18.5784 C   0  0  0  0  0  0  0  0  0  0  0  0
   20.4649   77.7087   18.7401 N   0  0  0  0  0  0  0  0  0  0  0  0
   21.5936   77.1337   18.2523 C   0  0  0  0  0  0  0  0  0  0  0  0
   22.4078   78.0911   17.7762 N   0  0  0  0  0  0  0  0  0  0  0  0
   21.7913   79.2481   17.9669 C   0  0  0  0  0  0  0  0  0  0  0  0
   19.3781   80.2562   19.0284 S   0  0  0  0  0  0  0  0  0  0  0  0
   18.4864   80.5104   17.8197 O   0  0  0  0  0  0  0  0  0  0  0  0
   18.4520   79.6945   20.0888 O   0  0  0  0  0  0  0  0  0  0  0  0
   20.0419   81.7170   19.5106 N   0  0  0  0  0  0  0  0  0  0  0  0
   20.2432   82.7135   18.5436 C   0  0  0  0  0  0  0  0  0  0  0  0
   19.7874   84.0521   19.0445 C   0  0  0  0  0  0  0  0  0  0  0  0
   20.4750   84.3175   20.2159 O   0  0  0  0  0  0  0  0  0  0  0  0
   20.1194   83.4604   21.2497 C   0  0  0  0  0  0  0  0  0  0  0  0
   20.0893   82.0297   20.8727 C   0  0  0  0  0  0  0  0  0  0  0  0
   23.7057   77.8515   17.1789 C   0  0  0  0  0  0  0  0  0  0  0  0
   23.7396   78.2718   15.7580 C   0  0  0  0  0  0  0  0  0  0  0  0
   24.4674   77.6685   14.7816 N   0  0  0  0  0  0  0  0  0  0  0  0
   24.2523   78.3021   13.6689 O   0  0  0  0  0  0  0  0  0  0  0  0
   23.4212   79.2988   13.8396 C   0  0  0  0  0  0  0  0  0  0  0  0
   23.0996   79.2773   15.1583 N   0  0  0  0  0  0  0  0  0  0  0  0
   22.9154   80.2699   12.8226 C   0  0  0  0  0  0  0  0  0  0  0  0
   22.1561   79.4795   11.8140 C   0  0  0  0  0  0  0  0  0  0  0  0
   22.5638   79.5354   10.4904 C   0  0  0  0  0  0  0  0  0  0  0  0
   21.9253   78.8418    9.4964 C   0  0  0  0  0  0  0  0  0  0  0  0
   20.8482   78.0690    9.8357 C   0  0  0  0  0  0  0  0  0  0  0  0
   20.4086   77.9813   11.1201 C   0  0  0  0  0  0  0  0  0  0  0  0
   21.0765   78.6971   12.1099 C   0  0  0  0  0  0  0  0  0  0  0  0
   19.9333   77.0888    8.4786 Br  0  0  0  0  0  0  0  0  0  0  0  0
  6  7  2  0  0  0
  6  8  2  0  0  0
  6  9  1  0  0  0
  6  1  1  0  0  0
  9 10  1  0  0  0
  9 14  1  0  0  0
 10 11  1  0  0  0
 11 12  1  0  0  0
 12 13  1  0  0  0
 13 14  1  0  0  0
  1  2  1  0  0  0
  1  5  2  0  0  0
  2  3  2  0  0  0
  3  4  1  0  0  0
  4  5  1  0  0  0
  4 15  1  0  0  0
 15 16  1  0  0  0
 16 17  2  0  0  0
 16 20  1  0  0  0
 17 18  1  0  0  0
 18 19  1  0  0  0
 19 20  2  0  0  0
 19 21  1  0  0  0
 21 22  1  0  0  0
 22 23  2  0  0  0
 22 27  1  0  0  0
 23 24  1  0  0  0
 24 25  2  0  0  0
 25 26  1  0  0  0
 25 28  1  0  0  0
 26 27  2  0  0  0
M  END
> <minimizedAffinity>
-9.22401

$$$$
1114


 27 30  0  0  0  0  0  0  0  0999 V2000
   21.8607   78.1445   14.4387 C   0  0  0  0  0  0  0  0  0  0  0  0
   20.8533   77.2732   14.2546 N   0  0  0  0  0  0  0  0  0  0  0  0
   20.4542   76.8204   15.4576 C   0  0  0  0  0  0  0  0  0  0  0  0
   21.1850   77.3793   16.4333 N   0  0  0  0  0  0  0  0  0  0  0  0
   22.0507   78.1941   15.8092 C   0  0  0  0  0  0  0  0  0  0  0  0
   22.7492   79.0343   13.1958 S   0  0  0  0  0  0  0  0  0  0  0  0
   22.6333   80.4978   13.5288 O   0  0  0  0  0  0  0  0  0  0  0  0
   24.2016   78.6825   13.2235 O   0  0  0  0  0  0  0  0  0  0  0  0
   22.0703   78.7745   11.6479 N   0  0  0  0  0  0  0  0  0  0  0  0
   23.0141   78.7122   10.5948 C   0  0  0  0  0  0  0  0  0  0  0  0
   22.5972   79.2953    9.2849 C   0  0  0  0  0  0  0  0  0  0  0  0
   21.2138   79.0421    9.1374 O   0  0  0  0  0  0  0  0  0  0  0  0
   20.6033   79.9336   10.0247 C   0  0  0  0  0  0  0  0  0  0  0  0
   20.8614   79.4772   11.4165 C   0  0  0  0  0  0  0  0  0  0  0  0
   21.0564   77.1458   17.8571 C   0  0  0  0  0  0  0  0  0  0  0  0
   20.4022   78.2705   18.5641 C   0  0  0  0  0  0  0  0  0  0  0  0
   19.2942   78.1592   19.3208 N   0  0  0  0  0  0  0  0  0  0  0  0
   18.9926   79.3327   19.7883 O   0  0  0  0  0  0  0  0  0  0  0  0
   19.8474   80.2308   19.3811 C   0  0  0  0  0  0  0  0  0  0  0  0
   20.7308   79.5702   18.6153 N   0  0  0  0  0  0  0  0  0  0  0  0
   19.8079   81.6543   19.7198 C   0  0  0  0  0  0  0  0  0  0  0  0
   19.4656   82.0963   20.9807 C   0  0  0  0  0  0  0  0  0  0  0  0
   19.4328   83.4546   21.2880 C   0  0  0  0  0  0  0  0  0  0  0  0
   19.7429   84.4042   20.3405 C   0  0  0  0  0  0  0  0  0  0  0  0
   20.0856   83.9658   19.0798 C   0  0  0  0  0  0  0  0  0  0  0  0
   20.1170   82.6028   18.7740 C   0  0  0  0  0  0  0  0  0  0  0  0
   18.9551   84.0458   23.0425 Br  0  0  0  0  0  0  0  0  0  0  0  0
  6  7  2  0  0  0
  6  8  2  0  0  0
  6  9  1  0  0  0
  6  1  1  0  0  0
  9 10  1  0  0  0
  9 14  1  0  0  0
 10 11  1  0  0  0
 11 12  1  0  0  0
 12 13  1  0  0  0
 13 14  1  0  0  0
  1  2  1  0  0  0
  1  5  2  0  0  0
  2  3  2  0  0  0
  3  4  1  0  0  0
  4  5  1  0  0  0
  4 15  1  0  0  0
 15 16  1  0  0  0
 16 17  2  0  0  0
 16 20  1  0  0  0
 17 18  1  0  0  0
 18 19  1  0  0  0
 19 20  2  0  0  0
 19 21  1  0  0  0
 21 22  2  0  0  0
 21 26  1  0  0  0
 22 23  1  0  0  0
 23 24  2  0  0  0
 23 27  1  0  0  0
 24 25  1  0  0  0
 25 26  2  0  0  0
M  END
> <minimizedAffinity>
-9.90300

$$$$
1130


 29 32  0  0  0  0  0  0  0  0999 V2000
   20.3738   78.0115   10.9959 C   0  0  0  0  0  0  0  0  0  0  0  0
   21.5553   78.6382   10.8618 N   0  0  0  0  0  0  0  0  0  0  0  0
   22.4296   78.7778   11.8453 N   0  0  0  0  0  0  0  0  0  0  0  0
   22.1746   78.2840   13.0758 C   0  0  0  0  0  0  0  0  0  0  0  0
   20.9667   77.6366   13.2378 C   0  0  0  0  0  0  0  0  0  0  0  0
   20.9381   77.2373   14.5251 N   0  0  0  0  0  0  0  0  0  0  0  0
   22.0588   77.5997   15.1700 C   0  0  0  0  0  0  0  0  0  0  0  0
   22.8659   78.2689   14.2754 C   0  0  0  0  0  0  0  0  0  0  0  0
   24.1076   78.7796   14.6227 C   0  0  0  0  0  0  0  0  0  0  0  0
   24.5173   78.5912   15.9309 C   0  0  0  0  0  0  0  0  0  0  0  0
   23.7282   77.9264   16.8470 C   0  0  0  0  0  0  0  0  0  0  0  0
   22.5014   77.4277   16.4809 C   0  0  0  0  0  0  0  0  0  0  0  0
   26.2297   79.2965   16.4103 Br  0  0  0  0  0  0  0  0  0  0  0  0
   19.8236   76.5123   15.1029 C   0  0  0  0  0  0  0  0  0  0  0  0
   20.0806   77.5059   12.2061 N   0  0  0  0  0  0  0  0  0  0  0  0
   19.2317   77.8602    9.6064 S   0  0  0  0  0  0  0  0  0  0  0  0
   19.4568   76.2190    8.8700 C   0  0  0  0  0  0  0  0  0  0  0  0
   18.8488   76.2256    7.5082 C   0  0  0  0  0  0  0  0  0  0  0  0
   18.7098   77.3116    6.8604 O   0  0  0  0  0  0  0  0  0  0  0  0
   18.4068   75.0373    6.8906 N   0  0  0  0  0  0  0  0  0  0  0  0
   18.5135   74.1394    7.4095 H   0  0  0  0  0  0  0  0  0  0  0  0
   17.8309   75.0451    5.5972 C   0  0  0  0  0  0  0  0  0  0  0  0
   18.4283   75.3178    4.4254 N   0  0  0  0  0  0  0  0  0  0  0  0
   17.5722   75.2241    3.4454 O   0  0  0  0  0  0  0  0  0  0  0  0
   16.4328   74.8972    3.9531 N   0  0  0  0  0  0  0  0  0  0  0  0
   16.5051   74.7665    5.2838 C   0  0  0  0  0  0  0  0  0  0  0  0
   15.4480   74.4192    6.1525 N   0  0  0  0  0  0  0  0  0  0  0  0
   15.6536   73.8767    7.0122 H   0  0  0  0  0  0  0  0  0  0  0  0
   14.4595   74.6859    5.9689 H   0  0  0  0  0  0  0  0  0  0  0  0
 16 17  1  0  0  0
 16  1  1  0  0  0
 17 18  1  0  0  0
 18 19  2  0  0  0
 18 20  1  0  0  0
 20 22  1  0  0  0
 22 23  2  0  0  0
 22 26  1  0  0  0
 23 24  1  0  0  0
 24 25  1  0  0  0
 25 26  2  0  0  0
 26 27  1  0  0  0
  1  2  2  0  0  0
  1 15  1  0  0  0
  2  3  1  0  0  0
  3  4  2  0  0  0
  4  5  1  0  0  0
  4  8  1  0  0  0
  5  6  1  0  0  0
  5 15  2  0  0  0
  6  7  1  0  0  0
  6 14  1  0  0  0
  7  8  2  0  0  0
  7 12  1  0  0  0
  8  9  1  0  0  0
  9 10  2  0  0  0
 10 11  1  0  0  0
 10 13  1  0  0  0
 11 12  2  0  0  0
 20 21  1  0  0  0
 27 28  1  0  0  0
 27 29  1  0  0  0
M  END
> <minimizedAffinity>
-9.94216

$$$$
1133


 35 38  0  0  0  0  0  0  0  0999 V2000
   21.4666   78.6181   12.9457 C   0  0  0  0  0  0  0  0  0  0  0  0
   20.6733   78.1003   12.0079 N   0  0  0  0  0  0  0  0  0  0  0  0
   20.0324   77.0450   12.5766 C   0  0  0  0  0  0  0  0  0  0  0  0
   19.1836   76.0794   12.1918 N   0  0  0  0  0  0  0  0  0  0  0  0
   18.7361   75.0785   12.9574 C   0  0  0  0  0  0  0  0  0  0  0  0
   19.1735   75.0281   14.2741 N   0  0  0  0  0  0  0  0  0  0  0  0
   20.0043   75.9279   14.7382 C   0  0  0  0  0  0  0  0  0  0  0  0
   20.4608   76.9482   13.9285 C   0  0  0  0  0  0  0  0  0  0  0  0
   21.3373   77.9318   14.0904 N   0  0  0  0  0  0  0  0  0  0  0  0
   20.4602   75.9298   16.0326 O   0  0  0  0  0  0  0  0  0  0  0  0
   17.8661   74.0262   12.5135 N   0  0  0  0  0  0  0  0  0  0  0  0
   20.2134   76.6367   16.7159 H   0  0  0  0  0  0  0  0  0  0  0  0
   16.8902   73.8894   12.7676 H   0  0  0  0  0  0  0  0  0  0  0  0
   18.3031   73.2776   11.8707 H   0  0  0  0  0  0  0  0  0  0  0  0
   20.4288   78.5117   10.6632 C   0  0  0  0  0  0  0  0  0  0  0  0
   19.0783   78.4010   10.2647 O   0  0  0  0  0  0  0  0  0  0  0  0
   19.2278   78.6979    8.8905 C   0  0  0  0  0  0  0  0  0  0  0  0
   20.2107   77.5512    8.5374 C   0  0  0  0  0  0  0  0  0  0  0  0
   21.2665   77.8719    9.6035 C   0  0  0  0  0  0  0  0  0  0  0  0
   22.1595   78.8058    9.0181 O   0  0  0  0  0  0  0  0  0  0  0  0
   20.6916   77.6462    7.2597 O   0  0  0  0  0  0  0  0  0  0  0  0
   22.7646   78.2515    8.4768 H   0  0  0  0  0  0  0  0  0  0  0  0
   20.7288   76.7526    6.8419 H   0  0  0  0  0  0  0  0  0  0  0  0
   17.9507   78.5935    8.1472 C   0  0  0  0  0  0  0  0  0  0  0  0
   17.7081   77.2689    7.7632 O   0  0  0  0  0  0  0  0  0  0  0  0
   18.5424   76.7456    7.9695 H   0  0  0  0  0  0  0  0  0  0  0  0
   22.6271   79.9728   12.7204 S   0  0  0  0  0  0  0  0  0  0  0  0
   22.9179   80.8432   14.3224 C   0  0  0  0  0  0  0  0  0  0  0  0
   23.5885   79.9244   15.2704 C   0  0  0  0  0  0  0  0  0  0  0  0
   23.1637   79.6924   16.5555 C   0  0  0  0  0  0  0  0  0  0  0  0
   23.8798   78.9525   17.4311 C   0  0  0  0  0  0  0  0  0  0  0  0
   25.0921   78.3741   17.0729 C   0  0  0  0  0  0  0  0  0  0  0  0
   25.5574   78.5934   15.7688 C   0  0  0  0  0  0  0  0  0  0  0  0
   24.8171   79.3546   14.8852 C   0  0  0  0  0  0  0  0  0  0  0  0
   21.4277   80.3665   16.9917 Br  0  0  0  0  0  0  0  0  0  0  0  0
 27 28  1  0  0  0
 27  1  1  0  0  0
 28 29  1  0  0  0
 29 30  2  0  0  0
 29 34  1  0  0  0
 30 31  1  0  0  0
 30 35  1  0  0  0
 31 32  2  0  0  0
 32 33  1  0  0  0
 33 34  2  0  0  0
  1  2  1  0  0  0
  1  9  2  0  0  0
  2  3  1  0  0  0
  2 15  1  0  0  0
  3  4  2  0  0  0
  3  8  1  0  0  0
  4  5  1  0  0  0
  5  6  2  0  0  0
  5 11  1  0  0  0
  6  7  1  0  0  0
  7  8  2  0  0  0
  7 10  1  0  0  0
  8  9  1  0  0  0
 15 16  1  0  0  0
 15 19  1  0  0  0
 16 17  1  0  0  0
 17 18  1  0  0  0
 17 24  1  0  0  0
 18 19  1  0  0  0
 18 21  1  0  0  0
 19 20  1  0  0  0
 24 25  1  0  0  0
 10 12  1  0  0  0
 11 13  1  0  0  0
 11 14  1  0  0  0
 20 22  1  0  0  0
 21 23  1  0  0  0
 25 26  1  0  0  0
M  END
> <minimizedAffinity>
-9.61131

$$$$
1143


 33 37  0  0  0  0  0  0  0  0999 V2000
   22.1028   79.0076   14.6101 C   0  0  0  0  0  0  0  0  0  0  0  0
   23.5330   78.7889   14.7774 N   0  0  0  0  0  0  0  0  0  0  0  0
   23.7996   77.3771   14.9925 C   0  0  0  0  0  0  0  0  0  0  0  0
   22.5743   76.5598   15.3087 C   0  0  0  0  0  0  0  0  0  0  0  0
   21.7244   77.3471   16.2717 C   0  0  0  0  0  0  0  0  0  0  0  0
   21.4928   78.6901   15.8894 C   0  0  0  0  0  0  0  0  0  0  0  0
   20.7532   79.5000   16.7058 C   0  0  0  0  0  0  0  0  0  0  0  0
   20.2558   78.9528   17.8864 C   0  0  0  0  0  0  0  0  0  0  0  0
   20.4928   77.6442   18.2352 C   0  0  0  0  0  0  0  0  0  0  0  0
   21.2402   76.8133   17.4213 C   0  0  0  0  0  0  0  0  0  0  0  0
   19.8771   77.3974   19.4448 O   0  0  0  0  0  0  0  0  0  0  0  0
   19.4881   78.6245   20.0112 C   0  0  0  0  0  0  0  0  0  0  0  0
   19.4975   79.5013   18.8848 O   0  0  0  0  0  0  0  0  0  0  0  0
   24.1312   79.5273   15.8359 C   0  0  0  0  0  0  0  0  0  0  0  0
   23.9830   79.0578   13.8775 H   0  0  0  0  0  0  0  0  0  0  0  0
   24.2932   78.1073   10.5705 S   0  0  0  0  0  0  0  0  0  0  0  0
   23.3277   79.1441   11.6584 C   0  0  0  0  0  0  0  0  0  0  0  0
   23.8650   79.9221   12.5261 N   0  0  0  0  0  0  0  0  0  0  0  0
   23.1647   80.7713   13.4198 C   0  0  0  0  0  0  0  0  0  0  0  0
   23.5890   81.8573   13.8234 O   0  0  0  0  0  0  0  0  0  0  0  0
   21.7920   80.2177   13.8606 C   0  0  0  0  0  0  0  0  0  0  0  0
   21.1616   79.9974   12.5236 C   0  0  0  0  0  0  0  0  0  0  0  0
   20.0923   80.4713   12.1354 O   0  0  0  0  0  0  0  0  0  0  0  0
   21.8818   79.1606   11.6307 N   0  0  0  0  0  0  0  0  0  0  0  0
   21.1805   78.3593   10.7247 C   0  0  0  0  0  0  0  0  0  0  0  0
   21.3084   78.6580    9.3626 C   0  0  0  0  0  0  0  0  0  0  0  0
   20.6482   77.9124    8.4100 C   0  0  0  0  0  0  0  0  0  0  0  0
   19.8445   76.8506    8.8130 C   0  0  0  0  0  0  0  0  0  0  0  0
   19.7232   76.5592   10.1779 C   0  0  0  0  0  0  0  0  0  0  0  0
   20.3897   77.3139   11.1137 C   0  0  0  0  0  0  0  0  0  0  0  0
   18.9233   75.8047    7.5406 Br  0  0  0  0  0  0  0  0  0  0  0  0
   20.5024   80.8266   16.3848 O   0  0  0  0  0  0  0  0  0  0  0  0
   20.6823   81.8211   17.3873 C   0  0  0  0  0  0  0  0  0  0  0  0
 16 17  1  0  0  0
 17 18  2  0  0  0
 17 24  1  0  0  0
 18 19  1  0  0  0
 19 20  2  0  0  0
 19 21  1  0  0  0
 21 22  1  0  0  0
 21  1  1  0  0  0
 22 23  2  0  0  0
 22 24  1  0  0  0
 24 25  1  0  0  0
 25 26  2  0  0  0
 25 30  1  0  0  0
 26 27  1  0  0  0
 27 28  2  0  0  0
 28 29  1  0  0  0
 28 31  1  0  0  0
 29 30  2  0  0  0
  1  2  1  0  0  0
  1  6  1  0  0  0
  2  3  1  0  0  0
  2 14  1  0  0  0
  3  4  1  0  0  0
  4  5  1  0  0  0
  5  6  2  0  0  0
  5 10  1  0  0  0
  6  7  1  0  0  0
  7  8  2  0  0  0
  7 32  1  0  0  0
  8  9  1  0  0  0
  8 13  1  0  0  0
  9 10  2  0  0  0
  9 11  1  0  0  0
 11 12  1  0  0  0
 12 13  1  0  0  0
 32 33  1  0  0  0
  2 15  1  0  0  0
M  CHG 1   2   1
M  END
> <minimizedAffinity>
-4.62614

$$$$
1151


 24 27  0  0  0  0  0  0  0  0999 V2000
   19.2996   83.4462   20.8744 S   0  0  0  0  0  0  0  0  0  0  0  0
   18.0974   84.3436   20.9240 O   0  0  0  0  0  0  0  0  0  0  0  0
   19.9686   83.3348   22.2160 O   0  0  0  0  0  0  0  0  0  0  0  0
   18.8756   81.8265   20.2704 C   0  0  0  0  0  0  0  0  0  0  0  0
   20.1438   81.2662   19.6601 C   0  0  0  0  0  0  0  0  0  0  0  0
   20.4370   81.9963   18.4433 N   0  0  0  0  0  0  0  0  0  0  0  0
   20.1858   83.4198   18.3596 C   0  0  0  0  0  0  0  0  0  0  0  0
   20.5067   84.0808   19.7017 C   0  0  0  0  0  0  0  0  0  0  0  0
   20.9509   81.0245   17.5417 C   0  0  0  0  0  0  0  0  0  0  0  0
   21.5643   81.2661   16.4472 O   0  0  0  0  0  0  0  0  0  0  0  0
   20.6955   79.7104   18.0196 N   0  0  0  0  0  0  0  0  0  0  0  0
   20.0030   79.8656   19.2494 C   0  0  0  0  0  0  0  0  0  0  0  0
   19.3738   78.9726   19.8897 O   0  0  0  0  0  0  0  0  0  0  0  0
   21.0556   78.4444   17.3990 C   0  0  0  0  0  0  0  0  0  0  0  0
   20.4247   78.3071   16.0242 C   0  0  0  0  0  0  0  0  0  0  0  0
   20.7977   76.9076   15.5304 C   0  0  0  0  0  0  0  0  0  0  0  0
   22.2001   76.9227   15.3329 O   0  0  0  0  0  0  0  0  0  0  0  0
   23.0333   77.6084   16.2096 C   0  0  0  0  0  0  0  0  0  0  0  0
   22.5179   78.3600   17.2269 C   0  0  0  0  0  0  0  0  0  0  0  0
   23.3369   79.0348   18.0891 C   0  0  0  0  0  0  0  0  0  0  0  0
   24.6968   78.9447   17.9133 C   0  0  0  0  0  0  0  0  0  0  0  0
   25.2001   78.1857   16.8872 C   0  0  0  0  0  0  0  0  0  0  0  0
   24.3988   77.4921   15.9984 C   0  0  0  0  0  0  0  0  0  0  0  0
   25.1091   76.4441   14.5805 Br  0  0  0  0  0  0  0  0  0  0  0  0
  1  2  2  0  0  0
  1  3  2  0  0  0
  1  4  1  0  0  0
  1  8  1  0  0  0
  4  5  1  0  0  0
  5  6  1  0  0  0
  5 12  1  0  0  0
  6  7  1  0  0  0
  6  9  1  0  0  0
  7  8  1  0  0  0
  9 10  2  0  0  0
  9 11  1  0  0  0
 11 12  1  0  0  0
 11 14  1  0  0  0
 12 13  2  0  0  0
 14 15  1  0  0  0
 14 19  1  0  0  0
 15 16  1  0  0  0
 16 17  1  0  0  0
 17 18  1  0  0  0
 18 19  2  0  0  0
 18 23  1  0  0  0
 19 20  1  0  0  0
 20 21  2  0  0  0
 21 22  1  0  0  0
 22 23  2  0  0  0
 23 24  1  0  0  0
M  END
> <minimizedAffinity>
-8.37371

$$$$
1157


 24 27  0  0  0  0  0  0  0  0999 V2000
   20.0589   77.8123   18.7833 C   0  0  0  0  0  0  0  0  0  0  0  0
   21.3171   77.1027   18.3524 C   0  0  0  0  0  0  0  0  0  0  0  0
   21.3476   77.3970   16.9275 N   0  0  0  0  0  0  0  0  0  0  0  0
   20.0067   77.1404   16.4586 C   0  0  0  0  0  0  0  0  0  0  0  0
   19.1212   77.4654   17.6467 C   0  0  0  0  0  0  0  0  0  0  0  0
   22.5001   77.8453   16.1964 C   0  0  0  0  0  0  0  0  0  0  0  0
   23.4720   76.9863   15.8357 N   0  0  0  0  0  0  0  0  0  0  0  0
   24.5393   77.4357   15.1529 C   0  0  0  0  0  0  0  0  0  0  0  0
   24.6790   78.7546   14.8045 C   0  0  0  0  0  0  0  0  0  0  0  0
   23.7174   79.6249   15.1563 N   0  0  0  0  0  0  0  0  0  0  0  0
   22.6524   79.1638   15.8410 C   0  0  0  0  0  0  0  0  0  0  0  0
   21.8782   80.2470   16.0459 N   0  0  0  0  0  0  0  0  0  0  0  0
   22.4257   81.3293   15.5197 N   0  0  0  0  0  0  0  0  0  0  0  0
   23.5864   80.9579   14.9539 C   0  0  0  0  0  0  0  0  0  0  0  0
   19.3196   80.1166   19.4422 C   0  0  0  0  0  0  0  0  0  0  0  0
   18.3200   79.6997   20.0777 O   0  0  0  0  0  0  0  0  0  0  0  0
   20.2246   79.2583   18.7779 N   0  0  0  0  0  0  0  0  0  0  0  0
   21.0291   79.6921   18.2732 H   0  0  0  0  0  0  0  0  0  0  0  0
   20.3004   82.5666   18.2790 S   0  0  0  0  0  0  0  0  0  0  0  0
   19.5044   81.5856   19.4252 C   0  0  0  0  0  0  0  0  0  0  0  0
   19.0639   82.4968   20.3495 C   0  0  0  0  0  0  0  0  0  0  0  0
   19.3445   83.7838   20.1342 C   0  0  0  0  0  0  0  0  0  0  0  0
   20.0537   84.0902   19.0012 C   0  0  0  0  0  0  0  0  0  0  0  0
   18.8085   85.2182   21.3251 Br  0  0  0  0  0  0  0  0  0  0  0  0
 19 20  1  0  0  0
 19 23  1  0  0  0
 20 21  2  0  0  0
 20 15  1  0  0  0
 21 22  1  0  0  0
 22 23  2  0  0  0
 22 24  1  0  0  0
 15 16  2  0  0  0
 15 17  1  0  0  0
 17  1  1  0  0  0
  1  2  1  0  0  0
  1  5  1  0  0  0
  2  3  1  0  0  0
  3  4  1  0  0  0
  3  6  1  0  0  0
  4  5  1  0  0  0
  6  7  2  0  0  0
  6 11  1  0  0  0
  7  8  1  0  0  0
  8  9  2  0  0  0
  9 10  1  0  0  0
 10 11  1  0  0  0
 10 14  1  0  0  0
 11 12  2  0  0  0
 12 13  1  0  0  0
 13 14  2  0  0  0
 17 18  1  0  0  0
M  END
> <minimizedAffinity>
-8.95856

$$$$
1160


 25 28  0  0  0  0  0  0  0  0999 V2000
   20.8167   77.7221   16.6085 C   0  0  0  0  0  0  0  0  0  0  0  0
   19.9091   76.9637   15.9673 N   0  0  0  0  0  0  0  0  0  0  0  0
   20.4009   76.5502   14.7866 C   0  0  0  0  0  0  0  0  0  0  0  0
   21.6356   77.0761   14.7214 N   0  0  0  0  0  0  0  0  0  0  0  0
   21.8605   77.7686   15.8153 O   0  0  0  0  0  0  0  0  0  0  0  0
   19.7574   75.7120   13.7748 C   0  0  0  0  0  0  0  0  0  0  0  0
   19.4631   74.4066   13.8961 N   0  0  0  0  0  0  0  0  0  0  0  0
   18.8797   73.9622   12.7777 N   0  0  0  0  0  0  0  0  0  0  0  0
   18.7917   74.9968   11.9118 C   0  0  0  0  0  0  0  0  0  0  0  0
   19.3384   76.0598   12.5469 N   0  0  0  0  0  0  0  0  0  0  0  0
   18.4169   72.6075   12.5276 C   0  0  0  0  0  0  0  0  0  0  0  0
   16.9504   72.5687   12.7107 C   0  0  0  0  0  0  0  0  0  0  0  0
   16.3311   71.5357   12.3747 O   0  0  0  0  0  0  0  0  0  0  0  0
   16.2749   73.6849   13.2571 N   0  0  0  0  0  0  0  0  0  0  0  0
   15.5173   73.5739   13.9861 H   0  0  0  0  0  0  0  0  0  0  0  0
   16.4732   74.6784   12.9861 H   0  0  0  0  0  0  0  0  0  0  0  0
   19.3532   79.1468   18.1182 C   0  0  0  0  0  0  0  0  0  0  0  0
   20.6747   78.3836   17.9533 C   0  0  0  0  0  0  0  0  0  0  0  0
   19.6148   77.9237   18.8799 C   0  0  0  0  0  0  0  0  0  0  0  0
   19.5958   82.2305   20.4904 S   0  0  0  0  0  0  0  0  0  0  0  0
   20.0861   82.7200   18.9392 C   0  0  0  0  0  0  0  0  0  0  0  0
   19.9677   81.5777   18.1915 C   0  0  0  0  0  0  0  0  0  0  0  0
   19.5316   80.4718   18.8368 C   0  0  0  0  0  0  0  0  0  0  0  0
   19.2502   80.5963   20.1680 C   0  0  0  0  0  0  0  0  0  0  0  0
   20.6751   84.4551   18.3305 Br  0  0  0  0  0  0  0  0  0  0  0  0
 20 21  1  0  0  0
 20 24  1  0  0  0
 21 22  2  0  0  0
 21 25  1  0  0  0
 22 23  1  0  0  0
 23 24  2  0  0  0
 23 17  1  0  0  0
 17 18  1  0  0  0
 17 19  1  0  0  0
 18 19  1  0  0  0
 18  1  1  0  0  0
  1  2  2  0  0  0
  1  5  1  0  0  0
  2  3  1  0  0  0
  3  4  2  0  0  0
  3  6  1  0  0  0
  4  5  1  0  0  0
  6  7  2  0  0  0
  6 10  1  0  0  0
  7  8  1  0  0  0
  8  9  1  0  0  0
  8 11  1  0  0  0
  9 10  2  0  0  0
 11 12  1  0  0  0
 12 13  2  0  0  0
 12 14  1  0  0  0
 14 15  1  0  0  0
 14 16  1  0  0  0
M  END
> <minimizedAffinity>
-9.27646

$$$$
1161


 29 32  0  0  0  0  0  0  0  0999 V2000
   19.7751   76.3722   13.6621 N   0  0  0  0  0  0  0  0  0  0  0  0
   20.1234   76.9957   12.5114 C   0  0  0  0  0  0  0  0  0  0  0  0
   21.0567   77.9531   12.7708 C   0  0  0  0  0  0  0  0  0  0  0  0
   21.5712   78.7271   11.7466 C   0  0  0  0  0  0  0  0  0  0  0  0
   21.1268   78.5161   10.4615 C   0  0  0  0  0  0  0  0  0  0  0  0
   20.1887   77.5581   10.1739 C   0  0  0  0  0  0  0  0  0  0  0  0
   19.6964   76.8048   11.2164 C   0  0  0  0  0  0  0  0  0  0  0  0
   21.2818   77.9204   14.0879 N   0  0  0  0  0  0  0  0  0  0  0  0
   20.4925   76.9491   14.6299 C   0  0  0  0  0  0  0  0  0  0  0  0
   20.5165   76.7267   15.8913 N   0  0  0  0  0  0  0  0  0  0  0  0
   19.9817   76.0504   16.4332 H   0  0  0  0  0  0  0  0  0  0  0  0
   18.8108   75.3044   13.7502 C   0  0  0  0  0  0  0  0  0  0  0  0
   19.4578   73.9698   13.7270 C   0  0  0  0  0  0  0  0  0  0  0  0
   20.5818   73.7856   14.2557 O   0  0  0  0  0  0  0  0  0  0  0  0
   17.2039   72.5881   12.5770 S   0  0  0  0  0  0  0  0  0  0  0  0
   17.3122   71.0025   11.9745 C   0  0  0  0  0  0  0  0  0  0  0  0
   18.6245   70.6855   12.1919 C   0  0  0  0  0  0  0  0  0  0  0  0
   19.3998   71.6099   12.7624 C   0  0  0  0  0  0  0  0  0  0  0  0
   18.8224   72.8111   13.0894 C   0  0  0  0  0  0  0  0  0  0  0  0
   15.9255   69.9528   11.1913 Br  0  0  0  0  0  0  0  0  0  0  0  0
   22.2271   78.7784   14.7886 C   0  0  0  0  0  0  0  0  0  0  0  0
   23.6100   78.1115   14.7336 C   0  0  0  0  0  0  0  0  0  0  0  0
   23.8381   77.2549   15.8614 N   0  0  0  0  0  0  0  0  0  0  0  0
   25.2122   76.8163   16.0012 C   0  0  0  0  0  0  0  0  0  0  0  0
   26.1764   77.9682   15.9710 C   0  0  0  0  0  0  0  0  0  0  0  0
   25.7833   79.0928   16.8686 C   0  0  0  0  0  0  0  0  0  0  0  0
   24.3279   79.2327   17.1381 C   0  0  0  0  0  0  0  0  0  0  0  0
   23.5195   77.9866   17.0633 C   0  0  0  0  0  0  0  0  0  0  0  0
   23.2687   76.3849   15.7799 H   0  0  0  0  0  0  0  0  0  0  0  0
 15 16  1  0  0  0
 15 19  1  0  0  0
 16 17  2  0  0  0
 16 20  1  0  0  0
 17 18  1  0  0  0
 18 19  2  0  0  0
 19 13  1  0  0  0
 13 14  2  0  0  0
 13 12  1  0  0  0
 12  1  1  0  0  0
  1  2  1  0  0  0
  1  9  1  0  0  0
  2  3  1  0  0  0
  2  7  2  0  0  0
  3  4  2  0  0  0
  3  8  1  0  0  0
  4  5  1  0  0  0
  5  6  2  0  0  0
  6  7  1  0  0  0
  8  9  1  0  0  0
  8 21  1  0  0  0
  9 10  2  0  0  0
 21 22  1  0  0  0
 22 23  1  0  0  0
 23 24  1  0  0  0
 23 28  1  0  0  0
 24 25  1  0  0  0
 25 26  1  0  0  0
 26 27  1  0  0  0
 27 28  1  0  0  0
 10 11  1  0  0  0
 23 29  1  0  0  0
M  CHG 1  23   1
M  END
> <minimizedAffinity>
-10.46214

$$$$
1177


 33 36  0  0  0  0  0  0  0  0999 V2000
   21.3224   76.9108   15.0608 C   0  0  0  0  0  0  0  0  0  0  0  0
   20.8403   77.3074   16.2229 C   0  0  0  0  0  0  0  0  0  0  0  0
   21.5812   77.8957   17.3878 C   0  0  0  0  0  0  0  0  0  0  0  0
   20.6364   78.7949   17.9729 N   0  0  0  0  0  0  0  0  0  0  0  0
   19.3507   78.1435   17.7742 C   0  0  0  0  0  0  0  0  0  0  0  0
   18.3372   78.4015   18.4786 O   0  0  0  0  0  0  0  0  0  0  0  0
   19.4597   77.1999   16.6762 C   0  0  0  0  0  0  0  0  0  0  0  0
   18.5473   76.4397   16.2101 O   0  0  0  0  0  0  0  0  0  0  0  0
   22.7118   77.0220   14.8239 O   0  0  0  0  0  0  0  0  0  0  0  0
   19.6796   74.8325   14.0432 S   0  0  0  0  0  0  0  0  0  0  0  0
   18.9154   74.9070   12.5201 C   0  0  0  0  0  0  0  0  0  0  0  0
   19.2866   76.0941   12.0794 N   0  0  0  0  0  0  0  0  0  0  0  0
   20.0543   76.8495   12.8082 C   0  0  0  0  0  0  0  0  0  0  0  0
   20.4464   76.3627   14.0276 C   0  0  0  0  0  0  0  0  0  0  0  0
   20.5141   78.2006   12.2759 C   0  0  0  0  0  0  0  0  0  0  0  0
   18.0383   73.8787   11.8442 C   0  0  0  0  0  0  0  0  0  0  0  0
   22.8724   78.4427   16.9922 C   0  0  0  0  0  0  0  0  0  0  0  0
   22.8775   79.5727   16.1593 C   0  0  0  0  0  0  0  0  0  0  0  0
   24.0268   80.1925   15.7398 C   0  0  0  0  0  0  0  0  0  0  0  0
   25.2452   79.7030   16.1414 C   0  0  0  0  0  0  0  0  0  0  0  0
   25.2809   78.5888   16.9654 C   0  0  0  0  0  0  0  0  0  0  0  0
   24.1047   77.9919   17.3670 C   0  0  0  0  0  0  0  0  0  0  0  0
   24.0042   81.7295   14.6060 Br  0  0  0  0  0  0  0  0  0  0  0  0
   20.8073   80.0303   18.6787 C   0  0  0  0  0  0  0  0  0  0  0  0
   20.0236   81.1973   18.1719 C   0  0  0  0  0  0  0  0  0  0  0  0
   19.3505   81.9459   19.3325 C   0  0  0  0  0  0  0  0  0  0  0  0
   20.1976   83.0227   19.7205 N   0  0  0  0  0  0  0  0  0  0  0  0
   19.6528   84.3363   19.5898 C   0  0  0  0  0  0  0  0  0  0  0  0
   18.6487   84.6809   20.6641 C   0  0  0  0  0  0  0  0  0  0  0  0
   18.5030   83.5292   21.4698 O   0  0  0  0  0  0  0  0  0  0  0  0
   19.7472   83.3842   22.1154 C   0  0  0  0  0  0  0  0  0  0  0  0
   20.7105   82.8637   21.0688 C   0  0  0  0  0  0  0  0  0  0  0  0
   21.0536   82.9861   19.0884 H   0  0  0  0  0  0  0  0  0  0  0  0
 10 11  1  0  0  0
 10 14  1  0  0  0
 11 12  2  0  0  0
 11 16  1  0  0  0
 12 13  1  0  0  0
 13 14  2  0  0  0
 13 15  1  0  0  0
 14  1  1  0  0  0
  1  2  2  0  0  0
  1  9  1  0  0  0
  2  3  1  0  0  0
  2  7  1  0  0  0
  3  4  1  0  0  0
  3 17  1  0  0  0
  4  5  1  0  0  0
  4 24  1  0  0  0
  5  6  2  0  0  0
  5  7  1  0  0  0
  7  8  2  0  0  0
 24 25  1  0  0  0
 25 26  1  0  0  0
 26 27  1  0  0  0
 27 28  1  0  0  0
 27 32  1  0  0  0
 28 29  1  0  0  0
 29 30  1  0  0  0
 30 31  1  0  0  0
 31 32  1  0  0  0
 17 18  2  0  0  0
 17 22  1  0  0  0
 18 19  1  0  0  0
 19 20  2  0  0  0
 19 23  1  0  0  0
 20 21  1  0  0  0
 21 22  2  0  0  0
 27 33  1  0  0  0
M  CHG 1   9  -1
M  CHG 1  27   1
M  END
> <minimizedAffinity>
-9.32137

$$$$
1178


 33 36  0  0  0  0  0  0  0  0999 V2000
   21.6187   78.9217   15.0457 C   0  0  0  0  0  0  0  0  0  0  0  0
   21.0901   77.7885   14.6893 C   0  0  0  0  0  0  0  0  0  0  0  0
   21.1913   77.1788   13.3264 C   0  0  0  0  0  0  0  0  0  0  0  0
   19.9295   76.5008   13.1919 N   0  0  0  0  0  0  0  0  0  0  0  0
   19.6145   76.0212   14.5061 C   0  0  0  0  0  0  0  0  0  0  0  0
   18.8500   75.0777   14.7776 O   0  0  0  0  0  0  0  0  0  0  0  0
   20.3415   76.8215   15.4815 C   0  0  0  0  0  0  0  0  0  0  0  0
   20.3778   76.7590   16.7406 O   0  0  0  0  0  0  0  0  0  0  0  0
   22.3588   79.6613   14.1076 O   0  0  0  0  0  0  0  0  0  0  0  0
   20.1338   80.2960   17.1050 S   0  0  0  0  0  0  0  0  0  0  0  0
   20.7112   80.4289   18.7022 C   0  0  0  0  0  0  0  0  0  0  0  0
   21.8730   79.8111   18.6369 N   0  0  0  0  0  0  0  0  0  0  0  0
   22.2742   79.3015   17.5125 C   0  0  0  0  0  0  0  0  0  0  0  0
   21.4483   79.4352   16.4227 C   0  0  0  0  0  0  0  0  0  0  0  0
   23.5936   78.5407   17.4099 C   0  0  0  0  0  0  0  0  0  0  0  0
   20.0871   81.0767   19.9088 C   0  0  0  0  0  0  0  0  0  0  0  0
   21.4787   78.2028   12.3110 C   0  0  0  0  0  0  0  0  0  0  0  0
   20.6224   79.1718   11.8650 C   0  0  0  0  0  0  0  0  0  0  0  0
   20.9304   80.1113   10.9073 C   0  0  0  0  0  0  0  0  0  0  0  0
   22.1827   80.0900   10.3474 C   0  0  0  0  0  0  0  0  0  0  0  0
   23.0860   79.1427   10.7517 C   0  0  0  0  0  0  0  0  0  0  0  0
   22.7456   78.2183   11.7120 C   0  0  0  0  0  0  0  0  0  0  0  0
   22.6088   81.4008    9.0152 Br  0  0  0  0  0  0  0  0  0  0  0  0
   19.1966   76.3460   11.9709 C   0  0  0  0  0  0  0  0  0  0  0  0
   19.4084   75.0754   11.2591 C   0  0  0  0  0  0  0  0  0  0  0  0
   18.4653   74.0066   11.4641 C   0  0  0  0  0  0  0  0  0  0  0  0
   18.0476   73.4073   12.6409 N   0  0  0  0  0  0  0  0  0  0  0  0
   18.9606   72.2620   13.0085 C   0  0  0  0  0  0  0  0  0  0  0  0
   18.5949   71.0652   12.1944 C   0  0  0  0  0  0  0  0  0  0  0  0
   17.3450   70.6370   12.6271 O   0  0  0  0  0  0  0  0  0  0  0  0
   16.4366   71.6189   12.1714 C   0  0  0  0  0  0  0  0  0  0  0  0
   16.7155   72.9457   12.8214 C   0  0  0  0  0  0  0  0  0  0  0  0
   18.2304   74.0485   13.4505 H   0  0  0  0  0  0  0  0  0  0  0  0
 10 11  1  0  0  0
 10 14  1  0  0  0
 11 12  2  0  0  0
 11 16  1  0  0  0
 12 13  1  0  0  0
 13 14  2  0  0  0
 13 15  1  0  0  0
 14  1  1  0  0  0
  1  2  2  0  0  0
  1  9  1  0  0  0
  2  3  1  0  0  0
  2  7  1  0  0  0
  3  4  1  0  0  0
  3 17  1  0  0  0
  4  5  1  0  0  0
  4 24  1  0  0  0
  5  6  2  0  0  0
  5  7  1  0  0  0
  7  8  2  0  0  0
 24 25  1  0  0  0
 25 26  1  0  0  0
 26 27  1  0  0  0
 27 28  1  0  0  0
 27 32  1  0  0  0
 28 29  1  0  0  0
 29 30  1  0  0  0
 30 31  1  0  0  0
 31 32  1  0  0  0
 17 18  2  0  0  0
 17 22  1  0  0  0
 18 19  1  0  0  0
 19 20  2  0  0  0
 20 21  1  0  0  0
 20 23  1  0  0  0
 21 22  2  0  0  0
 27 33  1  0  0  0
M  CHG 1   9  -1
M  CHG 1  27   1
M  END
> <minimizedAffinity>
-7.07368

$$$$
1180


 32 35  0  0  0  0  0  0  0  0999 V2000
   21.8785   77.2261   14.2780 C   0  0  0  0  0  0  0  0  0  0  0  0
   21.3988   78.0091   13.3348 C   0  0  0  0  0  0  0  0  0  0  0  0
   20.3391   77.7270   12.3191 C   0  0  0  0  0  0  0  0  0  0  0  0
   20.9442   78.2402   11.1517 N   0  0  0  0  0  0  0  0  0  0  0  0
   21.4252   79.5638   11.6111 C   0  0  0  0  0  0  0  0  0  0  0  0
   21.5540   80.6073   10.9165 O   0  0  0  0  0  0  0  0  0  0  0  0
   21.7192   79.4034   13.0310 C   0  0  0  0  0  0  0  0  0  0  0  0
   22.1563   80.2425   13.8778 O   0  0  0  0  0  0  0  0  0  0  0  0
   21.3868   75.9418   14.4289 O   0  0  0  0  0  0  0  0  0  0  0  0
   24.6201   77.9460   14.8038 S   0  0  0  0  0  0  0  0  0  0  0  0
   25.0973   78.7162   16.2437 C   0  0  0  0  0  0  0  0  0  0  0  0
   23.9594   78.8139   16.9017 N   0  0  0  0  0  0  0  0  0  0  0  0
   22.8623   78.3610   16.3793 C   0  0  0  0  0  0  0  0  0  0  0  0
   22.9366   77.7846   15.1334 C   0  0  0  0  0  0  0  0  0  0  0  0
   21.5316   78.5041   17.1035 C   0  0  0  0  0  0  0  0  0  0  0  0
   26.4684   79.1706   16.6661 C   0  0  0  0  0  0  0  0  0  0  0  0
   19.6425   76.4915   12.4184 C   0  0  0  0  0  0  0  0  0  0  0  0
   19.3862   75.7621   11.2538 C   0  0  0  0  0  0  0  0  0  0  0  0
   18.7065   74.5720   11.2588 C   0  0  0  0  0  0  0  0  0  0  0  0
   18.2635   74.0848   12.4704 C   0  0  0  0  0  0  0  0  0  0  0  0
   18.5060   74.7895   13.6312 C   0  0  0  0  0  0  0  0  0  0  0  0
   19.1903   75.9828   13.6009 C   0  0  0  0  0  0  0  0  0  0  0  0
   17.3072   72.4310   12.5668 Br  0  0  0  0  0  0  0  0  0  0  0  0
   21.1400   77.9272    9.7771 C   0  0  0  0  0  0  0  0  0  0  0  0
   20.3150   78.5696    8.7466 C   0  0  0  0  0  0  0  0  0  0  0  0
   19.5649   77.8302    7.8152 N   0  0  0  0  0  0  0  0  0  0  0  0
   19.4575   76.4168    8.1091 C   0  0  0  0  0  0  0  0  0  0  0  0
   18.7373   75.7877    6.9208 C   0  0  0  0  0  0  0  0  0  0  0  0
   18.1015   76.7613    6.1506 O   0  0  0  0  0  0  0  0  0  0  0  0
   17.3085   77.4980    7.0536 C   0  0  0  0  0  0  0  0  0  0  0  0
   18.1552   78.3111    7.9903 C   0  0  0  0  0  0  0  0  0  0  0  0
   19.8160   78.0573    6.8476 H   0  0  0  0  0  0  0  0  0  0  0  0
 10 11  1  0  0  0
 10 14  1  0  0  0
 11 12  2  0  0  0
 11 16  1  0  0  0
 12 13  1  0  0  0
 13 14  2  0  0  0
 13 15  1  0  0  0
 14  1  1  0  0  0
  1  2  2  0  0  0
  1  9  1  0  0  0
  2  3  1  0  0  0
  2  7  1  0  0  0
  3  4  1  0  0  0
  3 17  1  0  0  0
  4  5  1  0  0  0
  4 24  1  0  0  0
  5  6  2  0  0  0
  5  7  1  0  0  0
  7  8  2  0  0  0
 24 25  1  0  0  0
 25 26  1  0  0  0
 26 27  1  0  0  0
 26 31  1  0  0  0
 27 28  1  0  0  0
 28 29  1  0  0  0
 29 30  1  0  0  0
 30 31  1  0  0  0
 17 18  2  0  0  0
 17 22  1  0  0  0
 18 19  1  0  0  0
 19 20  2  0  0  0
 20 21  1  0  0  0
 20 23  1  0  0  0
 21 22  2  0  0  0
 26 32  1  0  0  0
M  CHG 1   9  -1
M  CHG 1  26   1
M  END
> <minimizedAffinity>
-10.00426

$$$$
1192


 27 30  0  0  0  0  0  0  0  0999 V2000
   21.2576   81.4268   17.1082 S   0  0  0  0  0  0  0  0  0  0  0  0
   22.2934   80.4660   16.1310 C   0  0  0  0  0  0  0  0  0  0  0  0
   22.3242   79.2783   16.8106 C   0  0  0  0  0  0  0  0  0  0  0  0
   21.6088   79.1933   17.9430 C   0  0  0  0  0  0  0  0  0  0  0  0
   20.9036   80.3011   18.3293 C   0  0  0  0  0  0  0  0  0  0  0  0
   20.1099   80.1851   19.5978 C   0  0  0  0  0  0  0  0  0  0  0  0
   19.2322   79.0234   19.4725 N   0  0  0  0  0  0  0  0  0  0  0  0
   19.9285   77.8220   19.1306 C   0  0  0  0  0  0  0  0  0  0  0  0
   21.4225   78.0454   18.9240 C   0  0  0  0  0  0  0  0  0  0  0  0
   18.3224   79.3340   18.3697 C   0  0  0  0  0  0  0  0  0  0  0  0
   23.1725   78.2316   16.1759 C   0  0  0  0  0  0  0  0  0  0  0  0
   23.2875   77.0856   16.7025 O   0  0  0  0  0  0  0  0  0  0  0  0
   23.8500   78.5416   14.9684 N   0  0  0  0  0  0  0  0  0  0  0  0
   23.4688   79.5886   14.0664 C   0  0  0  0  0  0  0  0  0  0  0  0
   23.0183   80.6935   14.8981 N   0  0  0  0  0  0  0  0  0  0  0  0
   18.6311   78.9368   20.3166 H   0  0  0  0  0  0  0  0  0  0  0  0
   24.6954   77.9476   14.7333 H   0  0  0  0  0  0  0  0  0  0  0  0
   23.1950   81.6870   14.6454 H   0  0  0  0  0  0  0  0  0  0  0  0
   22.3768   79.1852   13.1472 C   0  0  0  0  0  0  0  0  0  0  0  0
   21.6354   78.0400   13.3540 C   0  0  0  0  0  0  0  0  0  0  0  0
   20.6180   77.6507   12.5125 C   0  0  0  0  0  0  0  0  0  0  0  0
   20.3089   78.4197   11.4093 C   0  0  0  0  0  0  0  0  0  0  0  0
   21.0340   79.5650   11.1827 C   0  0  0  0  0  0  0  0  0  0  0  0
   22.0533   79.9493   12.0326 C   0  0  0  0  0  0  0  0  0  0  0  0
   20.5693   80.6056    9.6358 Br  0  0  0  0  0  0  0  0  0  0  0  0
   19.2846   78.0329   10.5569 O   0  0  0  0  0  0  0  0  0  0  0  0
   19.6060   76.0753   12.8078 Br  0  0  0  0  0  0  0  0  0  0  0  0
  1  2  1  0  0  0
  1  5  1  0  0  0
  2  3  2  0  0  0
  2 15  1  0  0  0
  3  4  1  0  0  0
  3 11  1  0  0  0
  4  5  2  0  0  0
  4  9  1  0  0  0
  5  6  1  0  0  0
  6  7  1  0  0  0
  7  8  1  0  0  0
  7 10  1  0  0  0
  8  9  1  0  0  0
 11 12  2  0  0  0
 11 13  1  0  0  0
 13 14  1  0  0  0
 14 15  1  0  0  0
 14 19  1  0  0  0
 19 20  2  0  0  0
 19 24  1  0  0  0
 20 21  1  0  0  0
 21 22  2  0  0  0
 21 27  1  0  0  0
 22 23  1  0  0  0
 22 26  1  0  0  0
 23 24  2  0  0  0
 23 25  1  0  0  0
  7 16  1  0  0  0
 13 17  1  0  0  0
 15 18  1  0  0  0
M  CHG 1   7   1
M  CHG 1  26  -1
M  END
> <minimizedAffinity>
-7.88449

$$$$
1193


 29 32  0  0  0  0  0  0  0  0999 V2000
   21.5420   77.5035   17.6824 S   0  0  0  0  0  0  0  0  0  0  0  0
   22.5490   78.1402   16.4601 C   0  0  0  0  0  0  0  0  0  0  0  0
   22.2827   79.4802   16.5092 C   0  0  0  0  0  0  0  0  0  0  0  0
   21.3765   79.8954   17.4299 C   0  0  0  0  0  0  0  0  0  0  0  0
   20.8102   78.9315   18.2262 C   0  0  0  0  0  0  0  0  0  0  0  0
   19.7992   79.2598   19.2741 C   0  0  0  0  0  0  0  0  0  0  0  0
   19.9720   80.5401   19.8696 N   0  0  0  0  0  0  0  0  0  0  0  0
   20.8465   81.4404   19.1987 C   0  0  0  0  0  0  0  0  0  0  0  0
   20.8895   81.3226   17.7076 C   0  0  0  0  0  0  0  0  0  0  0  0
   18.6853   81.1580   20.1667 C   0  0  0  0  0  0  0  0  0  0  0  0
   23.0635   80.2825   15.5179 C   0  0  0  0  0  0  0  0  0  0  0  0
   22.9021   81.5451   15.4650 O   0  0  0  0  0  0  0  0  0  0  0  0
   23.9718   79.6353   14.6485 N   0  0  0  0  0  0  0  0  0  0  0  0
   23.7719   78.2554   14.2642 C   0  0  0  0  0  0  0  0  0  0  0  0
   23.4954   77.5616   15.5215 N   0  0  0  0  0  0  0  0  0  0  0  0
   20.4033   80.3673   20.8308 H   0  0  0  0  0  0  0  0  0  0  0  0
   24.7978   80.1553   14.2775 H   0  0  0  0  0  0  0  0  0  0  0  0
   23.9291   76.6678   15.8061 H   0  0  0  0  0  0  0  0  0  0  0  0
   22.5730   78.2102   13.3868 C   0  0  0  0  0  0  0  0  0  0  0  0
   22.4527   79.0669   12.3139 C   0  0  0  0  0  0  0  0  0  0  0  0
   21.3493   79.0409   11.4886 C   0  0  0  0  0  0  0  0  0  0  0  0
   20.3300   78.1317   11.7398 C   0  0  0  0  0  0  0  0  0  0  0  0
   20.4235   77.2632   12.8057 C   0  0  0  0  0  0  0  0  0  0  0  0
   21.5248   77.3134   13.6015 C   0  0  0  0  0  0  0  0  0  0  0  0
   19.2053   78.0874   10.9196 O   0  0  0  0  0  0  0  0  0  0  0  0
   21.1698   80.2191   10.0013 Br  0  0  0  0  0  0  0  0  0  0  0  0
   19.3825   76.3771   13.0128 O   0  0  0  0  0  0  0  0  0  0  0  0
   19.4144   75.2549   13.8369 C   0  0  0  0  0  0  0  0  0  0  0  0
   18.8496   74.0372   13.1385 C   0  0  0  0  0  0  0  0  0  0  0  0
  1  2  1  0  0  0
  1  5  1  0  0  0
  2  3  2  0  0  0
  2 15  1  0  0  0
  3  4  1  0  0  0
  3 11  1  0  0  0
  4  5  2  0  0  0
  4  9  1  0  0  0
  5  6  1  0  0  0
  6  7  1  0  0  0
  7  8  1  0  0  0
  7 10  1  0  0  0
  8  9  1  0  0  0
 11 12  2  0  0  0
 11 13  1  0  0  0
 13 14  1  0  0  0
 14 15  1  0  0  0
 14 19  1  0  0  0
 19 20  2  0  0  0
 19 24  1  0  0  0
 20 21  1  0  0  0
 21 22  2  0  0  0
 21 26  1  0  0  0
 22 23  1  0  0  0
 22 25  1  0  0  0
 23 24  2  0  0  0
 23 27  1  0  0  0
 27 28  1  0  0  0
 28 29  1  0  0  0
  7 16  1  0  0  0
 13 17  1  0  0  0
 15 18  1  0  0  0
M  CHG 1   7   1
M  CHG 1  25  -1
M  END
> <minimizedAffinity>
-8.72799

$$$$
1206


 25 28  0  0  0  0  0  0  0  0999 V2000
   23.5653   79.4142   15.7460 S   0  0  0  0  0  0  0  0  0  0  0  0
   24.3198   78.0286   14.8554 C   0  0  0  0  0  0  0  0  0  0  0  0
   23.1044   77.5126   14.1343 C   0  0  0  0  0  0  0  0  0  0  0  0
   21.9077   77.6845   14.9007 N   0  0  0  0  0  0  0  0  0  0  0  0
   21.9540   78.6420   15.8414 C   0  0  0  0  0  0  0  0  0  0  0  0
   20.7867   78.6764   16.4945 N   0  0  0  0  0  0  0  0  0  0  0  0
   19.9732   77.7320   15.9714 C   0  0  0  0  0  0  0  0  0  0  0  0
   20.6633   77.0990   14.9654 C   0  0  0  0  0  0  0  0  0  0  0  0
   24.7855   76.9520   15.8057 C   0  0  0  0  0  0  0  0  0  0  0  0
   20.4365   79.5499   17.5616 C   0  0  0  0  0  0  0  0  0  0  0  0
   20.5579   80.9158   17.4559 C   0  0  0  0  0  0  0  0  0  0  0  0
   20.2253   81.7841   18.4743 C   0  0  0  0  0  0  0  0  0  0  0  0
   19.7480   81.2819   19.6648 C   0  0  0  0  0  0  0  0  0  0  0  0
   19.6128   79.9123   19.8082 C   0  0  0  0  0  0  0  0  0  0  0  0
   19.9521   79.0654   18.7726 C   0  0  0  0  0  0  0  0  0  0  0  0
   19.2770   82.4556   21.1005 Br  0  0  0  0  0  0  0  0  0  0  0  0
   20.1333   76.0182   14.1684 C   0  0  0  0  0  0  0  0  0  0  0  0
   20.2556   74.7113   14.6716 C   0  0  0  0  0  0  0  0  0  0  0  0
   19.7391   73.6425   13.9857 C   0  0  0  0  0  0  0  0  0  0  0  0
   19.0817   73.7708   12.7881 C   0  0  0  0  0  0  0  0  0  0  0  0
   18.9482   75.0395   12.2742 C   0  0  0  0  0  0  0  0  0  0  0  0
   19.4744   76.1323   12.9737 C   0  0  0  0  0  0  0  0  0  0  0  0
   18.5782   72.6175   12.1420 N   0  0  0  0  0  0  0  0  0  0  0  0
   17.6742   72.7056   11.3036 O   0  0  0  0  0  0  0  0  0  0  0  0
   19.0995   71.3985   12.4513 O   0  0  0  0  0  0  0  0  0  0  0  0
  1  2  1  0  0  0
  1  5  1  0  0  0
  2  3  1  0  0  0
  2  9  1  0  0  0
  3  4  1  0  0  0
  4  5  1  0  0  0
  4  8  1  0  0  0
  5  6  2  0  0  0
  6  7  1  0  0  0
  6 10  1  0  0  0
  7  8  2  0  0  0
  8 17  1  0  0  0
 17 18  2  0  0  0
 17 22  1  0  0  0
 18 19  1  0  0  0
 19 20  2  0  0  0
 20 21  1  0  0  0
 20 23  1  0  0  0
 21 22  2  0  0  0
 23 24  2  0  0  0
 23 25  1  0  0  0
 10 11  2  0  0  0
 10 15  1  0  0  0
 11 12  1  0  0  0
 12 13  2  0  0  0
 13 14  1  0  0  0
 13 16  1  0  0  0
 14 15  2  0  0  0
M  CHG 1  25  -1
M  END
> <minimizedAffinity>
-8.95268

$$$$
1209


 24 27  0  0  0  0  0  0  0  0999 V2000
   21.7842   79.9067   16.1087 S   0  0  0  0  0  0  0  0  0  0  0  0
   20.8452   80.7471   17.4150 C   0  0  0  0  0  0  0  0  0  0  0  0
   19.7962   79.7694   17.9132 C   0  0  0  0  0  0  0  0  0  0  0  0
   20.4106   78.3987   18.1079 C   0  0  0  0  0  0  0  0  0  0  0  0
   20.3663   77.7347   16.8155 N   0  0  0  0  0  0  0  0  0  0  0  0
   20.9767   78.3465   15.7974 C   0  0  0  0  0  0  0  0  0  0  0  0
   20.8288   77.5732   14.6650 N   0  0  0  0  0  0  0  0  0  0  0  0
   20.1336   76.4913   14.9746 C   0  0  0  0  0  0  0  0  0  0  0  0
   19.8508   76.6103   16.3331 C   0  0  0  0  0  0  0  0  0  0  0  0
   21.3768   77.9656   13.4087 C   0  0  0  0  0  0  0  0  0  0  0  0
   20.6024   77.9525   12.2619 C   0  0  0  0  0  0  0  0  0  0  0  0
   21.0944   78.3548   11.0363 C   0  0  0  0  0  0  0  0  0  0  0  0
   22.4064   78.7806   10.9720 C   0  0  0  0  0  0  0  0  0  0  0  0
   23.1705   78.7896   12.1196 C   0  0  0  0  0  0  0  0  0  0  0  0
   22.7001   78.3929   13.3523 C   0  0  0  0  0  0  0  0  0  0  0  0
   23.1796   79.3582    9.3107 Br  0  0  0  0  0  0  0  0  0  0  0  0
   19.7047   75.3668   14.1582 C   0  0  0  0  0  0  0  0  0  0  0  0
   20.3036   74.1131   14.3494 C   0  0  0  0  0  0  0  0  0  0  0  0
   19.9424   73.0197   13.6120 C   0  0  0  0  0  0  0  0  0  0  0  0
   18.9728   73.0641   12.6363 C   0  0  0  0  0  0  0  0  0  0  0  0
   18.3813   74.2856   12.4415 C   0  0  0  0  0  0  0  0  0  0  0  0
   18.7364   75.4200   13.1856 C   0  0  0  0  0  0  0  0  0  0  0  0
   18.6329   71.9322   11.9086 O   0  0  0  0  0  0  0  0  0  0  0  0
   17.3266   71.3936   11.9937 C   0  0  0  0  0  0  0  0  0  0  0  0
  1  2  1  0  0  0
  1  6  1  0  0  0
  2  3  1  0  0  0
  3  4  1  0  0  0
  4  5  1  0  0  0
  5  6  2  0  0  0
  5  9  1  0  0  0
  6  7  1  0  0  0
  7  8  1  0  0  0
  7 10  1  0  0  0
  8  9  2  0  0  0
  8 17  1  0  0  0
 17 18  2  0  0  0
 17 22  1  0  0  0
 18 19  1  0  0  0
 19 20  2  0  0  0
 20 21  1  0  0  0
 20 23  1  0  0  0
 21 22  2  0  0  0
 23 24  1  0  0  0
 10 11  2  0  0  0
 10 15  1  0  0  0
 11 12  1  0  0  0
 12 13  2  0  0  0
 13 14  1  0  0  0
 13 16  1  0  0  0
 14 15  2  0  0  0
M  END
> <minimizedAffinity>
-8.90524

$$$$
1211


 26 29  0  0  0  0  0  0  0  0999 V2000
   23.0352   79.6068   15.1611 S   0  0  0  0  0  0  0  0  0  0  0  0
   24.7234   79.8362   15.8440 C   0  0  0  0  0  0  0  0  0  0  0  0
   24.9411   78.6115   16.7353 C   0  0  0  0  0  0  0  0  0  0  0  0
   23.9769   78.7188   17.9124 C   0  0  0  0  0  0  0  0  0  0  0  0
   22.7095   78.1863   17.4771 N   0  0  0  0  0  0  0  0  0  0  0  0
   22.2167   78.5059   16.3087 C   0  0  0  0  0  0  0  0  0  0  0  0
   20.9562   77.7989   16.1656 N   0  0  0  0  0  0  0  0  0  0  0  0
   20.4489   77.8443   17.5198 C   0  0  0  0  0  0  0  0  0  0  0  0
   21.7779   77.2589   18.1269 C   0  0  0  0  0  0  0  0  0  0  0  0
   19.3827   77.0446   17.7842 O   0  0  0  0  0  0  0  0  0  0  0  0
   18.9574   77.3551   18.6419 H   0  0  0  0  0  0  0  0  0  0  0  0
   20.4564   77.1811   15.0012 C   0  0  0  0  0  0  0  0  0  0  0  0
   19.6661   76.0168   15.1623 C   0  0  0  0  0  0  0  0  0  0  0  0
   19.1763   75.3116   14.0766 C   0  0  0  0  0  0  0  0  0  0  0  0
   19.4403   75.7139   12.7962 C   0  0  0  0  0  0  0  0  0  0  0  0
   20.2078   76.8440   12.6063 C   0  0  0  0  0  0  0  0  0  0  0  0
   20.7006   77.5576   13.7160 C   0  0  0  0  0  0  0  0  0  0  0  0
   18.8040   74.7623   11.2673 Br  0  0  0  0  0  0  0  0  0  0  0  0
   20.3268   79.2402   17.9552 C   0  0  0  0  0  0  0  0  0  0  0  0
   20.0228   80.2772   17.0899 C   0  0  0  0  0  0  0  0  0  0  0  0
   19.9564   81.5920   17.5759 C   0  0  0  0  0  0  0  0  0  0  0  0
   20.1796   81.8963   18.8654 C   0  0  0  0  0  0  0  0  0  0  0  0
   20.4888   80.8633   19.7747 C   0  0  0  0  0  0  0  0  0  0  0  0
   20.5447   79.5812   19.2563 C   0  0  0  0  0  0  0  0  0  0  0  0
   20.1242   83.2119   19.3951 O   0  0  0  0  0  0  0  0  0  0  0  0
   20.4635   83.4520   20.7444 C   0  0  0  0  0  0  0  0  0  0  0  0
  1  2  1  0  0  0
  1  6  1  0  0  0
  2  3  1  0  0  0
  3  4  1  0  0  0
  4  5  1  0  0  0
  5  6  2  0  0  0
  5  9  1  0  0  0
  6  7  1  0  0  0
  7  8  1  0  0  0
  7 12  1  0  0  0
  8  9  1  0  0  0
  8 10  1  0  0  0
  8 19  1  0  0  0
 19 20  2  0  0  0
 19 24  1  0  0  0
 20 21  1  0  0  0
 21 22  2  0  0  0
 22 23  1  0  0  0
 22 25  1  0  0  0
 23 24  2  0  0  0
 25 26  1  0  0  0
 12 13  2  0  0  0
 12 17  1  0  0  0
 13 14  1  0  0  0
 14 15  2  0  0  0
 15 16  1  0  0  0
 15 18  1  0  0  0
 16 17  2  0  0  0
 10 11  1  0  0  0
M  END
> <minimizedAffinity>
-8.64899

$$$$
1217


 28 31  0  0  0  0  0  0  0  0999 V2000
   24.0046   76.6597   14.9546 S   0  0  0  0  0  0  0  0  0  0  0  0
   25.6427   77.0149   15.5409 C   0  0  0  0  0  0  0  0  0  0  0  0
   25.6436   78.3402   16.2759 C   0  0  0  0  0  0  0  0  0  0  0  0
   25.2080   79.4411   15.3251 C   0  0  0  0  0  0  0  0  0  0  0  0
   23.7811   79.3680   15.1071 N   0  0  0  0  0  0  0  0  0  0  0  0
   22.7400   80.3283   15.2800 C   0  0  0  0  0  0  0  0  0  0  0  0
   21.8196   79.9132   14.1429 C   0  0  0  0  0  0  0  0  0  0  0  0
   21.9535   78.4740   14.1247 N   0  0  0  0  0  0  0  0  0  0  0  0
   23.1016   78.1914   14.6342 C   0  0  0  0  0  0  0  0  0  0  0  0
   23.2309   81.6144   15.0808 O   0  0  0  0  0  0  0  0  0  0  0  0
   24.1080   81.5788   14.6359 H   0  0  0  0  0  0  0  0  0  0  0  0
   21.9712   80.2193   16.5352 C   0  0  0  0  0  0  0  0  0  0  0  0
   22.3717   79.5937   17.6734 C   0  0  0  0  0  0  0  0  0  0  0  0
   21.5444   79.5194   18.7960 C   0  0  0  0  0  0  0  0  0  0  0  0
   20.2836   80.0784   18.7926 C   0  0  0  0  0  0  0  0  0  0  0  0
   19.8726   80.7073   17.6579 C   0  0  0  0  0  0  0  0  0  0  0  0
   20.6826   80.7799   16.5591 C   0  0  0  0  0  0  0  0  0  0  0  0
   19.1563   79.9627   20.3399 Br  0  0  0  0  0  0  0  0  0  0  0  0
   20.9990   77.5234   13.6753 C   0  0  0  0  0  0  0  0  0  0  0  0
   20.4360   76.6917   14.6342 C   0  0  0  0  0  0  0  0  0  0  0  0
   19.5074   75.7130   14.2655 C   0  0  0  0  0  0  0  0  0  0  0  0
   19.1510   75.5732   12.9357 C   0  0  0  0  0  0  0  0  0  0  0  0
   19.6881   76.3795   11.9607 C   0  0  0  0  0  0  0  0  0  0  0  0
   20.6164   77.3448   12.3974 C   0  0  0  0  0  0  0  0  0  0  0  0
   19.3729   76.2902   10.6158 O   0  0  0  0  0  0  0  0  0  0  0  0
   19.1820   75.1076    9.8930 C   0  0  0  0  0  0  0  0  0  0  0  0
   20.7960   76.8325   15.9572 O   0  0  0  0  0  0  0  0  0  0  0  0
   19.8979   76.9100   17.0391 C   0  0  0  0  0  0  0  0  0  0  0  0
  1  2  1  0  0  0
  1  9  1  0  0  0
  2  3  1  0  0  0
  3  4  1  0  0  0
  4  5  1  0  0  0
  5  6  1  0  0  0
  5  9  1  0  0  0
  6  7  1  0  0  0
  6 10  1  0  0  0
  6 12  1  0  0  0
  7  8  1  0  0  0
  8  9  2  0  0  0
  8 19  1  0  0  0
 19 20  2  0  0  0
 19 24  1  0  0  0
 20 21  1  0  0  0
 20 27  1  0  0  0
 21 22  2  0  0  0
 22 23  1  0  0  0
 23 24  2  0  0  0
 23 25  1  0  0  0
 25 26  1  0  0  0
 27 28  1  0  0  0
 12 13  2  0  0  0
 12 17  1  0  0  0
 13 14  1  0  0  0
 14 15  2  0  0  0
 15 16  1  0  0  0
 15 18  1  0  0  0
 16 17  2  0  0  0
 10 11  1  0  0  0
M  END
> <minimizedAffinity>
-8.02293

$$$$
1219


 27 30  0  0  0  0  0  0  0  0999 V2000
   23.7265   79.0923   14.9882 S   0  0  0  0  0  0  0  0  0  0  0  0
   25.3098   78.5126   15.7267 C   0  0  0  0  0  0  0  0  0  0  0  0
   25.0033   77.6385   16.9304 C   0  0  0  0  0  0  0  0  0  0  0  0
   23.9495   78.2683   17.8040 C   0  0  0  0  0  0  0  0  0  0  0  0
   22.6527   78.0097   17.2640 N   0  0  0  0  0  0  0  0  0  0  0  0
   21.3506   77.6248   17.7762 C   0  0  0  0  0  0  0  0  0  0  0  0
   20.7288   76.8824   16.6067 C   0  0  0  0  0  0  0  0  0  0  0  0
   21.4060   77.5239   15.4619 N   0  0  0  0  0  0  0  0  0  0  0  0
   22.4591   78.1284   15.8456 C   0  0  0  0  0  0  0  0  0  0  0  0
   21.4406   76.8383   18.9076 O   0  0  0  0  0  0  0  0  0  0  0  0
   21.2309   75.9007   18.7923 H   0  0  0  0  0  0  0  0  0  0  0  0
   20.9424   77.4506   14.1166 C   0  0  0  0  0  0  0  0  0  0  0  0
   21.2580   78.3116   13.1071 C   0  0  0  0  0  0  0  0  0  0  0  0
   20.7837   78.1693   11.8103 C   0  0  0  0  0  0  0  0  0  0  0  0
   19.9497   77.1143   11.5009 C   0  0  0  0  0  0  0  0  0  0  0  0
   19.6060   76.2167   12.5051 C   0  0  0  0  0  0  0  0  0  0  0  0
   20.0933   76.3798   13.7959 C   0  0  0  0  0  0  0  0  0  0  0  0
   19.2402   76.8364    9.7457 Br  0  0  0  0  0  0  0  0  0  0  0  0
   20.5040   78.8068   18.0648 C   0  0  0  0  0  0  0  0  0  0  0  0
   20.9915   79.8202   18.8663 C   0  0  0  0  0  0  0  0  0  0  0  0
   20.1609   80.9137   19.1110 C   0  0  0  0  0  0  0  0  0  0  0  0
   18.9092   80.9825   18.5782 C   0  0  0  0  0  0  0  0  0  0  0  0
   18.4084   79.9758   17.7730 C   0  0  0  0  0  0  0  0  0  0  0  0
   19.2479   78.8817   17.5318 C   0  0  0  0  0  0  0  0  0  0  0  0
   20.6527   81.9596   19.9325 N   0  0  0  0  0  0  0  0  0  0  0  0
   21.0918   81.7440   21.0784 O   0  0  0  0  0  0  0  0  0  0  0  0
   20.6659   83.2548   19.4983 O   0  0  0  0  0  0  0  0  0  0  0  0
  1  2  1  0  0  0
  1  9  1  0  0  0
  2  3  1  0  0  0
  3  4  1  0  0  0
  4  5  1  0  0  0
  5  6  1  0  0  0
  5  9  1  0  0  0
  6  7  1  0  0  0
  6 10  1  0  0  0
  6 19  1  0  0  0
  7  8  1  0  0  0
  8  9  2  0  0  0
  8 12  1  0  0  0
 12 13  2  0  0  0
 12 17  1  0  0  0
 13 14  1  0  0  0
 14 15  2  0  0  0
 15 16  1  0  0  0
 15 18  1  0  0  0
 16 17  2  0  0  0
 19 20  2  0  0  0
 19 24  1  0  0  0
 20 21  1  0  0  0
 21 22  2  0  0  0
 21 25  1  0  0  0
 22 23  1  0  0  0
 23 24  2  0  0  0
 25 26  2  0  0  0
 25 27  1  0  0  0
 10 11  1  0  0  0
M  CHG 1  27  -1
M  END
> <minimizedAffinity>
-8.86675

$$$$
1220


 27 30  0  0  0  0  0  0  0  0999 V2000
   23.7741   79.0969   17.3714 S   0  0  0  0  0  0  0  0  0  0  0  0
   24.7380   79.3138   15.8212 C   0  0  0  0  0  0  0  0  0  0  0  0
   24.2483   78.4900   14.7056 C   0  0  0  0  0  0  0  0  0  0  0  0
   23.2570   77.4307   14.9634 C   0  0  0  0  0  0  0  0  0  0  0  0
   22.1170   77.7511   15.7202 N   0  0  0  0  0  0  0  0  0  0  0  0
   20.7743   77.2571   15.7616 C   0  0  0  0  0  0  0  0  0  0  0  0
   20.0204   78.5236   16.1032 C   0  0  0  0  0  0  0  0  0  0  0  0
   20.9609   79.2012   16.9699 N   0  0  0  0  0  0  0  0  0  0  0  0
   22.1141   78.7769   16.7464 C   0  0  0  0  0  0  0  0  0  0  0  0
   20.6318   76.4058   16.8603 O   0  0  0  0  0  0  0  0  0  0  0  0
   19.7693   76.5679   17.2760 H   0  0  0  0  0  0  0  0  0  0  0  0
   20.6120   80.1917   17.9442 C   0  0  0  0  0  0  0  0  0  0  0  0
   20.2613   79.7706   19.2192 C   0  0  0  0  0  0  0  0  0  0  0  0
   19.8903   80.6750   20.2117 C   0  0  0  0  0  0  0  0  0  0  0  0
   19.8590   82.0271   19.9519 C   0  0  0  0  0  0  0  0  0  0  0  0
   20.2038   82.4593   18.6942 C   0  0  0  0  0  0  0  0  0  0  0  0
   20.5709   81.5267   17.7160 C   0  0  0  0  0  0  0  0  0  0  0  0
   19.3291   83.2692   21.3221 Br  0  0  0  0  0  0  0  0  0  0  0  0
   20.2692   76.6351   14.5230 C   0  0  0  0  0  0  0  0  0  0  0  0
   19.6743   75.3822   14.6366 C   0  0  0  0  0  0  0  0  0  0  0  0
   19.1698   74.7224   13.5383 C   0  0  0  0  0  0  0  0  0  0  0  0
   19.2282   75.2712   12.2695 C   0  0  0  0  0  0  0  0  0  0  0  0
   19.8156   76.5163   12.1513 C   0  0  0  0  0  0  0  0  0  0  0  0
   20.3279   77.1839   13.2686 C   0  0  0  0  0  0  0  0  0  0  0  0
   18.6999   74.5739   11.1569 N   0  0  0  0  0  0  0  0  0  0  0  0
   18.8632   74.9323    9.9851 O   0  0  0  0  0  0  0  0  0  0  0  0
   17.9690   73.4337   11.3737 O   0  0  0  0  0  0  0  0  0  0  0  0
  1  2  1  0  0  0
  1  9  1  0  0  0
  2  3  1  0  0  0
  3  4  1  0  0  0
  4  5  1  0  0  0
  5  6  1  0  0  0
  5  9  1  0  0  0
  6  7  1  0  0  0
  6 10  1  0  0  0
  6 19  1  0  0  0
  7  8  1  0  0  0
  8  9  2  0  0  0
  8 12  1  0  0  0
 12 13  2  0  0  0
 12 17  1  0  0  0
 13 14  1  0  0  0
 14 15  2  0  0  0
 15 16  1  0  0  0
 15 18  1  0  0  0
 16 17  2  0  0  0
 19 20  2  0  0  0
 19 24  1  0  0  0
 20 21  1  0  0  0
 21 22  2  0  0  0
 22 23  1  0  0  0
 22 25  1  0  0  0
 23 24  2  0  0  0
 25 26  2  0  0  0
 25 27  1  0  0  0
 10 11  1  0  0  0
M  CHG 1  27  -1
M  END
> <minimizedAffinity>
-9.36616

$$$$
1222


 24 27  0  0  0  0  0  0  0  0999 V2000
   20.8517   76.4072   14.6449 S   0  0  0  0  0  0  0  0  0  0  0  0
   19.1789   76.1311   15.3821 C   0  0  0  0  0  0  0  0  0  0  0  0
   18.9970   76.9957   16.6025 C   0  0  0  0  0  0  0  0  0  0  0  0
   20.2889   77.3175   17.3221 C   0  0  0  0  0  0  0  0  0  0  0  0
   21.1222   78.2275   16.6387 N   0  0  0  0  0  0  0  0  0  0  0  0
   22.0350   79.3545   16.8985 C   0  0  0  0  0  0  0  0  0  0  0  0
   21.6926   80.1803   15.6814 C   0  0  0  0  0  0  0  0  0  0  0  0
   21.6228   79.1561   14.6497 N   0  0  0  0  0  0  0  0  0  0  0  0
   21.2244   78.1054   15.1928 C   0  0  0  0  0  0  0  0  0  0  0  0
   21.7376   80.0340   18.0398 O   0  0  0  0  0  0  0  0  0  0  0  0
   21.6212   79.4861   18.8555 H   0  0  0  0  0  0  0  0  0  0  0  0
   22.0148   79.3297   13.2709 C   0  0  0  0  0  0  0  0  0  0  0  0
   21.2115   79.7995   12.2801 C   0  0  0  0  0  0  0  0  0  0  0  0
   21.6149   79.9073   10.9551 C   0  0  0  0  0  0  0  0  0  0  0  0
   22.8826   79.5265   10.6021 C   0  0  0  0  0  0  0  0  0  0  0  0
   23.7028   79.0493   11.6062 C   0  0  0  0  0  0  0  0  0  0  0  0
   23.3035   78.9438   12.9096 C   0  0  0  0  0  0  0  0  0  0  0  0
   23.5263   79.6355    8.7967 Br  0  0  0  0  0  0  0  0  0  0  0  0
   23.4648   78.9070   16.8135 C   0  0  0  0  0  0  0  0  0  0  0  0
   23.8594   77.6061   17.0604 C   0  0  0  0  0  0  0  0  0  0  0  0
   25.2036   77.2737   16.9528 C   0  0  0  0  0  0  0  0  0  0  0  0
   26.1801   78.1973   16.6030 C   0  0  0  0  0  0  0  0  0  0  0  0
   25.7966   79.4874   16.3563 C   0  0  0  0  0  0  0  0  0  0  0  0
   24.4484   79.8251   16.4664 C   0  0  0  0  0  0  0  0  0  0  0  0
  1  2  1  0  0  0
  1  9  1  0  0  0
  2  3  1  0  0  0
  3  4  1  0  0  0
  4  5  1  0  0  0
  5  6  1  0  0  0
  5  9  1  0  0  0
  6  7  1  0  0  0
  6 10  1  0  0  0
  6 19  1  0  0  0
  7  8  1  0  0  0
  8  9  2  0  0  0
  8 12  1  0  0  0
 12 13  2  0  0  0
 12 17  1  0  0  0
 13 14  1  0  0  0
 14 15  2  0  0  0
 15 16  1  0  0  0
 15 18  1  0  0  0
 16 17  2  0  0  0
 19 20  2  0  0  0
 19 24  1  0  0  0
 20 21  1  0  0  0
 21 22  2  0  0  0
 22 23  1  0  0  0
 23 24  2  0  0  0
 10 11  1  0  0  0
M  END
> <minimizedAffinity>
-8.25337

$$$$
1224


 26 29  0  0  0  0  0  0  0  0999 V2000
   23.5046   77.5925   17.2204 S   0  0  0  0  0  0  0  0  0  0  0  0
   25.2782   77.4435   16.7557 C   0  0  0  0  0  0  0  0  0  0  0  0
   25.2736   76.9371   15.3207 C   0  0  0  0  0  0  0  0  0  0  0  0
   24.7773   77.9733   14.3621 C   0  0  0  0  0  0  0  0  0  0  0  0
   23.4121   78.3585   14.5471 N   0  0  0  0  0  0  0  0  0  0  0  0
   22.2777   78.6559   13.6674 C   0  0  0  0  0  0  0  0  0  0  0  0
   21.7511   79.8729   14.4512 C   0  0  0  0  0  0  0  0  0  0  0  0
   21.8669   79.4047   15.8202 N   0  0  0  0  0  0  0  0  0  0  0  0
   22.8156   78.5596   15.8573 C   0  0  0  0  0  0  0  0  0  0  0  0
   22.7343   79.0232   12.4236 O   0  0  0  0  0  0  0  0  0  0  0  0
   22.8398   79.9990   12.3238 H   0  0  0  0  0  0  0  0  0  0  0  0
   21.2627   77.5876   13.6619 C   0  0  0  0  0  0  0  0  0  0  0  0
   20.9226   76.7982   14.7381 C   0  0  0  0  0  0  0  0  0  0  0  0
   19.9439   75.8240   14.6306 C   0  0  0  0  0  0  0  0  0  0  0  0
   19.2945   75.6290   13.4458 C   0  0  0  0  0  0  0  0  0  0  0  0
   19.6229   76.4096   12.3592 C   0  0  0  0  0  0  0  0  0  0  0  0
   20.5937   77.3711   12.4789 C   0  0  0  0  0  0  0  0  0  0  0  0
   17.9292   74.2938   13.2301 Br  0  0  0  0  0  0  0  0  0  0  0  0
   21.0064   79.8780   16.8811 C   0  0  0  0  0  0  0  0  0  0  0  0
   21.1416   81.1807   17.3521 C   0  0  0  0  0  0  0  0  0  0  0  0
   20.3388   81.6600   18.3639 C   0  0  0  0  0  0  0  0  0  0  0  0
   19.3656   80.8908   18.9651 C   0  0  0  0  0  0  0  0  0  0  0  0
   19.2263   79.6029   18.5066 C   0  0  0  0  0  0  0  0  0  0  0  0
   20.0465   79.1178   17.4755 C   0  0  0  0  0  0  0  0  0  0  0  0
   18.5725   81.4099   19.9825 O   0  0  0  0  0  0  0  0  0  0  0  0
   18.8581   82.5567   20.7315 C   0  0  0  0  0  0  0  0  0  0  0  0
  1  2  1  0  0  0
  1  9  1  0  0  0
  2  3  1  0  0  0
  3  4  1  0  0  0
  4  5  1  0  0  0
  5  6  1  0  0  0
  5  9  1  0  0  0
  6  7  1  0  0  0
  6 10  1  0  0  0
  6 12  1  0  0  0
  7  8  1  0  0  0
  8  9  2  0  0  0
  8 19  1  0  0  0
 19 20  2  0  0  0
 19 24  1  0  0  0
 20 21  1  0  0  0
 21 22  2  0  0  0
 22 23  1  0  0  0
 22 25  1  0  0  0
 23 24  2  0  0  0
 25 26  1  0  0  0
 12 13  2  0  0  0
 12 17  1  0  0  0
 13 14  1  0  0  0
 14 15  2  0  0  0
 15 16  1  0  0  0
 15 18  1  0  0  0
 16 17  2  0  0  0
 10 11  1  0  0  0
M  END
> <minimizedAffinity>
-8.75285

$$$$
1226


 24 27  0  0  0  0  0  0  0  0999 V2000
   21.6329   77.5830   14.5692 S   0  0  0  0  0  0  0  0  0  0  0  0
   20.1296   76.6537   14.1573 C   0  0  0  0  0  0  0  0  0  0  0  0
   19.6587   76.0052   15.4628 C   0  0  0  0  0  0  0  0  0  0  0  0
   19.2440   77.1302   16.4244 C   0  0  0  0  0  0  0  0  0  0  0  0
   20.4573   77.6141   17.0940 N   0  0  0  0  0  0  0  0  0  0  0  0
   20.7497   77.9693   18.4226 C   0  0  0  0  0  0  0  0  0  0  0  0
   22.2723   78.0337   18.4814 C   0  0  0  0  0  0  0  0  0  0  0  0
   22.6813   77.9526   17.1129 N   0  0  0  0  0  0  0  0  0  0  0  0
   21.6708   77.7553   16.3689 C   0  0  0  0  0  0  0  0  0  0  0  0
   20.3860   76.9072   19.2805 O   0  0  0  0  0  0  0  0  0  0  0  0
   19.3942   76.8685   19.2651 H   0  0  0  0  0  0  0  0  0  0  0  0
   20.2032   79.2112   18.9656 C   0  0  0  0  0  0  0  0  0  0  0  0
   20.7291   80.3946   18.4495 C   0  0  0  0  0  0  0  0  0  0  0  0
   20.3015   81.6534   18.8290 C   0  0  0  0  0  0  0  0  0  0  0  0
   19.3104   81.7818   19.7628 C   0  0  0  0  0  0  0  0  0  0  0  0
   18.7756   80.6189   20.2875 C   0  0  0  0  0  0  0  0  0  0  0  0
   19.2145   79.3577   19.8952 C   0  0  0  0  0  0  0  0  0  0  0  0
   18.6592   83.5079   20.3272 Br  0  0  0  0  0  0  0  0  0  0  0  0
   24.0607   78.0396   16.7202 C   0  0  0  0  0  0  0  0  0  0  0  0
   24.7765   79.1408   17.0627 C   0  0  0  0  0  0  0  0  0  0  0  0
   26.1180   79.1863   16.6966 C   0  0  0  0  0  0  0  0  0  0  0  0
   26.7399   78.1686   16.0088 C   0  0  0  0  0  0  0  0  0  0  0  0
   25.9705   77.0710   15.6809 C   0  0  0  0  0  0  0  0  0  0  0  0
   24.6434   76.9928   16.0265 C   0  0  0  0  0  0  0  0  0  0  0  0
  1  2  1  0  0  0
  1  9  1  0  0  0
  2  3  1  0  0  0
  3  4  1  0  0  0
  4  5  1  0  0  0
  5  6  1  0  0  0
  5  9  1  0  0  0
  6  7  1  0  0  0
  6 10  1  0  0  0
  6 12  1  0  0  0
  7  8  1  0  0  0
  8  9  2  0  0  0
  8 19  1  0  0  0
 19 20  2  0  0  0
 19 24  1  0  0  0
 20 21  1  0  0  0
 21 22  2  0  0  0
 22 23  1  0  0  0
 23 24  2  0  0  0
 12 13  2  0  0  0
 12 17  1  0  0  0
 13 14  1  0  0  0
 14 15  2  0  0  0
 15 16  1  0  0  0
 15 18  1  0  0  0
 16 17  2  0  0  0
 10 11  1  0  0  0
M  END
> <minimizedAffinity>
-9.63243

$$$$
1231


 37 40  0  0  0  0  0  0  0  0999 V2000
   18.7005   76.9558    7.8267 C   0  0  0  0  0  0  0  0  0  0  0  0
   17.8059   77.0694    6.8369 N   0  0  0  0  0  0  0  0  0  0  0  0
   17.2788   78.2998    6.9676 N   0  0  0  0  0  0  0  0  0  0  0  0
   17.7964   78.9252    7.9626 N   0  0  0  0  0  0  0  0  0  0  0  0
   18.7377   78.1292    8.5876 C   0  0  0  0  0  0  0  0  0  0  0  0
   17.4209   76.1858    5.7870 C   0  0  0  0  0  0  0  0  0  0  0  0
   18.2118   75.5094    4.9287 N   0  0  0  0  0  0  0  0  0  0  0  0
   17.5363   74.7806    4.1215 O   0  0  0  0  0  0  0  0  0  0  0  0
   16.2800   74.9336    4.3994 N   0  0  0  0  0  0  0  0  0  0  0  0
   16.1410   75.8072    5.4410 C   0  0  0  0  0  0  0  0  0  0  0  0
   14.9281   76.2116    6.0431 N   0  0  0  0  0  0  0  0  0  0  0  0
   14.1581   75.5994    5.6648 H   0  0  0  0  0  0  0  0  0  0  0  0
   14.6906   77.2100    5.9084 H   0  0  0  0  0  0  0  0  0  0  0  0
   14.9781   76.0081    7.0785 H   0  0  0  0  0  0  0  0  0  0  0  0
   19.5098   78.5438    9.7299 C   0  0  0  0  0  0  0  0  0  0  0  0
   18.8471   78.8225   10.8058 O   0  0  0  0  0  0  0  0  0  0  0  0
   20.8896   78.6882    9.8384 N   0  0  0  0  0  0  0  0  0  0  0  0
   21.6148   78.5325    9.1180 H   0  0  0  0  0  0  0  0  0  0  0  0
   21.4672   79.1148   11.0847 N   0  0  0  0  0  0  0  0  0  0  0  0
   21.7427   78.2905   12.0162 C   0  0  0  0  0  0  0  0  0  0  0  0
   22.3278   78.6809   13.2915 C   0  0  0  0  0  0  0  0  0  0  0  0
   23.4762   78.0929   13.7715 C   0  0  0  0  0  0  0  0  0  0  0  0
   24.0462   78.4562   14.9739 C   0  0  0  0  0  0  0  0  0  0  0  0
   23.4815   79.4332   15.7527 C   0  0  0  0  0  0  0  0  0  0  0  0
   22.3096   80.0549   15.2944 C   0  0  0  0  0  0  0  0  0  0  0  0
   21.7647   79.6692   14.0884 C   0  0  0  0  0  0  0  0  0  0  0  0
   24.0710   79.7825   16.9583 O   0  0  0  0  0  0  0  0  0  0  0  0
   25.6423   77.6102   15.5982 Br  0  0  0  0  0  0  0  0  0  0  0  0
   21.7964   81.0248   16.1235 O   0  0  0  0  0  0  0  0  0  0  0  0
   20.8705   80.8139   17.1604 C   0  0  0  0  0  0  0  0  0  0  0  0
   19.5716   75.8039    8.1076 C   0  0  0  0  0  0  0  0  0  0  0  0
   18.8409   74.4167    8.9510 S   0  0  0  0  0  0  0  0  0  0  0  0
   18.1947   73.3530   11.8315 S   0  0  0  0  0  0  0  0  0  0  0  0
   18.3125   74.3571   13.3437 C   0  0  0  0  0  0  0  0  0  0  0  0
   19.1210   75.5025   12.8243 C   0  0  0  0  0  0  0  0  0  0  0  0
   19.2148   75.5409   11.4544 N   0  0  0  0  0  0  0  0  0  0  0  0
   18.8314   74.6146   10.7282 C   0  0  0  0  0  0  0  0  0  0  0  0
 33 34  1  0  0  0
 33 37  1  0  0  0
 34 35  1  0  0  0
 35 36  1  0  0  0
 36 37  2  0  0  0
 37 32  1  0  0  0
 32 31  1  0  0  0
 31  1  1  0  0  0
  1  2  1  0  0  0
  1  5  2  0  0  0
  2  3  1  0  0  0
  2  6  1  0  0  0
  3  4  2  0  0  0
  4  5  1  0  0  0
  5 15  1  0  0  0
 15 16  2  0  0  0
 15 17  1  0  0  0
 17 19  1  0  0  0
 19 20  2  0  0  0
 20 21  1  0  0  0
 21 22  2  0  0  0
 21 26  1  0  0  0
 22 23  1  0  0  0
 23 24  2  0  0  0
 23 28  1  0  0  0
 24 25  1  0  0  0
 24 27  1  0  0  0
 25 26  2  0  0  0
 25 29  1  0  0  0
 29 30  1  0  0  0
  6  7  2  0  0  0
  6 10  1  0  0  0
  7  8  1  0  0  0
  8  9  1  0  0  0
  9 10  2  0  0  0
 10 11  1  0  0  0
 17 18  1  0  0  0
 11 12  1  0  0  0
 11 13  1  0  0  0
 11 14  1  0  0  0
M  CHG 1  11   1
M  CHG 1  27  -1
M  END
> <minimizedAffinity>
-9.01326

$$$$
1236


 30 34  0  0  0  0  0  0  0  0999 V2000
   22.8428   78.1731   13.0196 C   0  0  0  0  0  0  0  0  0  0  0  0
   20.0023   78.5277    8.9888 S   0  0  0  0  0  0  0  0  0  0  0  0
   19.4876   80.2879    9.2770 C   0  0  0  0  0  0  0  0  0  0  0  0
   20.0364   80.4168   10.6748 C   0  0  0  0  0  0  0  0  0  0  0  0
   21.3275   79.7954   10.7631 N   0  0  0  0  0  0  0  0  0  0  0  0
   21.5135   78.6813    9.9187 C   0  0  0  0  0  0  0  0  0  0  0  0
   22.5995   78.0330    9.9187 N   0  0  0  0  0  0  0  0  0  0  0  0
   23.7020   78.3601   10.7870 C   0  0  0  0  0  0  0  0  0  0  0  0
   24.8876   78.0251   10.5441 O   0  0  0  0  0  0  0  0  0  0  0  0
   23.3890   79.1320   12.0208 C   0  0  0  0  0  0  0  0  0  0  0  0
   22.4208   80.1841   11.6351 C   0  0  0  0  0  0  0  0  0  0  0  0
   22.4762   81.3821   12.0043 O   0  0  0  0  0  0  0  0  0  0  0  0
   21.5354   78.6089   13.6337 C   0  0  0  0  0  0  0  0  0  0  0  0
   21.6722   79.2960   14.9280 C   0  0  0  0  0  0  0  0  0  0  0  0
   22.0656   80.5144   14.9650 O   0  0  0  0  0  0  0  0  0  0  0  0
   21.3656   78.5990   16.1615 N   0  0  0  0  0  0  0  0  0  0  0  0
   21.6688   79.0425   17.4940 C   0  0  0  0  0  0  0  0  0  0  0  0
   21.9059   77.8658   18.4075 C   0  0  0  0  0  0  0  0  0  0  0  0
   20.5165   76.8110   17.7800 S   0  0  0  0  0  0  0  0  0  0  0  0
   20.6777   77.3678   16.0849 C   0  0  0  0  0  0  0  0  0  0  0  0
   20.3128   76.8452   14.9789 N   0  0  0  0  0  0  0  0  0  0  0  0
   20.5796   77.4763   13.7164 C   0  0  0  0  0  0  0  0  0  0  0  0
   19.9801   77.0383   12.7026 O   0  0  0  0  0  0  0  0  0  0  0  0
   23.8772   77.8993   14.0420 C   0  0  0  0  0  0  0  0  0  0  0  0
   24.7013   78.9145   14.5114 C   0  0  0  0  0  0  0  0  0  0  0  0
   25.6662   78.6714   15.4663 C   0  0  0  0  0  0  0  0  0  0  0  0
   25.8340   77.4048   15.9803 C   0  0  0  0  0  0  0  0  0  0  0  0
   25.0252   76.4113   15.5184 C   0  0  0  0  0  0  0  0  0  0  0  0
   24.0558   76.6386   14.5632 C   0  0  0  0  0  0  0  0  0  0  0  0
   26.8024   80.0598   16.1174 Br  0  0  0  0  0  0  0  0  0  0  0  0
  2  3  1  0  0  0
  2  6  1  0  0  0
  3  4  1  0  0  0
  4  5  1  0  0  0
  5  6  1  0  0  0
  5 11  1  0  0  0
  6  7  2  0  0  0
  7  8  1  0  0  0
  8  9  2  0  0  0
  8 10  1  0  0  0
 10 11  1  0  0  0
 10  1  1  0  0  0
 11 12  2  0  0  0
  1 13  1  0  0  0
  1 24  1  0  0  0
 13 14  1  0  0  0
 13 22  1  0  0  0
 14 15  2  0  0  0
 14 16  1  0  0  0
 16 17  1  0  0  0
 16 20  1  0  0  0
 17 18  1  0  0  0
 18 19  1  0  0  0
 19 20  1  0  0  0
 20 21  2  0  0  0
 21 22  1  0  0  0
 22 23  2  0  0  0
 24 25  2  0  0  0
 24 29  1  0  0  0
 25 26  1  0  0  0
 26 27  2  0  0  0
 26 30  1  0  0  0
 27 28  1  0  0  0
 28 29  2  0  0  0
M  END
> <minimizedAffinity>
-5.64903

$$$$
1237


 30 34  0  0  0  0  0  0  0  0999 V2000
   20.9431   77.9827   15.5724 C   0  0  0  0  0  0  0  0  0  0  0  0
   23.5293   78.9457   11.0250 S   0  0  0  0  0  0  0  0  0  0  0  0
   22.3188   80.3393   11.0155 C   0  0  0  0  0  0  0  0  0  0  0  0
   22.5253   80.8336   12.4126 C   0  0  0  0  0  0  0  0  0  0  0  0
   22.7467   79.7701   13.3181 N   0  0  0  0  0  0  0  0  0  0  0  0
   23.3420   78.6035   12.7945 C   0  0  0  0  0  0  0  0  0  0  0  0
   23.6243   77.5522   13.4958 N   0  0  0  0  0  0  0  0  0  0  0  0
   23.3747   77.5302   14.9285 C   0  0  0  0  0  0  0  0  0  0  0  0
   24.1223   76.7319   15.5445 O   0  0  0  0  0  0  0  0  0  0  0  0
   22.3459   78.3990   15.4266 C   0  0  0  0  0  0  0  0  0  0  0  0
   22.4509   79.7374   14.7332 C   0  0  0  0  0  0  0  0  0  0  0  0
   22.2884   80.8007   15.3586 O   0  0  0  0  0  0  0  0  0  0  0  0
   20.3996   77.5173   16.8551 C   0  0  0  0  0  0  0  0  0  0  0  0
   21.2188   78.1792   17.9630 C   0  0  0  0  0  0  0  0  0  0  0  0
   22.3510   77.7304   18.2536 O   0  0  0  0  0  0  0  0  0  0  0  0
   20.6876   79.3218   18.6733 N   0  0  0  0  0  0  0  0  0  0  0  0
   21.4050   80.2512   19.4755 C   0  0  0  0  0  0  0  0  0  0  0  0
   20.7530   81.6115   19.4576 C   0  0  0  0  0  0  0  0  0  0  0  0
   18.9946   81.0249   19.5299 S   0  0  0  0  0  0  0  0  0  0  0  0
   19.2916   79.5415   18.5844 C   0  0  0  0  0  0  0  0  0  0  0  0
   18.4917   78.7981   17.9280 N   0  0  0  0  0  0  0  0  0  0  0  0
   19.0112   77.6379   17.2114 C   0  0  0  0  0  0  0  0  0  0  0  0
   18.1655   76.7664   16.9410 O   0  0  0  0  0  0  0  0  0  0  0  0
   20.4518   77.1838   14.3844 C   0  0  0  0  0  0  0  0  0  0  0  0
   20.3628   77.7536   13.1371 C   0  0  0  0  0  0  0  0  0  0  0  0
   19.9078   76.9990   12.0856 C   0  0  0  0  0  0  0  0  0  0  0  0
   19.5356   75.6982   12.2151 C   0  0  0  0  0  0  0  0  0  0  0  0
   19.6127   75.1009   13.4489 C   0  0  0  0  0  0  0  0  0  0  0  0
   20.0752   75.8685   14.5184 C   0  0  0  0  0  0  0  0  0  0  0  0
   18.9004   74.6507   10.7384 Br  0  0  0  0  0  0  0  0  0  0  0  0
  2  3  1  0  0  0
  2  6  1  0  0  0
  3  4  1  0  0  0
  4  5  1  0  0  0
  5  6  1  0  0  0
  5 11  1  0  0  0
  6  7  2  0  0  0
  7  8  1  0  0  0
  8  9  2  0  0  0
  8 10  1  0  0  0
 10 11  1  0  0  0
 10  1  1  0  0  0
 11 12  2  0  0  0
  1 13  1  0  0  0
  1 24  1  0  0  0
 13 14  1  0  0  0
 13 22  1  0  0  0
 14 15  2  0  0  0
 14 16  1  0  0  0
 16 17  1  0  0  0
 16 20  1  0  0  0
 17 18  1  0  0  0
 18 19  1  0  0  0
 19 20  1  0  0  0
 20 21  2  0  0  0
 21 22  1  0  0  0
 22 23  2  0  0  0
 24 25  2  0  0  0
 24 29  1  0  0  0
 25 26  1  0  0  0
 26 27  2  0  0  0
 27 28  1  0  0  0
 27 30  1  0  0  0
 28 29  2  0  0  0
M  END
> <minimizedAffinity>
-6.56881

$$$$
1248


 21 24  0  0  0  0  0  0  0  0999 V2000
   19.1276   80.0254   19.5105 S   0  0  0  0  0  0  0  0  0  0  0  0
   19.9250   78.6067   18.9615 C   0  0  0  0  0  0  0  0  0  0  0  0
   20.9883   79.1272   18.3508 N   0  0  0  0  0  0  0  0  0  0  0  0
   21.6755   78.0299   17.8847 C   0  0  0  0  0  0  0  0  0  0  0  0
   21.0207   76.9196   18.2211 N   0  0  0  0  0  0  0  0  0  0  0  0
   19.9309   77.2368   18.8897 N   0  0  0  0  0  0  0  0  0  0  0  0
   21.1324   80.3902   18.3283 N   0  0  0  0  0  0  0  0  0  0  0  0
   20.2479   81.1851   18.8978 C   0  0  0  0  0  0  0  0  0  0  0  0
   20.2123   82.6481   18.9926 C   0  0  0  0  0  0  0  0  0  0  0  0
   20.0745   83.5126   17.9800 N   0  0  0  0  0  0  0  0  0  0  0  0
   20.0880   84.7650   18.4642 N   0  0  0  0  0  0  0  0  0  0  0  0
   20.2354   84.7104   19.8029 C   0  0  0  0  0  0  0  0  0  0  0  0
   20.3147   83.3563   20.1386 C   0  0  0  0  0  0  0  0  0  0  0  0
   20.5271   82.7227   21.9021 Br  0  0  0  0  0  0  0  0  0  0  0  0
   19.9974   85.6282   17.8814 H   0  0  0  0  0  0  0  0  0  0  0  0
   22.9432   78.0562   17.1268 C   0  0  0  0  0  0  0  0  0  0  0  0
   23.1556   77.2160   16.0970 N   0  0  0  0  0  0  0  0  0  0  0  0
   24.3201   77.2496   15.4117 C   0  0  0  0  0  0  0  0  0  0  0  0
   25.2994   78.1401   15.7555 C   0  0  0  0  0  0  0  0  0  0  0  0
   25.0741   78.9675   16.7772 N   0  0  0  0  0  0  0  0  0  0  0  0
   23.9202   78.9549   17.4799 C   0  0  0  0  0  0  0  0  0  0  0  0
  1  2  1  0  0  0
  1  8  1  0  0  0
  2  3  1  0  0  0
  2  6  2  0  0  0
  3  4  1  0  0  0
  3  7  1  0  0  0
  4  5  2  0  0  0
  4 16  1  0  0  0
  5  6  1  0  0  0
 16 17  2  0  0  0
 16 21  1  0  0  0
 17 18  1  0  0  0
 18 19  2  0  0  0
 19 20  1  0  0  0
 20 21  2  0  0  0
  7  8  2  0  0  0
  8  9  1  0  0  0
  9 10  2  0  0  0
  9 13  1  0  0  0
 10 11  1  0  0  0
 11 12  1  0  0  0
 12 13  2  0  0  0
 13 14  1  0  0  0
 11 15  1  0  0  0
M  END
> <minimizedAffinity>
-8.91178

$$$$
1255


 34 38  0  0  0  0  0  0  0  0999 V2000
   21.3811   77.8536   10.4678 C   0  0  0  0  0  0  0  0  0  0  0  0
   24.0875   79.0113   14.1448 S   0  0  0  0  0  0  0  0  0  0  0  0
   23.6884   79.0472   12.4052 C   0  0  0  0  0  0  0  0  0  0  0  0
   24.1994   78.4077   11.4040 N   0  0  0  0  0  0  0  0  0  0  0  0
   23.6769   78.6274   10.0734 C   0  0  0  0  0  0  0  0  0  0  0  0
   24.3153   78.5275    9.0269 O   0  0  0  0  0  0  0  0  0  0  0  0
   22.2019   79.0155    9.9845 C   0  0  0  0  0  0  0  0  0  0  0  0
   22.1428   80.1853   10.9167 C   0  0  0  0  0  0  0  0  0  0  0  0
   21.6955   81.3187   10.5785 O   0  0  0  0  0  0  0  0  0  0  0  0
   22.6350   79.9779   12.2725 N   0  0  0  0  0  0  0  0  0  0  0  0
   22.2115   80.5798   13.4265 N   0  0  0  0  0  0  0  0  0  0  0  0
   22.8596   80.2162   14.6267 C   0  0  0  0  0  0  0  0  0  0  0  0
   22.6332   80.6527   15.8622 C   0  0  0  0  0  0  0  0  0  0  0  0
   21.4217   81.3170   13.4650 H   0  0  0  0  0  0  0  0  0  0  0  0
   20.4371   78.0996   11.5759 C   0  0  0  0  0  0  0  0  0  0  0  0
   20.4780   77.2015   12.7201 C   0  0  0  0  0  0  0  0  0  0  0  0
   21.0544   77.5676   13.8002 O   0  0  0  0  0  0  0  0  0  0  0  0
   19.8732   75.8829   12.6743 N   0  0  0  0  0  0  0  0  0  0  0  0
   20.1793   74.7952   13.4274 N   0  0  0  0  0  0  0  0  0  0  0  0
   19.4323   73.6130   13.1977 C   0  0  0  0  0  0  0  0  0  0  0  0
   19.5191   72.4383   13.7826 C   0  0  0  0  0  0  0  0  0  0  0  0
   18.2879   74.0464   11.8901 S   0  0  0  0  0  0  0  0  0  0  0  0
   18.8374   75.7351   11.7298 C   0  0  0  0  0  0  0  0  0  0  0  0
   18.4340   76.6759   10.9522 N   0  0  0  0  0  0  0  0  0  0  0  0
   19.0369   77.9797   10.9995 C   0  0  0  0  0  0  0  0  0  0  0  0
   18.4915   79.0190   10.6007 O   0  0  0  0  0  0  0  0  0  0  0  0
   20.9436   74.7624   14.1875 H   0  0  0  0  0  0  0  0  0  0  0  0
   20.6807   77.1757    9.3397 C   0  0  0  0  0  0  0  0  0  0  0  0
   20.0733   77.8989    8.3393 C   0  0  0  0  0  0  0  0  0  0  0  0
   19.4249   77.2786    7.2963 C   0  0  0  0  0  0  0  0  0  0  0  0
   19.3792   75.9035    7.2475 C   0  0  0  0  0  0  0  0  0  0  0  0
   19.9826   75.1316    8.2427 C   0  0  0  0  0  0  0  0  0  0  0  0
   20.6229   75.7916    9.2714 C   0  0  0  0  0  0  0  0  0  0  0  0
   18.4863   75.0114    5.8107 Br  0  0  0  0  0  0  0  0  0  0  0  0
  2  3  1  0  0  0
  2 12  1  0  0  0
  3  4  2  0  0  0
  3 10  1  0  0  0
  4  5  1  0  0  0
  5  6  2  0  0  0
  5  7  1  0  0  0
  7  8  1  0  0  0
  7  1  1  0  0  0
  8  9  2  0  0  0
  8 10  1  0  0  0
 10 11  1  0  0  0
 11 12  1  0  0  0
 12 13  2  0  0  0
  1 15  1  0  0  0
  1 28  1  0  0  0
 15 16  1  0  0  0
 15 25  1  0  0  0
 16 17  2  0  0  0
 16 18  1  0  0  0
 18 19  1  0  0  0
 18 23  1  0  0  0
 19 20  1  0  0  0
 20 21  2  0  0  0
 20 22  1  0  0  0
 22 23  1  0  0  0
 23 24  2  0  0  0
 24 25  1  0  0  0
 25 26  2  0  0  0
 28 29  2  0  0  0
 28 33  1  0  0  0
 29 30  1  0  0  0
 30 31  2  0  0  0
 31 32  1  0  0  0
 31 34  1  0  0  0
 32 33  2  0  0  0
 11 14  1  0  0  0
 19 27  1  0  0  0
M  END
> <minimizedAffinity>
-5.76811

$$$$
1256


 30 33  0  0  0  0  0  0  0  0999 V2000
   19.4804   75.9971    9.5722 S   0  0  0  0  0  0  0  0  0  0  0  0
   18.8899   74.9335   10.7778 C   0  0  0  0  0  0  0  0  0  0  0  0
   18.3532   73.6737   10.7615 N   0  0  0  0  0  0  0  0  0  0  0  0
   17.9983   73.0555   11.8998 C   0  0  0  0  0  0  0  0  0  0  0  0
   17.5059   71.9146   11.9815 O   0  0  0  0  0  0  0  0  0  0  0  0
   18.2149   73.7791   13.0488 C   0  0  0  0  0  0  0  0  0  0  0  0
   18.7481   75.0340   13.0737 C   0  0  0  0  0  0  0  0  0  0  0  0
   19.1023   75.6387   11.8930 N   0  0  0  0  0  0  0  0  0  0  0  0
   19.6339   76.7933   11.7752 N   0  0  0  0  0  0  0  0  0  0  0  0
   19.9644   77.2862   10.6153 C   0  0  0  0  0  0  0  0  0  0  0  0
   20.5873   78.5484   10.2790 N   0  0  0  0  0  0  0  0  0  0  0  0
   21.9794   78.6245   10.0517 C   0  0  0  0  0  0  0  0  0  0  0  0
   22.3941   80.0573    9.8123 C   0  0  0  0  0  0  0  0  0  0  0  0
   21.6899   80.8993   10.6770 O   0  0  0  0  0  0  0  0  0  0  0  0
   20.3534   80.9991   10.2717 C   0  0  0  0  0  0  0  0  0  0  0  0
   19.6953   79.6555   10.2060 C   0  0  0  0  0  0  0  0  0  0  0  0
   18.9291   75.6718   14.3764 C   0  0  0  0  0  0  0  0  0  0  0  0
   17.8941   75.9899   15.0694 O   0  0  0  0  0  0  0  0  0  0  0  0
   20.1779   75.9825   14.9524 N   0  0  0  0  0  0  0  0  0  0  0  0
   21.0674   75.7825   14.4569 H   0  0  0  0  0  0  0  0  0  0  0  0
   20.2325   76.6081   16.2684 C   0  0  0  0  0  0  0  0  0  0  0  0
   21.3871   77.5352   16.3611 C   0  0  0  0  0  0  0  0  0  0  0  0
   21.7094   78.0913   17.5893 C   0  0  0  0  0  0  0  0  0  0  0  0
   22.7496   78.9822   17.6778 C   0  0  0  0  0  0  0  0  0  0  0  0
   23.4914   79.3493   16.5858 C   0  0  0  0  0  0  0  0  0  0  0  0
   23.1772   78.7990   15.3573 C   0  0  0  0  0  0  0  0  0  0  0  0
   22.1272   77.8993   15.2717 C   0  0  0  0  0  0  0  0  0  0  0  0
   24.1641   79.2522   13.7875 Br  0  0  0  0  0  0  0  0  0  0  0  0
   20.9563   77.7160   18.6795 O   0  0  0  0  0  0  0  0  0  0  0  0
   20.0219   78.6553   19.2109 C   0  0  0  0  0  0  0  0  0  0  0  0
  1  2  1  0  0  0
  1 10  1  0  0  0
  2  3  2  0  0  0
  2  8  1  0  0  0
  3  4  1  0  0  0
  4  5  2  0  0  0
  4  6  1  0  0  0
  6  7  2  0  0  0
  7  8  1  0  0  0
  7 17  1  0  0  0
  8  9  1  0  0  0
  9 10  2  0  0  0
 10 11  1  0  0  0
 11 12  1  0  0  0
 11 16  1  0  0  0
 12 13  1  0  0  0
 13 14  1  0  0  0
 14 15  1  0  0  0
 15 16  1  0  0  0
 17 18  2  0  0  0
 17 19  1  0  0  0
 19 21  1  0  0  0
 21 22  1  0  0  0
 22 23  2  0  0  0
 22 27  1  0  0  0
 23 24  1  0  0  0
 23 29  1  0  0  0
 24 25  2  0  0  0
 25 26  1  0  0  0
 26 27  2  0  0  0
 26 28  1  0  0  0
 29 30  1  0  0  0
 19 20  1  0  0  0
M  END
> <minimizedAffinity>
-9.55628

$$$$
1265


 24 27  0  0  0  0  0  0  0  0999 V2000
   20.4138   76.8139   14.2947 S   0  0  0  0  0  0  0  0  0  0  0  0
   20.0783   77.0400   12.5531 C   0  0  0  0  0  0  0  0  0  0  0  0
   20.2165   77.8865   11.5852 N   0  0  0  0  0  0  0  0  0  0  0  0
   19.6861   77.3857   10.3730 C   0  0  0  0  0  0  0  0  0  0  0  0
   19.1663   76.0292   10.7202 C   0  0  0  0  0  0  0  0  0  0  0  0
   19.4513   75.8429   12.1629 N   0  0  0  0  0  0  0  0  0  0  0  0
   19.2766   74.8783   13.1621 C   0  0  0  0  0  0  0  0  0  0  0  0
   19.7080   75.1738   14.3676 C   0  0  0  0  0  0  0  0  0  0  0  0
   18.6461   73.5353   12.9435 C   0  0  0  0  0  0  0  0  0  0  0  0
   19.3977   72.3819   12.9292 C   0  0  0  0  0  0  0  0  0  0  0  0
   18.8703   71.1240   12.7289 C   0  0  0  0  0  0  0  0  0  0  0  0
   17.5182   70.9689   12.5274 C   0  0  0  0  0  0  0  0  0  0  0  0
   16.7506   72.0993   12.5362 C   0  0  0  0  0  0  0  0  0  0  0  0
   17.2992   73.3790   12.7415 C   0  0  0  0  0  0  0  0  0  0  0  0
   20.8702   79.1908   11.7937 C   0  0  0  0  0  0  0  0  0  0  0  0
   22.3253   78.9420   11.8278 C   0  0  0  0  0  0  0  0  0  0  0  0
   22.9625   78.6720   10.7898 O   0  0  0  0  0  0  0  0  0  0  0  0
   23.0475   79.0079   13.0901 C   0  0  0  0  0  0  0  0  0  0  0  0
   23.9224   77.9890   13.4718 C   0  0  0  0  0  0  0  0  0  0  0  0
   24.6145   78.0222   14.6681 C   0  0  0  0  0  0  0  0  0  0  0  0
   24.4166   79.1026   15.4863 C   0  0  0  0  0  0  0  0  0  0  0  0
   23.5618   80.1373   15.1535 C   0  0  0  0  0  0  0  0  0  0  0  0
   22.8743   80.0806   13.9393 C   0  0  0  0  0  0  0  0  0  0  0  0
   25.3823   79.1396   17.1432 Br  0  0  0  0  0  0  0  0  0  0  0  0
  1  2  1  0  0  0
  1  8  1  0  0  0
  2  3  2  0  0  0
  2  6  1  0  0  0
  3  4  1  0  0  0
  3 15  1  0  0  0
  4  5  1  0  0  0
  5  6  1  0  0  0
  6  7  1  0  0  0
  7  8  2  0  0  0
  7  9  1  0  0  0
  9 10  2  0  0  0
  9 14  1  0  0  0
 10 11  1  0  0  0
 11 12  2  0  0  0
 12 13  1  0  0  0
 13 14  2  0  0  0
 15 16  1  0  0  0
 16 17  2  0  0  0
 16 18  1  0  0  0
 18 19  2  0  0  0
 18 23  1  0  0  0
 19 20  1  0  0  0
 20 21  2  0  0  0
 21 22  1  0  0  0
 21 24  1  0  0  0
 22 23  2  0  0  0
M  END
> <minimizedAffinity>
-9.67894

$$$$
1266


 28 31  0  0  0  0  0  0  0  0999 V2000
   21.5419   76.8838   15.9823 C   0  0  0  0  0  0  0  0  0  0  0  0
   20.1366   76.6329   15.6867 N   0  0  0  0  0  0  0  0  0  0  0  0
   19.1629   77.1188   16.5465 C   0  0  0  0  0  0  0  0  0  0  0  0
   19.4635   78.3340   17.3985 C   0  0  0  0  0  0  0  0  0  0  0  0
   20.8210   78.4929   17.6916 N   0  0  0  0  0  0  0  0  0  0  0  0
   21.7272   77.4509   17.3135 C   0  0  0  0  0  0  0  0  0  0  0  0
   21.4155   79.6070   18.3381 C   0  0  0  0  0  0  0  0  0  0  0  0
   22.6831   79.3963   18.6083 O   0  0  0  0  0  0  0  0  0  0  0  0
   19.9377   76.8230   14.6837 H   0  0  0  0  0  0  0  0  0  0  0  0
   20.9271   80.8777   18.7351 C   0  0  0  0  0  0  0  0  0  0  0  0
   20.6457   81.8126   17.7092 C   0  0  0  0  0  0  0  0  0  0  0  0
   20.0600   82.9786   17.9801 N   0  0  0  0  0  0  0  0  0  0  0  0
   19.7130   83.3206   19.2223 C   0  0  0  0  0  0  0  0  0  0  0  0
   19.9592   82.4579   20.2557 C   0  0  0  0  0  0  0  0  0  0  0  0
   20.5704   81.2293   20.0149 C   0  0  0  0  0  0  0  0  0  0  0  0
   19.5601   82.7984   21.5866 N   0  0  0  0  0  0  0  0  0  0  0  0
   18.9049   84.0493   21.8024 C   0  0  0  0  0  0  0  0  0  0  0  0
   18.1442   84.2896   22.7622 O   0  0  0  0  0  0  0  0  0  0  0  0
   19.1579   85.1308   20.8012 C   0  0  0  0  0  0  0  0  0  0  0  0
   19.1020   84.5512   19.4878 O   0  0  0  0  0  0  0  0  0  0  0  0
   19.7269   82.1652   22.3831 H   0  0  0  0  0  0  0  0  0  0  0  0
   24.4519   77.1607   15.8836 Cl  0  0  0  0  0  0  0  0  0  0  0  0
   23.3916   77.9184   14.6773 C   0  0  0  0  0  0  0  0  0  0  0  0
   22.0072   77.7751   14.8619 C   0  0  0  0  0  0  0  0  0  0  0  0
   21.1950   78.3606   13.9352 C   0  0  0  0  0  0  0  0  0  0  0  0
   21.7358   79.0597   12.8705 C   0  0  0  0  0  0  0  0  0  0  0  0
   23.1002   79.2028   12.6866 C   0  0  0  0  0  0  0  0  0  0  0  0
   23.9434   78.6115   13.6215 C   0  0  0  0  0  0  0  0  0  0  0  0
 22 23  1  0  0  0
 23 24  2  0  0  0
 23 28  1  0  0  0
 24 25  1  0  0  0
 24  1  1  0  0  0
 25 26  2  0  0  0
 26 27  1  0  0  0
 27 28  2  0  0  0
  1  2  1  0  0  0
  1  6  1  0  0  0
  2  3  1  0  0  0
  3  4  1  0  0  0
  4  5  1  0  0  0
  5  6  1  0  0  0
  5  7  1  0  0  0
  7  8  2  0  0  0
  7 10  1  0  0  0
 10 11  2  0  0  0
 10 15  1  0  0  0
 11 12  1  0  0  0
 12 13  2  0  0  0
 13 14  1  0  0  0
 13 20  1  0  0  0
 14 15  2  0  0  0
 14 16  1  0  0  0
 16 17  1  0  0  0
 17 18  2  0  0  0
 17 19  1  0  0  0
 19 20  1  0  0  0
  2  9  1  0  0  0
 16 21  1  0  0  0
M  END
> <minimizedAffinity>
-9.36106

$$$$
1271


 35 38  0  0  0  0  0  0  0  0999 V2000
   19.8416   78.4524   18.1121 C   0  0  0  0  0  0  0  0  0  0  0  0
   19.2351   78.5277   19.3041 N   0  0  0  0  0  0  0  0  0  0  0  0
   19.3202   79.7756   19.6881 N   0  0  0  0  0  0  0  0  0  0  0  0
   19.9640   80.5007   18.7770 N   0  0  0  0  0  0  0  0  0  0  0  0
   20.3172   79.7261   17.7632 C   0  0  0  0  0  0  0  0  0  0  0  0
   20.2340   81.8820   18.9231 C   0  0  0  0  0  0  0  0  0  0  0  0
   20.2577   82.7479   17.8715 N   0  0  0  0  0  0  0  0  0  0  0  0
   20.5357   83.9235   18.3398 O   0  0  0  0  0  0  0  0  0  0  0  0
   20.6989   83.8964   19.6134 N   0  0  0  0  0  0  0  0  0  0  0  0
   20.5190   82.6339   20.0243 C   0  0  0  0  0  0  0  0  0  0  0  0
   20.6012   82.1437   21.3363 N   0  0  0  0  0  0  0  0  0  0  0  0
   21.4259   82.2219   21.9709 H   0  0  0  0  0  0  0  0  0  0  0  0
   19.7745   81.6501   21.7373 H   0  0  0  0  0  0  0  0  0  0  0  0
   19.2418   77.0303   16.1274 N   0  0  0  0  0  0  0  0  0  0  0  0
   19.9559   77.2344   17.3315 C   0  0  0  0  0  0  0  0  0  0  0  0
   20.7200   76.3323   17.7443 O   0  0  0  0  0  0  0  0  0  0  0  0
   18.5807   77.7524   15.7345 H   0  0  0  0  0  0  0  0  0  0  0  0
   19.3650   75.8578   15.3817 N   0  0  0  0  0  0  0  0  0  0  0  0
   19.1784   74.9029   15.7316 H   0  0  0  0  0  0  0  0  0  0  0  0
   19.7844   75.9707   14.0049 C   0  0  0  0  0  0  0  0  0  0  0  0
   20.5972   76.9432   13.6763 C   0  0  0  0  0  0  0  0  0  0  0  0
   18.0391   71.0267   13.1001 Br  0  0  0  0  0  0  0  0  0  0  0  0
   18.4648   72.7994   12.5577 C   0  0  0  0  0  0  0  0  0  0  0  0
   18.9632   73.7143   13.4525 C   0  0  0  0  0  0  0  0  0  0  0  0
   19.2744   75.0110   13.0457 C   0  0  0  0  0  0  0  0  0  0  0  0
   19.0585   75.3140   11.7331 C   0  0  0  0  0  0  0  0  0  0  0  0
   18.5533   74.3881   10.8200 C   0  0  0  0  0  0  0  0  0  0  0  0
   18.2534   73.1252   11.2291 C   0  0  0  0  0  0  0  0  0  0  0  0
   21.0579   79.9706   16.5468 C   0  0  0  0  0  0  0  0  0  0  0  0
   22.4119   80.4644   16.7064 N   0  0  0  0  0  0  0  0  0  0  0  0
   23.3323   79.3675   16.9905 C   0  0  0  0  0  0  0  0  0  0  0  0
   23.1338   78.2047   16.0437 C   0  0  0  0  0  0  0  0  0  0  0  0
   23.2974   78.6724   14.6085 C   0  0  0  0  0  0  0  0  0  0  0  0
   23.6346   80.1354   14.5555 C   0  0  0  0  0  0  0  0  0  0  0  0
   22.8714   81.0343   15.4433 C   0  0  0  0  0  0  0  0  0  0  0  0
 22 23  1  0  0  0
 23 24  2  0  0  0
 23 28  1  0  0  0
 24 25  1  0  0  0
 25 26  2  0  0  0
 25 20  1  0  0  0
 26 27  1  0  0  0
 27 28  2  0  0  0
 20 21  2  0  0  0
 20 18  1  0  0  0
 18 14  1  0  0  0
 14 15  1  0  0  0
 15 16  2  0  0  0
 15  1  1  0  0  0
  1  2  1  0  0  0
  1  5  2  0  0  0
  2  3  2  0  0  0
  3  4  1  0  0  0
  4  5  1  0  0  0
  4  6  1  0  0  0
  5 29  1  0  0  0
 29 30  1  0  0  0
 30 31  1  0  0  0
 30 35  1  0  0  0
 31 32  1  0  0  0
 32 33  1  0  0  0
 33 34  1  0  0  0
 34 35  1  0  0  0
  6  7  2  0  0  0
  6 10  1  0  0  0
  7  8  1  0  0  0
  8  9  1  0  0  0
  9 10  2  0  0  0
 10 11  1  0  0  0
 18 19  1  0  0  0
 14 17  1  0  0  0
 11 12  1  0  0  0
 11 13  1  0  0  0
M  END
> <minimizedAffinity>
-10.06605

$$$$
1280


 35 38  0  0  0  0  0  0  0  0999 V2000
   20.6978   78.7933   15.6929 C   0  0  0  0  0  0  0  0  0  0  0  0
   21.2354   77.5368   16.1750 N   0  0  0  0  0  0  0  0  0  0  0  0
   22.2689   77.8547   17.0911 C   0  0  0  0  0  0  0  0  0  0  0  0
   23.2339   77.1322   17.3607 O   0  0  0  0  0  0  0  0  0  0  0  0
   21.9515   79.1877   17.6321 C   0  0  0  0  0  0  0  0  0  0  0  0
   22.6007   79.8452   18.4811 O   0  0  0  0  0  0  0  0  0  0  0  0
   20.7135   79.5809   16.9708 C   0  0  0  0  0  0  0  0  0  0  0  0
   19.8155   80.4253   17.4581 C   0  0  0  0  0  0  0  0  0  0  0  0
   18.6651   80.6177   16.6573 O   0  0  0  0  0  0  0  0  0  0  0  0
   22.2093   78.6481   10.5537 Br  0  0  0  0  0  0  0  0  0  0  0  0
   22.3072   79.3743   12.3301 C   0  0  0  0  0  0  0  0  0  0  0  0
   21.5118   78.8465   13.3538 C   0  0  0  0  0  0  0  0  0  0  0  0
   21.5634   79.3531   14.6445 C   0  0  0  0  0  0  0  0  0  0  0  0
   22.4271   80.3904   14.8655 C   0  0  0  0  0  0  0  0  0  0  0  0
   23.2234   80.9272   13.8622 C   0  0  0  0  0  0  0  0  0  0  0  0
   23.1622   80.4143   12.5885 C   0  0  0  0  0  0  0  0  0  0  0  0
   19.9607   81.1305   18.7268 C   0  0  0  0  0  0  0  0  0  0  0  0
   19.6922   80.5868   19.9475 C   0  0  0  0  0  0  0  0  0  0  0  0
   19.8116   81.3553   21.1197 C   0  0  0  0  0  0  0  0  0  0  0  0
   20.1981   82.6681   21.1033 C   0  0  0  0  0  0  0  0  0  0  0  0
   20.4717   83.2197   19.8699 C   0  0  0  0  0  0  0  0  0  0  0  0
   20.3590   82.4806   18.7216 C   0  0  0  0  0  0  0  0  0  0  0  0
   19.3150   79.1589   20.0668 C   0  0  0  0  0  0  0  0  0  0  0  0
   20.3193   83.4342   22.2627 O   0  0  0  0  0  0  0  0  0  0  0  0
   19.2259   83.6009   23.1279 C   0  0  0  0  0  0  0  0  0  0  0  0
   20.7663   76.2330   15.7550 C   0  0  0  0  0  0  0  0  0  0  0  0
   19.4693   76.2726   15.0100 C   0  0  0  0  0  0  0  0  0  0  0  0
   19.5301   75.8867   13.5812 C   0  0  0  0  0  0  0  0  0  0  0  0
   19.0308   74.5945   13.2712 N   0  0  0  0  0  0  0  0  0  0  0  0
   18.7041   74.4139   11.8470 C   0  0  0  0  0  0  0  0  0  0  0  0
   17.6964   73.2631   11.8089 C   0  0  0  0  0  0  0  0  0  0  0  0
   17.6262   72.5933   13.0171 O   0  0  0  0  0  0  0  0  0  0  0  0
   18.8980   72.2325   13.4629 C   0  0  0  0  0  0  0  0  0  0  0  0
   19.7967   73.4670   13.6610 C   0  0  0  0  0  0  0  0  0  0  0  0
   18.0903   74.5046   13.7638 H   0  0  0  0  0  0  0  0  0  0  0  0
 10 11  1  0  0  0
 11 12  2  0  0  0
 11 16  1  0  0  0
 12 13  1  0  0  0
 13 14  2  0  0  0
 13  1  1  0  0  0
 14 15  1  0  0  0
 15 16  2  0  0  0
  1  2  1  0  0  0
  1  7  1  0  0  0
  2  3  1  0  0  0
  2 26  1  0  0  0
  3  4  2  0  0  0
  3  5  1  0  0  0
  5  6  2  0  0  0
  5  7  1  0  0  0
  7  8  2  0  0  0
  8  9  1  0  0  0
  8 17  1  0  0  0
 17 18  2  0  0  0
 17 22  1  0  0  0
 18 19  1  0  0  0
 18 23  1  0  0  0
 19 20  2  0  0  0
 20 21  1  0  0  0
 20 24  1  0  0  0
 21 22  2  0  0  0
 24 25  1  0  0  0
 26 27  1  0  0  0
 27 28  1  0  0  0
 28 29  1  0  0  0
 29 30  1  0  0  0
 29 34  1  0  0  0
 30 31  1  0  0  0
 31 32  1  0  0  0
 32 33  1  0  0  0
 33 34  1  0  0  0
 29 35  1  0  0  0
M  CHG 1   9  -1
M  CHG 1  29   1
M  END
> <minimizedAffinity>
-8.60393

$$$$
1282


 30 33  0  0  0  0  0  0  0  0999 V2000
   19.9341   77.1265   16.6201 C   0  0  0  0  0  0  0  0  0  0  0  0
   18.9000   77.8682   17.4449 C   0  0  0  0  0  0  0  0  0  0  0  0
   19.6308   79.0307   17.9105 N   0  0  0  0  0  0  0  0  0  0  0  0
   20.9227   79.1260   17.2617 C   0  0  0  0  0  0  0  0  0  0  0  0
   20.7091   78.2611   16.0122 C   0  0  0  0  0  0  0  0  0  0  0  0
   21.1691   80.5252   16.9168 C   0  0  0  0  0  0  0  0  0  0  0  0
   21.4718   80.8655   15.7638 O   0  0  0  0  0  0  0  0  0  0  0  0
   21.0521   81.4926   17.9479 N   0  0  0  0  0  0  0  0  0  0  0  0
   20.1801   81.2333   19.0712 C   0  0  0  0  0  0  0  0  0  0  0  0
   19.3082   80.0557   18.8615 C   0  0  0  0  0  0  0  0  0  0  0  0
   18.2482   79.9375   19.5306 O   0  0  0  0  0  0  0  0  0  0  0  0
   21.5739   82.3978   17.9313 H   0  0  0  0  0  0  0  0  0  0  0  0
   20.0681   75.9421   14.4842 C   0  0  0  0  0  0  0  0  0  0  0  0
   21.2654   76.3964   14.3671 O   0  0  0  0  0  0  0  0  0  0  0  0
   19.3089   76.2748   15.6242 N   0  0  0  0  0  0  0  0  0  0  0  0
   18.3482   75.9188   15.7214 H   0  0  0  0  0  0  0  0  0  0  0  0
   18.6054   71.0665   12.9525 Br  0  0  0  0  0  0  0  0  0  0  0  0
   18.8594   72.9382   12.6459 C   0  0  0  0  0  0  0  0  0  0  0  0
   19.3564   73.7367   13.6384 C   0  0  0  0  0  0  0  0  0  0  0  0
   19.5445   75.0968   13.4246 C   0  0  0  0  0  0  0  0  0  0  0  0
   19.2187   75.6043   12.2059 C   0  0  0  0  0  0  0  0  0  0  0  0
   18.7152   74.7864   11.2065 C   0  0  0  0  0  0  0  0  0  0  0  0
   18.5314   73.4425   11.4200 C   0  0  0  0  0  0  0  0  0  0  0  0
   20.9308   81.1586   20.3838 C   0  0  0  0  0  0  0  0  0  0  0  0
   20.4107   82.0838   21.4040 C   0  0  0  0  0  0  0  0  0  0  0  0
   19.3426   82.9095   21.1032 C   0  0  0  0  0  0  0  0  0  0  0  0
   18.8509   83.7770   22.0511 C   0  0  0  0  0  0  0  0  0  0  0  0
   19.3822   83.8707   23.3235 C   0  0  0  0  0  0  0  0  0  0  0  0
   20.4470   83.0492   23.6264 C   0  0  0  0  0  0  0  0  0  0  0  0
   20.9539   82.1719   22.6873 C   0  0  0  0  0  0  0  0  0  0  0  0
 17 18  1  0  0  0
 18 19  2  0  0  0
 18 23  1  0  0  0
 19 20  1  0  0  0
 20 21  2  0  0  0
 20 13  1  0  0  0
 21 22  1  0  0  0
 22 23  2  0  0  0
 13 14  2  0  0  0
 13 15  1  0  0  0
 15  1  1  0  0  0
  1  2  1  0  0  0
  1  5  1  0  0  0
  2  3  1  0  0  0
  3  4  1  0  0  0
  3 10  1  0  0  0
  4  5  1  0  0  0
  4  6  1  0  0  0
  6  7  2  0  0  0
  6  8  1  0  0  0
  8  9  1  0  0  0
  9 10  1  0  0  0
  9 24  1  0  0  0
 10 11  2  0  0  0
 24 25  1  0  0  0
 25 26  2  0  0  0
 25 30  1  0  0  0
 26 27  1  0  0  0
 27 28  2  0  0  0
 28 29  1  0  0  0
 29 30  2  0  0  0
 15 16  1  0  0  0
  8 12  1  0  0  0
M  END
> <minimizedAffinity>
-11.38213

$$$$
1284


 35 38  0  0  0  0  0  0  0  0999 V2000
   19.8468   78.4207    8.7045 C   0  0  0  0  0  0  0  0  0  0  0  0
   18.5859   79.0335    8.5123 N   0  0  0  0  0  0  0  0  0  0  0  0
   18.2465   79.7987    9.6570 C   0  0  0  0  0  0  0  0  0  0  0  0
   17.1377   80.3932    9.8331 O   0  0  0  0  0  0  0  0  0  0  0  0
   19.3705   79.7871   10.5679 C   0  0  0  0  0  0  0  0  0  0  0  0
   19.3336   80.3922   11.6733 O   0  0  0  0  0  0  0  0  0  0  0  0
   20.4153   78.9901    9.9542 C   0  0  0  0  0  0  0  0  0  0  0  0
   21.6058   78.7934   10.4736 C   0  0  0  0  0  0  0  0  0  0  0  0
   22.4896   77.9604    9.8270 O   0  0  0  0  0  0  0  0  0  0  0  0
   18.5163   74.3335   11.8451 Br  0  0  0  0  0  0  0  0  0  0  0  0
   19.1045   75.0635   10.1819 C   0  0  0  0  0  0  0  0  0  0  0  0
   19.2935   76.3936    9.9615 C   0  0  0  0  0  0  0  0  0  0  0  0
   19.7173   76.9615    8.7723 C   0  0  0  0  0  0  0  0  0  0  0  0
   19.9730   76.0983    7.7103 C   0  0  0  0  0  0  0  0  0  0  0  0
   19.7926   74.7416    7.8995 C   0  0  0  0  0  0  0  0  0  0  0  0
   19.3665   74.2049    9.1019 C   0  0  0  0  0  0  0  0  0  0  0  0
   22.0028   79.4390   11.7000 C   0  0  0  0  0  0  0  0  0  0  0  0
   21.7836   78.8974   12.9790 C   0  0  0  0  0  0  0  0  0  0  0  0
   22.3016   79.7213   13.8982 N   0  0  0  0  0  0  0  0  0  0  0  0
   22.8284   80.7431   13.2489 N   0  0  0  0  0  0  0  0  0  0  0  0
   22.6713   80.6105   11.9234 C   0  0  0  0  0  0  0  0  0  0  0  0
   21.0822   77.6038   13.2238 C   0  0  0  0  0  0  0  0  0  0  0  0
   22.3081   79.5429   15.3074 C   0  0  0  0  0  0  0  0  0  0  0  0
   23.4469   79.0253   15.9101 C   0  0  0  0  0  0  0  0  0  0  0  0
   23.5271   78.8353   17.2753 C   0  0  0  0  0  0  0  0  0  0  0  0
   22.4565   79.1598   18.1096 C   0  0  0  0  0  0  0  0  0  0  0  0
   21.3218   79.6754   17.5091 C   0  0  0  0  0  0  0  0  0  0  0  0
   21.2671   79.8543   16.1509 C   0  0  0  0  0  0  0  0  0  0  0  0
   17.7222   78.9409    7.3017 C   0  0  0  0  0  0  0  0  0  0  0  0
   16.8331   77.7286    7.4064 C   0  0  0  0  0  0  0  0  0  0  0  0
   15.6841   77.7468    6.4488 C   0  0  0  0  0  0  0  0  0  0  0  0
   14.6058   76.8611    6.7401 N   0  0  0  0  0  0  0  0  0  0  0  0
   13.3077   77.4458    6.8201 C   0  0  0  0  0  0  0  0  0  0  0  0
   14.5480   75.7861    5.7364 C   0  0  0  0  0  0  0  0  0  0  0  0
   14.8012   76.3517    7.6546 H   0  0  0  0  0  0  0  0  0  0  0  0
 10 11  1  0  0  0
 11 12  2  0  0  0
 11 16  1  0  0  0
 12 13  1  0  0  0
 13 14  2  0  0  0
 13  1  1  0  0  0
 14 15  1  0  0  0
 15 16  2  0  0  0
  1  2  1  0  0  0
  1  7  1  0  0  0
  2  3  1  0  0  0
  2 29  1  0  0  0
  3  4  2  0  0  0
  3  5  1  0  0  0
  5  6  2  0  0  0
  5  7  1  0  0  0
  7  8  2  0  0  0
  8  9  1  0  0  0
  8 17  1  0  0  0
 17 18  2  0  0  0
 17 21  1  0  0  0
 18 19  1  0  0  0
 18 22  1  0  0  0
 19 20  1  0  0  0
 19 23  1  0  0  0
 20 21  2  0  0  0
 23 24  2  0  0  0
 23 28  1  0  0  0
 24 25  1  0  0  0
 25 26  2  0  0  0
 26 27  1  0  0  0
 27 28  2  0  0  0
 29 30  1  0  0  0
 30 31  1  0  0  0
 31 32  1  0  0  0
 32 33  1  0  0  0
 32 34  1  0  0  0
 32 35  1  0  0  0
M  CHG 1   9  -1
M  CHG 1  32   1
M  END
> <minimizedAffinity>
-8.80444

$$$$
1285


 34 37  0  0  0  0  0  0  0  0999 V2000
   20.9227   78.7604   15.4979 C   0  0  0  0  0  0  0  0  0  0  0  0
   21.4986   77.4707   15.8253 N   0  0  0  0  0  0  0  0  0  0  0  0
   22.4547   77.6687   16.8897 C   0  0  0  0  0  0  0  0  0  0  0  0
   23.4255   76.9597   17.1792 O   0  0  0  0  0  0  0  0  0  0  0  0
   22.0211   78.8958   17.5510 C   0  0  0  0  0  0  0  0  0  0  0  0
   22.5453   79.4844   18.5431 O   0  0  0  0  0  0  0  0  0  0  0  0
   20.8328   79.3811   16.8686 C   0  0  0  0  0  0  0  0  0  0  0  0
   19.9059   80.2124   17.3165 C   0  0  0  0  0  0  0  0  0  0  0  0
   18.8646   80.5831   16.4187 O   0  0  0  0  0  0  0  0  0  0  0  0
   19.9305   80.7239   18.6642 C   0  0  0  0  0  0  0  0  0  0  0  0
   20.0828   82.0010   19.0738 N   0  0  0  0  0  0  0  0  0  0  0  0
   20.0083   82.0294   20.4270 C   0  0  0  0  0  0  0  0  0  0  0  0
   19.8068   80.7659   20.8931 N   0  0  0  0  0  0  0  0  0  0  0  0
   19.7613   79.9710   19.7980 C   0  0  0  0  0  0  0  0  0  0  0  0
   19.5567   78.4968   19.8466 C   0  0  0  0  0  0  0  0  0  0  0  0
   20.1332   83.1617   21.1895 C   0  0  0  0  0  0  0  0  0  0  0  0
   20.3516   84.3527   20.5330 C   0  0  0  0  0  0  0  0  0  0  0  0
   20.4304   84.3287   19.1554 C   0  0  0  0  0  0  0  0  0  0  0  0
   20.2969   83.1678   18.4424 C   0  0  0  0  0  0  0  0  0  0  0  0
   20.0403   83.1349   22.6780 C   0  0  0  0  0  0  0  0  0  0  0  0
   22.3325   79.6955   10.4894 Br  0  0  0  0  0  0  0  0  0  0  0  0
   22.4251   80.0675   12.3609 C   0  0  0  0  0  0  0  0  0  0  0  0
   21.6891   79.3320   13.2368 C   0  0  0  0  0  0  0  0  0  0  0  0
   21.7457   79.5917   14.6094 C   0  0  0  0  0  0  0  0  0  0  0  0
   22.5662   80.6121   15.0392 C   0  0  0  0  0  0  0  0  0  0  0  0
   23.3179   81.3635   14.1443 C   0  0  0  0  0  0  0  0  0  0  0  0
   23.2404   81.0824   12.8004 C   0  0  0  0  0  0  0  0  0  0  0  0
   21.1881   76.1960   15.2008 C   0  0  0  0  0  0  0  0  0  0  0  0
   19.7614   76.0407   14.7996 C   0  0  0  0  0  0  0  0  0  0  0  0
   19.5452   75.7181   13.3424 C   0  0  0  0  0  0  0  0  0  0  0  0
   18.7511   74.5183   13.2209 N   0  0  0  0  0  0  0  0  0  0  0  0
   18.4036   74.2774   11.8325 C   0  0  0  0  0  0  0  0  0  0  0  0
   19.5567   73.3909   13.6470 C   0  0  0  0  0  0  0  0  0  0  0  0
   17.9122   74.5284   13.8406 H   0  0  0  0  0  0  0  0  0  0  0  0
 21 22  1  0  0  0
 22 23  2  0  0  0
 22 27  1  0  0  0
 23 24  1  0  0  0
 24 25  2  0  0  0
 24  1  1  0  0  0
 25 26  1  0  0  0
 26 27  2  0  0  0
  1  2  1  0  0  0
  1  7  1  0  0  0
  2  3  1  0  0  0
  2 28  1  0  0  0
  3  4  2  0  0  0
  3  5  1  0  0  0
  5  6  2  0  0  0
  5  7  1  0  0  0
  7  8  2  0  0  0
  8  9  1  0  0  0
  8 10  1  0  0  0
 10 11  1  0  0  0
 10 14  2  0  0  0
 11 12  1  0  0  0
 11 19  1  0  0  0
 12 13  2  0  0  0
 12 16  1  0  0  0
 13 14  1  0  0  0
 14 15  1  0  0  0
 16 17  2  0  0  0
 16 20  1  0  0  0
 17 18  1  0  0  0
 18 19  2  0  0  0
 28 29  1  0  0  0
 29 30  1  0  0  0
 30 31  1  0  0  0
 31 32  1  0  0  0
 31 33  1  0  0  0
 31 34  1  0  0  0
M  CHG 1   9  -1
M  CHG 1  31   1
M  END
> <minimizedAffinity>
-8.24990

$$$$
1295


 26 29  0  0  0  0  0  0  0  0999 V2000
   21.3051   78.3996   13.7760 C   0  0  0  0  0  0  0  0  0  0  0  0
   21.3084   78.5673   12.3395 C   0  0  0  0  0  0  0  0  0  0  0  0
   20.6779   77.6734   11.5205 C   0  0  0  0  0  0  0  0  0  0  0  0
   19.9630   76.5422   12.0332 N   0  0  0  0  0  0  0  0  0  0  0  0
   19.9486   76.4073   13.4487 C   0  0  0  0  0  0  0  0  0  0  0  0
   20.5395   77.2478   14.2515 C   0  0  0  0  0  0  0  0  0  0  0  0
   20.2898   76.8200   15.6625 C   0  0  0  0  0  0  0  0  0  0  0  0
   20.7443   77.4501   16.6641 O   0  0  0  0  0  0  0  0  0  0  0  0
   19.5297   75.6994   15.5844 O   0  0  0  0  0  0  0  0  0  0  0  0
   19.2832   75.3200   14.2732 C   0  0  0  0  0  0  0  0  0  0  0  0
   20.7137   77.8614   10.1617 N   0  0  0  0  0  0  0  0  0  0  0  0
   21.3582   78.9087    9.6359 C   0  0  0  0  0  0  0  0  0  0  0  0
   21.3783   79.0622    8.3818 O   0  0  0  0  0  0  0  0  0  0  0  0
   21.9747   79.7823   10.4492 N   0  0  0  0  0  0  0  0  0  0  0  0
   21.9875   79.6722   11.7756 C   0  0  0  0  0  0  0  0  0  0  0  0
   22.5605   80.4840   12.5438 O   0  0  0  0  0  0  0  0  0  0  0  0
   22.6672   80.9125    9.8282 C   0  0  0  0  0  0  0  0  0  0  0  0
   20.0240   76.8745    9.3439 C   0  0  0  0  0  0  0  0  0  0  0  0
   19.5001   75.8871   11.3782 H   0  0  0  0  0  0  0  0  0  0  0  0
   26.7122   79.1190   16.6531 Br  0  0  0  0  0  0  0  0  0  0  0  0
   25.0397   78.8650   15.7381 C   0  0  0  0  0  0  0  0  0  0  0  0
   24.8530   77.8054   14.8883 C   0  0  0  0  0  0  0  0  0  0  0  0
   23.6173   77.6507   14.2356 C   0  0  0  0  0  0  0  0  0  0  0  0
   22.6008   78.5361   14.4345 C   0  0  0  0  0  0  0  0  0  0  0  0
   22.7983   79.5930   15.2874 C   0  0  0  0  0  0  0  0  0  0  0  0
   24.0296   79.7588   15.9453 C   0  0  0  0  0  0  0  0  0  0  0  0
 20 21  1  0  0  0
 21 22  2  0  0  0
 21 26  1  0  0  0
 22 23  1  0  0  0
 23 24  2  0  0  0
 24 25  1  0  0  0
 24  1  1  0  0  0
 25 26  2  0  0  0
  1  2  1  0  0  0
  1  6  1  0  0  0
  2  3  2  0  0  0
  2 15  1  0  0  0
  3  4  1  0  0  0
  3 11  1  0  0  0
  4  5  1  0  0  0
  5  6  2  0  0  0
  5 10  1  0  0  0
  6  7  1  0  0  0
  7  8  2  0  0  0
  7  9  1  0  0  0
  9 10  1  0  0  0
 11 12  1  0  0  0
 11 18  1  0  0  0
 12 13  2  0  0  0
 12 14  1  0  0  0
 14 15  1  0  0  0
 14 17  1  0  0  0
 15 16  2  0  0  0
  4 19  1  0  0  0
M  END
> <minimizedAffinity>
-8.40446

$$$$
1299


 36 39  0  0  0  0  0  0  0  0999 V2000
   22.8436   79.5762   14.2149 C   0  0  0  0  0  0  0  0  0  0  0  0
   23.9993   78.8550   14.3743 N   0  0  0  0  0  0  0  0  0  0  0  0
   24.2616   78.3417   13.1905 N   0  0  0  0  0  0  0  0  0  0  0  0
   23.3759   78.6790   12.3120 N   0  0  0  0  0  0  0  0  0  0  0  0
   22.4413   79.4705   12.9107 C   0  0  0  0  0  0  0  0  0  0  0  0
   24.7485   78.6972   15.5615 C   0  0  0  0  0  0  0  0  0  0  0  0
   25.1889   79.6336   16.4381 N   0  0  0  0  0  0  0  0  0  0  0  0
   25.8343   79.0504   17.3834 O   0  0  0  0  0  0  0  0  0  0  0  0
   25.8771   77.7651   17.2312 N   0  0  0  0  0  0  0  0  0  0  0  0
   25.1982   77.4983   16.0830 C   0  0  0  0  0  0  0  0  0  0  0  0
   25.0086   76.1979   15.5513 N   0  0  0  0  0  0  0  0  0  0  0  0
   24.1405   76.0121   15.0154 H   0  0  0  0  0  0  0  0  0  0  0  0
   25.6859   75.4215   15.6649 H   0  0  0  0  0  0  0  0  0  0  0  0
   21.3216   79.7803   16.2721 N   0  0  0  0  0  0  0  0  0  0  0  0
   22.2555   80.2890   15.3420 C   0  0  0  0  0  0  0  0  0  0  0  0
   22.5884   81.5162   15.5578 O   0  0  0  0  0  0  0  0  0  0  0  0
   20.9239   78.8150   16.2777 H   0  0  0  0  0  0  0  0  0  0  0  0
   21.0355   80.4079   18.5378 C   0  0  0  0  0  0  0  0  0  0  0  0
   20.8872   80.6825   17.3006 N   0  0  0  0  0  0  0  0  0  0  0  0
   21.2302   81.8471   23.6816 Br  0  0  0  0  0  0  0  0  0  0  0  0
   20.6196   82.0494   21.8842 C   0  0  0  0  0  0  0  0  0  0  0  0
   19.7517   83.0846   21.6013 C   0  0  0  0  0  0  0  0  0  0  0  0
   19.3176   83.2233   20.3070 C   0  0  0  0  0  0  0  0  0  0  0  0
   19.7357   82.3540   19.3159 C   0  0  0  0  0  0  0  0  0  0  0  0
   20.5904   81.3328   19.5908 C   0  0  0  0  0  0  0  0  0  0  0  0
   21.0311   81.1869   20.8881 C   0  0  0  0  0  0  0  0  0  0  0  0
   18.1083   84.6632   19.9058 Br  0  0  0  0  0  0  0  0  0  0  0  0
   19.3097   83.9757   22.5686 O   0  0  0  0  0  0  0  0  0  0  0  0
   19.5896   83.9287   23.5322 H   0  0  0  0  0  0  0  0  0  0  0  0
   21.2516   80.0763   12.3142 C   0  0  0  0  0  0  0  0  0  0  0  0
   21.2458   80.0665   10.8593 N   0  0  0  0  0  0  0  0  0  0  0  0
   21.0288   78.7120   10.3669 C   0  0  0  0  0  0  0  0  0  0  0  0
   19.5704   78.4235   10.1488 C   0  0  0  0  0  0  0  0  0  0  0  0
   18.7192   79.2305   10.8807 O   0  0  0  0  0  0  0  0  0  0  0  0
   18.8640   80.5883   10.6397 C   0  0  0  0  0  0  0  0  0  0  0  0
   20.2766   80.9686   10.2876 C   0  0  0  0  0  0  0  0  0  0  0  0
 20 21  1  0  0  0
 21 22  2  0  0  0
 21 26  1  0  0  0
 22 23  1  0  0  0
 22 28  1  0  0  0
 23 24  2  0  0  0
 23 27  1  0  0  0
 24 25  1  0  0  0
 25 26  2  0  0  0
 25 18  1  0  0  0
 18 19  2  0  0  0
 19 14  1  0  0  0
 14 15  1  0  0  0
 15 16  2  0  0  0
 15  1  1  0  0  0
  1  2  1  0  0  0
  1  5  2  0  0  0
  2  3  1  0  0  0
  2  6  1  0  0  0
  3  4  2  0  0  0
  4  5  1  0  0  0
  5 30  1  0  0  0
 30 31  1  0  0  0
 31 32  1  0  0  0
 31 36  1  0  0  0
 32 33  1  0  0  0
 33 34  1  0  0  0
 34 35  1  0  0  0
 35 36  1  0  0  0
  6  7  2  0  0  0
  6 10  1  0  0  0
  7  8  1  0  0  0
  8  9  1  0  0  0
  9 10  2  0  0  0
 10 11  1  0  0  0
 14 17  1  0  0  0
 11 12  1  0  0  0
 11 13  1  0  0  0
 28 29  1  0  0  0
M  END
> <minimizedAffinity>
-8.32243

$$$$
1300


 22 25  0  0  0  0  0  0  0  0999 V2000
   22.4209   79.0062   16.0450 N   0  0  0  0  0  0  0  0  0  0  0  0
   22.6268   78.0477   17.0662 C   0  0  0  0  0  0  0  0  0  0  0  0
   23.3293   77.0187   16.9900 O   0  0  0  0  0  0  0  0  0  0  0  0
   21.8802   78.4239   18.2856 C   0  0  0  0  0  0  0  0  0  0  0  0
   20.5656   77.6756   18.2387 C   0  0  0  0  0  0  0  0  0  0  0  0
   19.8959   78.4243   17.2345 O   0  0  0  0  0  0  0  0  0  0  0  0
   19.9276   79.6666   17.9224 C   0  0  0  0  0  0  0  0  0  0  0  0
   21.4156   79.8574   18.0452 C   0  0  0  0  0  0  0  0  0  0  0  0
   21.9506   80.1844   16.7046 C   0  0  0  0  0  0  0  0  0  0  0  0
   21.9891   81.3529   16.1990 O   0  0  0  0  0  0  0  0  0  0  0  0
   19.3051   79.2603   19.1998 C   0  0  0  0  0  0  0  0  0  0  0  0
   19.7296   78.0181   19.4160 C   0  0  0  0  0  0  0  0  0  0  0  0
   25.3391   79.1944   15.2773 Br  0  0  0  0  0  0  0  0  0  0  0  0
   23.8620   78.9915   14.0748 C   0  0  0  0  0  0  0  0  0  0  0  0
   22.6096   78.9223   14.6407 C   0  0  0  0  0  0  0  0  0  0  0  0
   21.5385   78.7719   13.7585 C   0  0  0  0  0  0  0  0  0  0  0  0
   21.7488   78.6998   12.4014 C   0  0  0  0  0  0  0  0  0  0  0  0
   23.0099   78.7694   11.8329 C   0  0  0  0  0  0  0  0  0  0  0  0
   24.0743   78.9178   12.7002 C   0  0  0  0  0  0  0  0  0  0  0  0
   23.1954   78.6941   10.4248 N   0  0  0  0  0  0  0  0  0  0  0  0
   24.3192   78.3795    9.9956 O   0  0  0  0  0  0  0  0  0  0  0  0
   22.2155   78.9449    9.5038 O   0  0  0  0  0  0  0  0  0  0  0  0
 13 14  1  0  0  0
 14 15  2  0  0  0
 14 19  1  0  0  0
 15 16  1  0  0  0
 15  1  1  0  0  0
 16 17  2  0  0  0
 17 18  1  0  0  0
 18 19  2  0  0  0
 18 20  1  0  0  0
 20 21  2  0  0  0
 20 22  1  0  0  0
  1  2  1  0  0  0
  1  9  1  0  0  0
  2  3  2  0  0  0
  2  4  1  0  0  0
  4  5  1  0  0  0
  4  8  1  0  0  0
  5  6  1  0  0  0
  5 12  1  0  0  0
  6  7  1  0  0  0
  7  8  1  0  0  0
  7 11  1  0  0  0
  8  9  1  0  0  0
  9 10  2  0  0  0
 11 12  2  0  0  0
M  CHG 1  22  -1
M  END
> <minimizedAffinity>
-8.44500

$$$$
1301


 24 27  0  0  0  0  0  0  0  0999 V2000
   22.3057   79.2181   15.1599 N   0  0  0  0  0  0  0  0  0  0  0  0
   22.3619   80.3272   16.0495 C   0  0  0  0  0  0  0  0  0  0  0  0
   22.6846   81.5040   15.7784 O   0  0  0  0  0  0  0  0  0  0  0  0
   21.9651   79.8841   17.4205 C   0  0  0  0  0  0  0  0  0  0  0  0
   20.4886   79.9492   17.6267 C   0  0  0  0  0  0  0  0  0  0  0  0
   20.0217   78.7875   16.9624 O   0  0  0  0  0  0  0  0  0  0  0  0
   20.8154   77.8652   17.6904 C   0  0  0  0  0  0  0  0  0  0  0  0
   22.1848   78.3737   17.3792 C   0  0  0  0  0  0  0  0  0  0  0  0
   22.5412   78.0753   15.9718 C   0  0  0  0  0  0  0  0  0  0  0  0
   22.9820   76.9806   15.5635 O   0  0  0  0  0  0  0  0  0  0  0  0
   20.4121   78.2476   19.0772 C   0  0  0  0  0  0  0  0  0  0  0  0
   20.1912   79.5734   19.0345 C   0  0  0  0  0  0  0  0  0  0  0  0
   20.5491   76.4646   17.3360 C   0  0  0  0  0  0  0  0  0  0  0  0
   19.7564   77.2373   10.9553 Br  0  0  0  0  0  0  0  0  0  0  0  0
   20.9459   78.4837   11.7627 C   0  0  0  0  0  0  0  0  0  0  0  0
   21.5365   79.4384   10.9680 C   0  0  0  0  0  0  0  0  0  0  0  0
   22.3916   80.3267   11.5780 C   0  0  0  0  0  0  0  0  0  0  0  0
   22.6396   80.2501   12.9529 C   0  0  0  0  0  0  0  0  0  0  0  0
   22.0546   79.2984   13.7635 C   0  0  0  0  0  0  0  0  0  0  0  0
   21.1978   78.4115   13.1352 C   0  0  0  0  0  0  0  0  0  0  0  0
   21.2724   79.5251    9.5019 C   0  0  0  0  0  0  0  0  0  0  0  0
   19.8295   81.1860   17.1713 C   0  0  0  0  0  0  0  0  0  0  0  0
   20.3711   82.3195   17.7730 O   0  0  0  0  0  0  0  0  0  0  0  0
   19.8592   82.6166   18.5764 H   0  0  0  0  0  0  0  0  0  0  0  0
 14 15  1  0  0  0
 15 16  2  0  0  0
 15 20  1  0  0  0
 16 17  1  0  0  0
 16 21  1  0  0  0
 17 18  2  0  0  0
 18 19  1  0  0  0
 19 20  2  0  0  0
 19  1  1  0  0  0
  1  2  1  0  0  0
  1  9  1  0  0  0
  2  3  2  0  0  0
  2  4  1  0  0  0
  4  5  1  0  0  0
  4  8  1  0  0  0
  5  6  1  0  0  0
  5 12  1  0  0  0
  5 22  1  0  0  0
  6  7  1  0  0  0
  7  8  1  0  0  0
  7 11  1  0  0  0
  7 13  1  0  0  0
  8  9  1  0  0  0
  9 10  2  0  0  0
 11 12  2  0  0  0
 22 23  1  0  0  0
 23 24  1  0  0  0
M  END
> <minimizedAffinity>
-8.65377

$$$$
1310


 32 35  0  0  0  0  0  0  0  0999 V2000
   21.4867   78.9754   16.4749 C   0  0  0  0  0  0  0  0  0  0  0  0
   20.6272   77.8303   16.6831 N   0  0  0  0  0  0  0  0  0  0  0  0
   20.6389   77.5553   18.0728 C   0  0  0  0  0  0  0  0  0  0  0  0
   20.4412   76.4546   18.6450 O   0  0  0  0  0  0  0  0  0  0  0  0
   20.9323   78.8276   18.7335 C   0  0  0  0  0  0  0  0  0  0  0  0
   21.0453   79.0740   19.9560 O   0  0  0  0  0  0  0  0  0  0  0  0
   21.0787   79.8108   17.6484 C   0  0  0  0  0  0  0  0  0  0  0  0
   20.9067   81.1074   17.7682 C   0  0  0  0  0  0  0  0  0  0  0  0
   21.1380   81.8870   16.6278 O   0  0  0  0  0  0  0  0  0  0  0  0
   20.4816   81.7390   19.0333 C   0  0  0  0  0  0  0  0  0  0  0  0
   21.0536   81.6971   20.1998 O   0  0  0  0  0  0  0  0  0  0  0  0
   20.3824   82.3877   21.0936 C   0  0  0  0  0  0  0  0  0  0  0  0
   19.2675   82.9424   20.4866 C   0  0  0  0  0  0  0  0  0  0  0  0
   19.3488   82.5185   19.1742 C   0  0  0  0  0  0  0  0  0  0  0  0
   18.3913   83.7196   21.2127 C   0  0  0  0  0  0  0  0  0  0  0  0
   18.5787   83.9777   22.5517 C   0  0  0  0  0  0  0  0  0  0  0  0
   19.6827   83.4332   23.1703 C   0  0  0  0  0  0  0  0  0  0  0  0
   20.5713   82.6464   22.4396 C   0  0  0  0  0  0  0  0  0  0  0  0
   25.5422   75.7105   15.0297 Br  0  0  0  0  0  0  0  0  0  0  0  0
   24.8444   77.2974   15.8641 C   0  0  0  0  0  0  0  0  0  0  0  0
   23.4705   77.5464   15.8669 C   0  0  0  0  0  0  0  0  0  0  0  0
   22.9180   78.6597   16.4473 C   0  0  0  0  0  0  0  0  0  0  0  0
   23.8209   79.5517   17.0500 C   0  0  0  0  0  0  0  0  0  0  0  0
   25.1766   79.3193   17.0538 C   0  0  0  0  0  0  0  0  0  0  0  0
   25.7040   78.1922   16.4634 C   0  0  0  0  0  0  0  0  0  0  0  0
   19.8399   77.0592   15.7234 C   0  0  0  0  0  0  0  0  0  0  0  0
   20.7128   76.5942   14.5732 C   0  0  0  0  0  0  0  0  0  0  0  0
   19.9190   76.2642   13.3367 C   0  0  0  0  0  0  0  0  0  0  0  0
   19.2094   75.0409   13.5327 N   0  0  0  0  0  0  0  0  0  0  0  0
   18.4918   74.5995   12.3556 C   0  0  0  0  0  0  0  0  0  0  0  0
   19.9991   73.9421   14.0001 C   0  0  0  0  0  0  0  0  0  0  0  0
   18.4668   75.2241   14.2720 H   0  0  0  0  0  0  0  0  0  0  0  0
 19 20  1  0  0  0
 20 21  2  0  0  0
 20 25  1  0  0  0
 21 22  1  0  0  0
 22 23  2  0  0  0
 22  1  1  0  0  0
 23 24  1  0  0  0
 24 25  2  0  0  0
  1  2  1  0  0  0
  1  7  1  0  0  0
  2  3  1  0  0  0
  2 26  1  0  0  0
  3  4  2  0  0  0
  3  5  1  0  0  0
  5  6  2  0  0  0
  5  7  1  0  0  0
  7  8  2  0  0  0
  8  9  1  0  0  0
  8 10  1  0  0  0
 10 11  1  0  0  0
 10 14  2  0  0  0
 11 12  1  0  0  0
 12 13  2  0  0  0
 12 18  1  0  0  0
 13 14  1  0  0  0
 13 15  1  0  0  0
 15 16  2  0  0  0
 16 17  1  0  0  0
 17 18  2  0  0  0
 26 27  1  0  0  0
 27 28  1  0  0  0
 28 29  1  0  0  0
 29 30  1  0  0  0
 29 31  1  0  0  0
 29 32  1  0  0  0
M  CHG 1   9  -1
M  CHG 1  29   1
M  END
> <minimizedAffinity>
-9.34070

$$$$
1314


 32 35  0  0  0  0  0  0  0  0999 V2000
   21.6881   79.1385   11.0728 C   0  0  0  0  0  0  0  0  0  0  0  0
   22.1791   79.6252    9.9741 N   0  0  0  0  0  0  0  0  0  0  0  0
   21.6144   79.0619    8.9622 N   0  0  0  0  0  0  0  0  0  0  0  0
   20.6681   78.1212    9.3464 N   0  0  0  0  0  0  0  0  0  0  0  0
   20.6843   78.1456   10.6606 C   0  0  0  0  0  0  0  0  0  0  0  0
   20.0342   77.4051    8.3321 C   0  0  0  0  0  0  0  0  0  0  0  0
   19.3646   78.0507    7.2929 N   0  0  0  0  0  0  0  0  0  0  0  0
   18.7872   77.1685    6.5787 O   0  0  0  0  0  0  0  0  0  0  0  0
   18.9966   75.9922    7.0177 N   0  0  0  0  0  0  0  0  0  0  0  0
   19.7806   76.1124    8.1263 C   0  0  0  0  0  0  0  0  0  0  0  0
   20.1751   74.9494    8.8642 N   0  0  0  0  0  0  0  0  0  0  0  0
   20.9280   74.3727    8.4630 H   0  0  0  0  0  0  0  0  0  0  0  0
   19.6835   74.6781    9.7132 H   0  0  0  0  0  0  0  0  0  0  0  0
   21.3803   80.0945   13.4505 N   0  0  0  0  0  0  0  0  0  0  0  0
   22.1219   79.2283   12.4072 C   0  0  0  0  0  0  0  0  0  0  0  0
   23.1054   78.6627   12.8713 O   0  0  0  0  0  0  0  0  0  0  0  0
   20.5420   80.5482   13.0974 H   0  0  0  0  0  0  0  0  0  0  0  0
   22.5207   80.2828   15.6505 C   0  0  0  0  0  0  0  0  0  0  0  0
   22.1180   80.0076   14.5069 N   0  0  0  0  0  0  0  0  0  0  0  0
   21.6692   77.7554   17.0827 Br  0  0  0  0  0  0  0  0  0  0  0  0
   23.4577   78.2777   16.7797 C   0  0  0  0  0  0  0  0  0  0  0  0
   23.7265   79.3740   15.9961 C   0  0  0  0  0  0  0  0  0  0  0  0
   24.9684   79.8070   15.7755 C   0  0  0  0  0  0  0  0  0  0  0  0
   26.0820   79.1326   16.3659 C   0  0  0  0  0  0  0  0  0  0  0  0
   25.8472   78.0650   17.1652 C   0  0  0  0  0  0  0  0  0  0  0  0
   24.5379   77.6244   17.3815 C   0  0  0  0  0  0  0  0  0  0  0  0
   19.8823   77.5916   11.7478 C   0  0  0  0  0  0  0  0  0  0  0  0
   19.9154   76.3986   12.3512 N   0  0  0  0  0  0  0  0  0  0  0  0
   20.4112   76.5376   13.7131 C   0  0  0  0  0  0  0  0  0  0  0  0
   19.4921   75.7472   14.5956 C   0  0  0  0  0  0  0  0  0  0  0  0
   18.4095   75.1940   13.6744 C   0  0  0  0  0  0  0  0  0  0  0  0
   19.1270   75.2834   12.3048 C   0  0  0  0  0  0  0  0  0  0  0  0
 20 21  1  0  0  0
 21 22  2  0  0  0
 21 26  1  0  0  0
 22 23  1  0  0  0
 22 18  1  0  0  0
 23 24  2  0  0  0
 24 25  1  0  0  0
 25 26  2  0  0  0
 18 19  2  0  0  0
 19 14  1  0  0  0
 14 15  1  0  0  0
 15 16  2  0  0  0
 15  1  1  0  0  0
  1  2  1  0  0  0
  1  5  2  0  0  0
  2  3  2  0  0  0
  3  4  1  0  0  0
  4  5  1  0  0  0
  4  6  1  0  0  0
  5 27  1  0  0  0
 27 28  1  0  0  0
 28 29  1  0  0  0
 28 32  1  0  0  0
 29 30  1  0  0  0
 30 31  1  0  0  0
 31 32  1  0  0  0
  6  7  2  0  0  0
  6 10  1  0  0  0
  7  8  1  0  0  0
  8  9  1  0  0  0
  9 10  2  0  0  0
 10 11  1  0  0  0
 14 17  1  0  0  0
 11 12  1  0  0  0
 11 13  1  0  0  0
M  END
> <minimizedAffinity>
-9.16336

$$$$
1315


 30 33  0  0  0  0  0  0  0  0999 V2000
   22.0506   77.7028   17.0448 N   0  0  0  0  0  0  0  0  0  0  0  0
   23.2884   78.2112   16.7384 C   0  0  0  0  0  0  0  0  0  0  0  0
   23.3406   78.3082   15.3781 C   0  0  0  0  0  0  0  0  0  0  0  0
   24.5001   78.7968   14.7690 C   0  0  0  0  0  0  0  0  0  0  0  0
   25.5712   79.1728   15.5514 C   0  0  0  0  0  0  0  0  0  0  0  0
   25.5212   79.0772   16.9250 C   0  0  0  0  0  0  0  0  0  0  0  0
   24.3572   78.5877   17.5230 C   0  0  0  0  0  0  0  0  0  0  0  0
   22.1599   77.8712   14.8873 N   0  0  0  0  0  0  0  0  0  0  0  0
   21.3613   77.5000   15.8903 C   0  0  0  0  0  0  0  0  0  0  0  0
   20.1108   77.1123   15.7763 N   0  0  0  0  0  0  0  0  0  0  0  0
   19.6474   76.9749   14.8823 H   0  0  0  0  0  0  0  0  0  0  0  0
   19.5633   76.9690   16.6363 H   0  0  0  0  0  0  0  0  0  0  0  0
   21.5668   77.5009   18.3936 C   0  0  0  0  0  0  0  0  0  0  0  0
   20.4321   78.3600   18.7545 C   0  0  0  0  0  0  0  0  0  0  0  0
   19.2908   77.7412   18.9559 O   0  0  0  0  0  0  0  0  0  0  0  0
   20.4513   82.7074   21.9210 Br  0  0  0  0  0  0  0  0  0  0  0  0
   20.3499   81.8118   20.2080 C   0  0  0  0  0  0  0  0  0  0  0  0
   20.4161   80.4508   20.1218 C   0  0  0  0  0  0  0  0  0  0  0  0
   20.3541   79.7872   18.9302 C   0  0  0  0  0  0  0  0  0  0  0  0
   20.2177   80.5862   17.7843 C   0  0  0  0  0  0  0  0  0  0  0  0
   20.1476   81.9511   17.8307 C   0  0  0  0  0  0  0  0  0  0  0  0
   20.2149   82.5612   19.0613 C   0  0  0  0  0  0  0  0  0  0  0  0
   21.8718   77.8834   13.4635 C   0  0  0  0  0  0  0  0  0  0  0  0
   21.7055   79.2120   12.8494 C   0  0  0  0  0  0  0  0  0  0  0  0
   22.6316   79.6479   11.8671 N   0  0  0  0  0  0  0  0  0  0  0  0
   22.0736   80.7896   11.0979 C   0  0  0  0  0  0  0  0  0  0  0  0
   20.7575   80.4579   10.4748 C   0  0  0  0  0  0  0  0  0  0  0  0
   21.0037   79.5021    9.4877 O   0  0  0  0  0  0  0  0  0  0  0  0
   21.6048   78.3804   10.0020 C   0  0  0  0  0  0  0  0  0  0  0  0
   22.8438   78.6384   10.8163 C   0  0  0  0  0  0  0  0  0  0  0  0
 16 17  1  0  0  0
 17 18  2  0  0  0
 17 22  1  0  0  0
 18 19  1  0  0  0
 19 20  2  0  0  0
 19 14  1  0  0  0
 20 21  1  0  0  0
 21 22  2  0  0  0
 14 15  2  0  0  0
 14 13  1  0  0  0
 13  1  1  0  0  0
  1  2  1  0  0  0
  1  9  1  0  0  0
  2  3  1  0  0  0
  2  7  2  0  0  0
  3  4  2  0  0  0
  3  8  1  0  0  0
  4  5  1  0  0  0
  5  6  2  0  0  0
  6  7  1  0  0  0
  8  9  1  0  0  0
  8 23  1  0  0  0
  9 10  2  0  0  0
 23 24  1  0  0  0
 24 25  1  0  0  0
 25 26  1  0  0  0
 25 30  1  0  0  0
 26 27  1  0  0  0
 27 28  1  0  0  0
 28 29  1  0  0  0
 29 30  1  0  0  0
 10 11  1  0  0  0
 10 12  1  0  0  0
M  END
> <minimizedAffinity>
-9.75237

$$$$
1325


 31 34  0  0  0  0  0  0  0  0999 V2000
   21.2931   79.2241   14.7502 C   0  0  0  0  0  0  0  0  0  0  0  0
   22.5800   79.2487   14.1198 N   0  0  0  0  0  0  0  0  0  0  0  0
   22.3309   78.6477   12.8141 C   0  0  0  0  0  0  0  0  0  0  0  0
   22.9949   78.8446   11.7729 O   0  0  0  0  0  0  0  0  0  0  0  0
   21.1751   77.7804   12.9462 C   0  0  0  0  0  0  0  0  0  0  0  0
   20.6087   77.0654   12.0667 O   0  0  0  0  0  0  0  0  0  0  0  0
   20.7617   77.8902   14.3489 C   0  0  0  0  0  0  0  0  0  0  0  0
   20.0600   77.0135   15.0127 C   0  0  0  0  0  0  0  0  0  0  0  0
   19.7054   77.3081   16.3349 O   0  0  0  0  0  0  0  0  0  0  0  0
   19.6451   75.7326   14.4070 C   0  0  0  0  0  0  0  0  0  0  0  0
   18.4768   75.5027   13.8182 O   0  0  0  0  0  0  0  0  0  0  0  0
   18.3949   74.2738   13.3782 C   0  0  0  0  0  0  0  0  0  0  0  0
   19.5606   73.5972   13.6703 C   0  0  0  0  0  0  0  0  0  0  0  0
   20.3318   74.5457   14.3210 C   0  0  0  0  0  0  0  0  0  0  0  0
   19.7179   72.2788   13.3060 C   0  0  0  0  0  0  0  0  0  0  0  0
   18.7440   71.5648   12.6430 C   0  0  0  0  0  0  0  0  0  0  0  0
   17.5722   72.2383   12.3489 C   0  0  0  0  0  0  0  0  0  0  0  0
   17.3995   73.5574   12.7061 C   0  0  0  0  0  0  0  0  0  0  0  0
   20.5658   80.7076   20.7161 Br  0  0  0  0  0  0  0  0  0  0  0  0
   20.8052   80.2432   18.8730 C   0  0  0  0  0  0  0  0  0  0  0  0
   20.0600   80.8258   17.8782 C   0  0  0  0  0  0  0  0  0  0  0  0
   20.2516   80.4763   16.5660 C   0  0  0  0  0  0  0  0  0  0  0  0
   21.1999   79.5208   16.1574 C   0  0  0  0  0  0  0  0  0  0  0  0
   21.9269   78.9561   17.1590 C   0  0  0  0  0  0  0  0  0  0  0  0
   21.7349   79.3080   18.4812 C   0  0  0  0  0  0  0  0  0  0  0  0
   23.8686   79.7720   14.5153 C   0  0  0  0  0  0  0  0  0  0  0  0
   24.9596   78.8184   14.7655 C   0  0  0  0  0  0  0  0  0  0  0  0
   25.2663   78.5097   16.1378 N   0  0  0  0  0  0  0  0  0  0  0  0
   25.0136   77.1349   16.4641 C   0  0  0  0  0  0  0  0  0  0  0  0
   26.5229   79.0201   16.6069 C   0  0  0  0  0  0  0  0  0  0  0  0
   24.5193   79.0547   16.6914 H   0  0  0  0  0  0  0  0  0  0  0  0
 19 20  1  0  0  0
 20 21  2  0  0  0
 20 25  1  0  0  0
 21 22  1  0  0  0
 22 23  2  0  0  0
 23 24  1  0  0  0
 23  1  1  0  0  0
 24 25  2  0  0  0
  1  2  1  0  0  0
  1  7  1  0  0  0
  2  3  1  0  0  0
  2 26  1  0  0  0
  3  4  2  0  0  0
  3  5  1  0  0  0
  5  6  2  0  0  0
  5  7  1  0  0  0
  7  8  2  0  0  0
  8  9  1  0  0  0
  8 10  1  0  0  0
 10 11  1  0  0  0
 10 14  2  0  0  0
 11 12  1  0  0  0
 12 13  2  0  0  0
 12 18  1  0  0  0
 13 14  1  0  0  0
 13 15  1  0  0  0
 15 16  2  0  0  0
 16 17  1  0  0  0
 17 18  2  0  0  0
 26 27  1  0  0  0
 27 28  1  0  0  0
 28 29  1  0  0  0
 28 30  1  0  0  0
 28 31  1  0  0  0
M  CHG 1   9  -1
M  CHG 1  28   1
M  END
> <minimizedAffinity>
-8.44598

$$$$
1329


 28 31  0  0  0  0  0  0  0  0999 V2000
   20.6532   78.3298    9.0305 C   0  0  0  0  0  0  0  0  0  0  0  0
   20.7767   78.1450   10.3462 C   0  0  0  0  0  0  0  0  0  0  0  0
   20.1079   77.2073   11.1305 O   0  0  0  0  0  0  0  0  0  0  0  0
   20.4953   77.3064   12.4386 C   0  0  0  0  0  0  0  0  0  0  0  0
   21.4398   78.3164   12.5859 C   0  0  0  0  0  0  0  0  0  0  0  0
   21.9523   78.5553   13.8512 C   0  0  0  0  0  0  0  0  0  0  0  0
   21.5291   77.8036   14.9235 C   0  0  0  0  0  0  0  0  0  0  0  0
   20.5780   76.7973   14.7372 C   0  0  0  0  0  0  0  0  0  0  0  0
   20.0539   76.5410   13.4978 C   0  0  0  0  0  0  0  0  0  0  0  0
   20.2174   76.0977   15.8785 O   0  0  0  0  0  0  0  0  0  0  0  0
   21.6528   78.8906   11.2464 C   0  0  0  0  0  0  0  0  0  0  0  0
   22.4403   79.8372   10.9883 O   0  0  0  0  0  0  0  0  0  0  0  0
   16.0623   77.9428    6.3448 Br  0  0  0  0  0  0  0  0  0  0  0  0
   17.7058   77.2313    7.0105 C   0  0  0  0  0  0  0  0  0  0  0  0
   18.5696   78.0294    7.7558 C   0  0  0  0  0  0  0  0  0  0  0  0
   19.7510   77.5145    8.2416 C   0  0  0  0  0  0  0  0  0  0  0  0
   20.0905   76.2064    7.9963 C   0  0  0  0  0  0  0  0  0  0  0  0
   19.2252   75.4320    7.2598 C   0  0  0  0  0  0  0  0  0  0  0  0
   18.0366   75.9094    6.7554 C   0  0  0  0  0  0  0  0  0  0  0  0
   19.0025   75.5306   13.3698 C   0  0  0  0  0  0  0  0  0  0  0  0
   19.3302   74.3682   12.6273 N   0  0  0  0  0  0  0  0  0  0  0  0
   18.5005   74.3405   11.4340 C   0  0  0  0  0  0  0  0  0  0  0  0
   18.0100   72.9921   11.0336 C   0  0  0  0  0  0  0  0  0  0  0  0
   17.4162   72.2258   12.0721 N   0  0  0  0  0  0  0  0  0  0  0  0
   17.7029   72.7619   13.3619 C   0  0  0  0  0  0  0  0  0  0  0  0
   19.1316   73.1847   13.4297 C   0  0  0  0  0  0  0  0  0  0  0  0
   17.8182   70.8402   11.9522 C   0  0  0  0  0  0  0  0  0  0  0  0
   20.3556   74.3346   12.3442 H   0  0  0  0  0  0  0  0  0  0  0  0
 13 14  1  0  0  0
 14 15  2  0  0  0
 14 19  1  0  0  0
 15 16  1  0  0  0
 16 17  2  0  0  0
 16  1  1  0  0  0
 17 18  1  0  0  0
 18 19  2  0  0  0
  1  2  2  0  0  0
  2  3  1  0  0  0
  2 11  1  0  0  0
  3  4  1  0  0  0
  4  5  2  0  0  0
  4  9  1  0  0  0
  5  6  1  0  0  0
  5 11  1  0  0  0
  6  7  2  0  0  0
  7  8  1  0  0  0
  8  9  2  0  0  0
  8 10  1  0  0  0
  9 20  1  0  0  0
 20 21  1  0  0  0
 21 22  1  0  0  0
 21 26  1  0  0  0
 22 23  1  0  0  0
 23 24  1  0  0  0
 24 25  1  0  0  0
 24 27  1  0  0  0
 25 26  1  0  0  0
 11 12  2  0  0  0
 21 28  1  0  0  0
M  CHG 1  10  -1
M  CHG 1  21   1
M  END
> <minimizedAffinity>
-9.35979

$$$$
1337


 32 35  0  0  0  0  0  0  0  0999 V2000
   20.8972   77.7229   16.6338 N   0  0  0  0  0  0  0  0  0  0  0  0
   20.7649   77.1139   15.3611 C   0  0  0  0  0  0  0  0  0  0  0  0
   19.6839   76.5186   15.1043 O   0  0  0  0  0  0  0  0  0  0  0  0
   21.7890   78.2159   16.8515 H   0  0  0  0  0  0  0  0  0  0  0  0
   21.8810   77.1903   14.3816 C   0  0  0  0  0  0  0  0  0  0  0  0
   23.0423   77.0008   15.0315 O   0  0  0  0  0  0  0  0  0  0  0  0
   24.1746   77.5476   14.5153 C   0  0  0  0  0  0  0  0  0  0  0  0
   25.1550   77.5241   15.5179 O   0  0  0  0  0  0  0  0  0  0  0  0
   25.0414   78.6904   16.2342 C   0  0  0  0  0  0  0  0  0  0  0  0
   24.1630   79.5302   15.5789 O   0  0  0  0  0  0  0  0  0  0  0  0
   24.0718   79.0326   14.2582 C   0  0  0  0  0  0  0  0  0  0  0  0
   22.8001   79.4094   13.6016 C   0  0  0  0  0  0  0  0  0  0  0  0
   23.0102   79.8083   12.2616 O   0  0  0  0  0  0  0  0  0  0  0  0
   22.0147   79.2458   11.5038 C   0  0  0  0  0  0  0  0  0  0  0  0
   21.7114   78.0767   12.1516 O   0  0  0  0  0  0  0  0  0  0  0  0
   21.7490   78.3888   13.5188 C   0  0  0  0  0  0  0  0  0  0  0  0
   22.6106   78.9793   10.1160 C   0  0  0  0  0  0  0  0  0  0  0  0
   20.8354   80.1574   11.2871 C   0  0  0  0  0  0  0  0  0  0  0  0
   26.3734   79.4363   16.3240 C   0  0  0  0  0  0  0  0  0  0  0  0
   24.5891   78.4529   17.6658 C   0  0  0  0  0  0  0  0  0  0  0  0
   19.8739   77.6971   17.6361 C   0  0  0  0  0  0  0  0  0  0  0  0
   20.3198   79.9330   18.7504 N   0  0  0  0  0  0  0  0  0  0  0  0
   19.4740   79.0737   18.0265 C   0  0  0  0  0  0  0  0  0  0  0  0
   18.3346   79.4408   17.6767 O   0  0  0  0  0  0  0  0  0  0  0  0
   21.2765   79.5199   19.0014 H   0  0  0  0  0  0  0  0  0  0  0  0
   19.1450   85.5366   20.9417 Br  0  0  0  0  0  0  0  0  0  0  0  0
   19.5350   83.8135   20.2009 C   0  0  0  0  0  0  0  0  0  0  0  0
   19.2560   82.6925   20.9505 C   0  0  0  0  0  0  0  0  0  0  0  0
   19.5296   81.4463   20.4360 C   0  0  0  0  0  0  0  0  0  0  0  0
   20.0810   81.2341   19.1802 C   0  0  0  0  0  0  0  0  0  0  0  0
   20.3478   82.3739   18.4559 C   0  0  0  0  0  0  0  0  0  0  0  0
   20.0756   83.6530   18.9651 C   0  0  0  0  0  0  0  0  0  0  0  0
 26 27  1  0  0  0
 27 28  2  0  0  0
 27 32  1  0  0  0
 28 29  1  0  0  0
 29 30  2  0  0  0
 30 31  1  0  0  0
 30 22  1  0  0  0
 31 32  2  0  0  0
 22 23  1  0  0  0
 23 24  2  0  0  0
 23 21  1  0  0  0
 21  1  1  0  0  0
  1  2  1  0  0  0
  2  3  2  0  0  0
  2  5  1  0  0  0
  5  6  1  0  0  0
  5 16  1  0  0  0
  6  7  1  0  0  0
  7  8  1  0  0  0
  7 11  1  0  0  0
  8  9  1  0  0  0
  9 10  1  0  0  0
  9 19  1  0  0  0
  9 20  1  0  0  0
 10 11  1  0  0  0
 11 12  1  0  0  0
 12 13  1  0  0  0
 12 16  1  0  0  0
 13 14  1  0  0  0
 14 15  1  0  0  0
 14 17  1  0  0  0
 14 18  1  0  0  0
 15 16  1  0  0  0
 22 25  1  0  0  0
  1  4  1  0  0  0
M  END
> <minimizedAffinity>
-10.69195

$$$$
1341


 28 31  0  0  0  0  0  0  0  0999 V2000
   22.1004   77.9985   14.6914 C   0  0  0  0  0  0  0  0  0  0  0  0
   23.2949   78.0358   15.3271 N   0  0  0  0  0  0  0  0  0  0  0  0
   23.0915   77.7975   16.6392 C   0  0  0  0  0  0  0  0  0  0  0  0
   21.7772   77.6035   16.8817 N   0  0  0  0  0  0  0  0  0  0  0  0
   21.1761   77.7288   15.6766 C   0  0  0  0  0  0  0  0  0  0  0  0
   24.3884   77.8309   17.3620 C   0  0  0  0  0  0  0  0  0  0  0  0
   25.4171   78.2100   16.3532 C   0  0  0  0  0  0  0  0  0  0  0  0
   24.6992   78.2477   15.0554 C   0  0  0  0  0  0  0  0  0  0  0  0
   20.7298   78.7632    8.8473 Cl  0  0  0  0  0  0  0  0  0  0  0  0
   21.1328   78.5438   10.5451 C   0  0  0  0  0  0  0  0  0  0  0  0
   20.2864   77.8784   11.4051 C   0  0  0  0  0  0  0  0  0  0  0  0
   20.6080   77.7097   12.7399 C   0  0  0  0  0  0  0  0  0  0  0  0
   21.7847   78.1932   13.2773 C   0  0  0  0  0  0  0  0  0  0  0  0
   22.6346   78.8582   12.4187 C   0  0  0  0  0  0  0  0  0  0  0  0
   22.3124   79.0315   11.0673 C   0  0  0  0  0  0  0  0  0  0  0  0
   21.1260   77.3201   18.1443 C   0  0  0  0  0  0  0  0  0  0  0  0
   20.4409   78.5446   18.6477 C   0  0  0  0  0  0  0  0  0  0  0  0
   19.2673   78.4416   19.0095 O   0  0  0  0  0  0  0  0  0  0  0  0
   21.1699   79.7349   18.6785 N   0  0  0  0  0  0  0  0  0  0  0  0
   22.1923   79.7665   18.3491 H   0  0  0  0  0  0  0  0  0  0  0  0
   20.6662   80.9806   19.1355 C   0  0  0  0  0  0  0  0  0  0  0  0
   20.4540   82.0054   18.2041 C   0  0  0  0  0  0  0  0  0  0  0  0
   19.9910   83.2159   18.6094 C   0  0  0  0  0  0  0  0  0  0  0  0
   19.7158   83.4711   19.9429 C   0  0  0  0  0  0  0  0  0  0  0  0
   19.9266   82.4661   20.8434 C   0  0  0  0  0  0  0  0  0  0  0  0
   20.4035   81.2074   20.4564 C   0  0  0  0  0  0  0  0  0  0  0  0
   19.2095   84.8024   20.3623 C   0  0  0  0  0  0  0  0  0  0  0  0
   18.0191   84.5842   21.3014 C   0  0  0  0  0  0  0  0  0  0  0  0
  9 10  1  0  0  0
 10 11  2  0  0  0
 10 15  1  0  0  0
 11 12  1  0  0  0
 12 13  2  0  0  0
 13 14  1  0  0  0
 13  1  1  0  0  0
 14 15  2  0  0  0
  1  2  1  0  0  0
  1  5  2  0  0  0
  2  3  1  0  0  0
  2  8  1  0  0  0
  3  4  2  0  0  0
  3  6  1  0  0  0
  4  5  1  0  0  0
  4 16  1  0  0  0
 16 17  1  0  0  0
 17 18  2  0  0  0
 17 19  1  0  0  0
 19 21  1  0  0  0
 21 22  2  0  0  0
 21 26  1  0  0  0
 22 23  1  0  0  0
 23 24  2  0  0  0
 24 25  1  0  0  0
 24 27  1  0  0  0
 25 26  2  0  0  0
 27 28  1  0  0  0
  6  7  1  0  0  0
  7  8  1  0  0  0
 19 20  1  0  0  0
M  END
> <minimizedAffinity>
-10.49708

$$$$
1343


 41 44  0  0  0  0  0  0  0  0999 V2000
   20.6591   76.6685   14.5920 C   0  0  0  0  0  0  0  0  0  0  0  0
   20.6369   77.3494   13.4173 N   0  0  0  0  0  0  0  0  0  0  0  0
   19.9515   76.6159   12.5027 C   0  0  0  0  0  0  0  0  0  0  0  0
   19.6275   76.7954   11.2171 N   0  0  0  0  0  0  0  0  0  0  0  0
   18.9197   75.8856   10.5228 C   0  0  0  0  0  0  0  0  0  0  0  0
   18.5236   74.7535   11.1443 N   0  0  0  0  0  0  0  0  0  0  0  0
   18.8091   74.5080   12.4182 C   0  0  0  0  0  0  0  0  0  0  0  0
   19.5349   75.4460   13.1255 C   0  0  0  0  0  0  0  0  0  0  0  0
   19.9803   75.5231   14.3678 N   0  0  0  0  0  0  0  0  0  0  0  0
   18.4127   73.3467   13.0893 O   0  0  0  0  0  0  0  0  0  0  0  0
   18.5808   76.0948    9.1439 N   0  0  0  0  0  0  0  0  0  0  0  0
   17.4979   73.3742   13.5239 H   0  0  0  0  0  0  0  0  0  0  0  0
   18.8524   75.4682    8.3791 H   0  0  0  0  0  0  0  0  0  0  0  0
   18.0210   76.9469    8.9298 H   0  0  0  0  0  0  0  0  0  0  0  0
   21.2374   78.6268   13.1863 C   0  0  0  0  0  0  0  0  0  0  0  0
   20.8992   79.1976   11.9673 O   0  0  0  0  0  0  0  0  0  0  0  0
   21.8605   80.1070   11.6309 C   0  0  0  0  0  0  0  0  0  0  0  0
   23.0479   79.9399   12.5158 C   0  0  0  0  0  0  0  0  0  0  0  0
   22.7519   78.6013   13.1951 C   0  0  0  0  0  0  0  0  0  0  0  0
   23.2642   78.5849   14.4918 O   0  0  0  0  0  0  0  0  0  0  0  0
   23.0230   80.8949   13.5528 O   0  0  0  0  0  0  0  0  0  0  0  0
   23.7448   77.7325   14.6555 H   0  0  0  0  0  0  0  0  0  0  0  0
   23.9251   81.0817   13.8908 H   0  0  0  0  0  0  0  0  0  0  0  0
   22.3061   79.8236   10.1950 C   0  0  0  0  0  0  0  0  0  0  0  0
   21.5414   78.7838    9.6545 O   0  0  0  0  0  0  0  0  0  0  0  0
   21.0139   78.3221   10.3556 H   0  0  0  0  0  0  0  0  0  0  0  0
   21.2770   77.0956   15.7996 N   0  0  0  0  0  0  0  0  0  0  0  0
   22.1591   76.6537   16.1018 H   0  0  0  0  0  0  0  0  0  0  0  0
   21.2429   78.8791   17.3479 C   0  0  0  0  0  0  0  0  0  0  0  0
   20.6408   78.1182   16.5297 N   0  0  0  0  0  0  0  0  0  0  0  0
   19.9185   77.8829   19.9320 Br  0  0  0  0  0  0  0  0  0  0  0  0
   19.9686   79.6778   19.3071 C   0  0  0  0  0  0  0  0  0  0  0  0
   20.6114   79.9453   18.1177 C   0  0  0  0  0  0  0  0  0  0  0  0
   20.6224   81.2600   17.7036 C   0  0  0  0  0  0  0  0  0  0  0  0
   20.0260   82.2707   18.4279 C   0  0  0  0  0  0  0  0  0  0  0  0
   19.3833   82.0031   19.6184 C   0  0  0  0  0  0  0  0  0  0  0  0
   19.3613   80.6939   20.0497 C   0  0  0  0  0  0  0  0  0  0  0  0
   20.0422   83.5956   18.0030 O   0  0  0  0  0  0  0  0  0  0  0  0
   21.0124   84.5288   18.3586 C   0  0  0  0  0  0  0  0  0  0  0  0
   18.7820   83.0303   20.3469 O   0  0  0  0  0  0  0  0  0  0  0  0
   19.2549   83.4730   21.5832 C   0  0  0  0  0  0  0  0  0  0  0  0
 31 32  1  0  0  0
 32 33  2  0  0  0
 32 37  1  0  0  0
 33 34  1  0  0  0
 33 29  1  0  0  0
 34 35  2  0  0  0
 35 36  1  0  0  0
 35 38  1  0  0  0
 36 37  2  0  0  0
 36 40  1  0  0  0
 40 41  1  0  0  0
 38 39  1  0  0  0
 29 30  2  0  0  0
 30 27  1  0  0  0
 27  1  1  0  0  0
  1  2  1  0  0  0
  1  9  2  0  0  0
  2  3  1  0  0  0
  2 15  1  0  0  0
  3  4  2  0  0  0
  3  8  1  0  0  0
  4  5  1  0  0  0
  5  6  2  0  0  0
  5 11  1  0  0  0
  6  7  1  0  0  0
  7  8  2  0  0  0
  7 10  1  0  0  0
  8  9  1  0  0  0
 15 16  1  0  0  0
 15 19  1  0  0  0
 16 17  1  0  0  0
 17 18  1  0  0  0
 17 24  1  0  0  0
 18 19  1  0  0  0
 18 21  1  0  0  0
 19 20  1  0  0  0
 24 25  1  0  0  0
 27 28  1  0  0  0
 10 12  1  0  0  0
 11 13  1  0  0  0
 11 14  1  0  0  0
 20 22  1  0  0  0
 21 23  1  0  0  0
 25 26  1  0  0  0
M  END
> <minimizedAffinity>
-9.84275

$$$$
1355


 27 30  0  0  0  0  0  0  0  0999 V2000
   19.6468   80.6354   19.9452 N   0  0  0  0  0  0  0  0  0  0  0  0
   19.8116   81.8106   19.1914 C   0  0  0  0  0  0  0  0  0  0  0  0
   19.5959   81.7869   17.9597 O   0  0  0  0  0  0  0  0  0  0  0  0
   19.8271   80.6609   20.9685 H   0  0  0  0  0  0  0  0  0  0  0  0
   20.2353   83.0596   19.8422 C   0  0  0  0  0  0  0  0  0  0  0  0
   19.3713   84.2381   19.4340 C   0  0  0  0  0  0  0  0  0  0  0  0
   19.6889   85.4520   20.2412 C   0  0  0  0  0  0  0  0  0  0  0  0
   18.8660   85.6232   21.4761 C   0  0  0  0  0  0  0  0  0  0  0  0
   18.3945   84.2890   22.0462 C   0  0  0  0  0  0  0  0  0  0  0  0
   19.5668   83.4698   22.2508 N   0  0  0  0  0  0  0  0  0  0  0  0
   20.0160   83.1313   23.4297 N   0  0  0  0  0  0  0  0  0  0  0  0
   21.0861   82.3919   23.2749 N   0  0  0  0  0  0  0  0  0  0  0  0
   21.3016   82.2714   21.9793 N   0  0  0  0  0  0  0  0  0  0  0  0
   20.3544   82.9446   21.3034 C   0  0  0  0  0  0  0  0  0  0  0  0
   19.2307   79.3915   19.3236 C   0  0  0  0  0  0  0  0  0  0  0  0
   22.3476   78.2318   17.7811 C   0  0  0  0  0  0  0  0  0  0  0  0
   21.8349   77.1014   18.2944 N   0  0  0  0  0  0  0  0  0  0  0  0
   20.6927   77.3712   18.8905 O   0  0  0  0  0  0  0  0  0  0  0  0
   20.4287   78.6492   18.7890 C   0  0  0  0  0  0  0  0  0  0  0  0
   21.4572   79.1884   18.0982 N   0  0  0  0  0  0  0  0  0  0  0  0
   22.2680   77.5276   14.8762 Cl  0  0  0  0  0  0  0  0  0  0  0  0
   23.6997   78.0978   15.6985 C   0  0  0  0  0  0  0  0  0  0  0  0
   23.5962   78.3863   17.0426 C   0  0  0  0  0  0  0  0  0  0  0  0
   24.7402   78.8330   17.6595 C   0  0  0  0  0  0  0  0  0  0  0  0
   25.9334   78.9901   16.9916 C   0  0  0  0  0  0  0  0  0  0  0  0
   26.0182   78.6904   15.6263 C   0  0  0  0  0  0  0  0  0  0  0  0
   24.8881   78.2434   14.9897 C   0  0  0  0  0  0  0  0  0  0  0  0
 21 22  1  0  0  0
 22 23  2  0  0  0
 22 27  1  0  0  0
 23 24  1  0  0  0
 23 16  1  0  0  0
 24 25  2  0  0  0
 25 26  1  0  0  0
 26 27  2  0  0  0
 16 17  2  0  0  0
 16 20  1  0  0  0
 17 18  1  0  0  0
 18 19  1  0  0  0
 19 20  2  0  0  0
 19 15  1  0  0  0
 15  1  1  0  0  0
  1  2  1  0  0  0
  2  3  2  0  0  0
  2  5  1  0  0  0
  5  6  1  0  0  0
  5 14  1  0  0  0
  6  7  1  0  0  0
  7  8  1  0  0  0
  8  9  1  0  0  0
  9 10  1  0  0  0
 10 11  1  0  0  0
 10 14  1  0  0  0
 11 12  2  0  0  0
 12 13  1  0  0  0
 13 14  2  0  0  0
  1  4  1  0  0  0
M  END
> <minimizedAffinity>
-10.50761

$$$$
1357


 24 27  0  0  0  0  0  0  0  0999 V2000
   21.3760   78.7184   13.1929 C   0  0  0  0  0  0  0  0  0  0  0  0
   22.0372   77.9826   14.1778 C   0  0  0  0  0  0  0  0  0  0  0  0
   23.2174   78.1532   15.0686 C   0  0  0  0  0  0  0  0  0  0  0  0
   22.4191   78.6408   16.2214 N   0  0  0  0  0  0  0  0  0  0  0  0
   21.4978   79.4276   15.7607 C   0  0  0  0  0  0  0  0  0  0  0  0
   21.6618   79.4875   14.3421 C   0  0  0  0  0  0  0  0  0  0  0  0
   20.4982   80.1090   16.5512 N   0  0  0  0  0  0  0  0  0  0  0  0
   23.7225   76.8833   15.3686 O   0  0  0  0  0  0  0  0  0  0  0  0
   25.0805   76.9186   15.1181 C   0  0  0  0  0  0  0  0  0  0  0  0
   25.3997   78.3961   15.2718 C   0  0  0  0  0  0  0  0  0  0  0  0
   24.2282   78.9415   14.6902 O   0  0  0  0  0  0  0  0  0  0  0  0
   20.7203   80.4756   17.4964 H   0  0  0  0  0  0  0  0  0  0  0  0
   19.5370   80.2446   16.1869 H   0  0  0  0  0  0  0  0  0  0  0  0
   19.7133   80.2119   10.9184 Br  0  0  0  0  0  0  0  0  0  0  0  0
   21.4960   79.5352   10.8311 C   0  0  0  0  0  0  0  0  0  0  0  0
   22.0867   78.9151   11.9029 C   0  0  0  0  0  0  0  0  0  0  0  0
   23.3753   78.4463   11.8055 C   0  0  0  0  0  0  0  0  0  0  0  0
   24.1100   78.5816   10.6355 C   0  0  0  0  0  0  0  0  0  0  0  0
   23.5380   79.1996    9.5497 C   0  0  0  0  0  0  0  0  0  0  0  0
   22.2259   79.6738    9.6582 C   0  0  0  0  0  0  0  0  0  0  0  0
   22.7284   80.4939   14.0570 C   0  0  0  0  0  0  0  0  0  0  0  0
   23.5555   81.3108   13.8357 N   0  0  0  0  0  0  0  0  0  0  0  0
   21.1184   77.0220   14.8870 C   0  0  0  0  0  0  0  0  0  0  0  0
   20.3867   76.2661   15.4244 N   0  0  0  0  0  0  0  0  0  0  0  0
 14 15  1  0  0  0
 15 16  2  0  0  0
 15 20  1  0  0  0
 16 17  1  0  0  0
 16  1  1  0  0  0
 17 18  2  0  0  0
 18 19  1  0  0  0
 19 20  2  0  0  0
  1  2  1  0  0  0
  1  6  1  0  0  0
  2  3  1  0  0  0
  2  6  1  0  0  0
  2 23  1  0  0  0
  3  4  1  0  0  0
  3  8  1  0  0  0
  3 11  1  0  0  0
  4  5  2  0  0  0
  5  6  1  0  0  0
  5  7  1  0  0  0
  6 21  1  0  0  0
 21 22  3  0  0  0
  8  9  1  0  0  0
  9 10  1  0  0  0
 10 11  1  0  0  0
 23 24  3  0  0  0
  7 12  1  0  0  0
  7 13  1  0  0  0
M  END
> <minimizedAffinity>
-7.36403

$$$$
1360


 34 37  0  0  0  0  0  0  0  0999 V2000
   21.3113   78.3538   16.2465 C   0  0  0  0  0  0  0  0  0  0  0  0
   20.9736   77.9344   14.9110 N   0  0  0  0  0  0  0  0  0  0  0  0
   21.8040   78.8526   14.0984 C   0  0  0  0  0  0  0  0  0  0  0  0
   21.6890   78.4241   12.7583 N   0  0  0  0  0  0  0  0  0  0  0  0
   20.7211   77.3713   12.7188 C   0  0  0  0  0  0  0  0  0  0  0  0
   20.3062   77.0967   14.0235 C   0  0  0  0  0  0  0  0  0  0  0  0
   19.3652   76.1089   14.2256 C   0  0  0  0  0  0  0  0  0  0  0  0
   19.0070   75.8799   15.4094 O   0  0  0  0  0  0  0  0  0  0  0  0
   18.8728   75.4395   13.1768 N   0  0  0  0  0  0  0  0  0  0  0  0
   19.2842   75.7207   11.9520 C   0  0  0  0  0  0  0  0  0  0  0  0
   18.7948   75.0665   10.9912 O   0  0  0  0  0  0  0  0  0  0  0  0
   20.2146   76.6888   11.6878 N   0  0  0  0  0  0  0  0  0  0  0  0
   20.5763   76.8995   10.3043 C   0  0  0  0  0  0  0  0  0  0  0  0
   17.8741   74.3971   13.4370 C   0  0  0  0  0  0  0  0  0  0  0  0
   22.3664   78.9380   11.5958 C   0  0  0  0  0  0  0  0  0  0  0  0
   23.1035   78.8817   14.7861 C   0  0  0  0  0  0  0  0  0  0  0  0
   22.8381   78.2112   16.1411 C   0  0  0  0  0  0  0  0  0  0  0  0
   20.9774   79.7395   16.4830 C   0  0  0  0  0  0  0  0  0  0  0  0
   21.1128   80.4973   15.4319 O   0  0  0  0  0  0  0  0  0  0  0  0
   19.0378   82.8285   21.4079 Br  0  0  0  0  0  0  0  0  0  0  0  0
   19.6463   81.8567   19.8860 C   0  0  0  0  0  0  0  0  0  0  0  0
   19.5072   80.4785   19.8213 C   0  0  0  0  0  0  0  0  0  0  0  0
   19.9387   79.7595   18.7343 C   0  0  0  0  0  0  0  0  0  0  0  0
   20.5248   80.4161   17.6782 C   0  0  0  0  0  0  0  0  0  0  0  0
   20.6732   81.8045   17.7264 C   0  0  0  0  0  0  0  0  0  0  0  0
   20.2371   82.5116   18.8201 C   0  0  0  0  0  0  0  0  0  0  0  0
   23.5530   78.8747   17.2267 C   0  0  0  0  0  0  0  0  0  0  0  0
   23.1547   78.7344   18.4306 O   0  0  0  0  0  0  0  0  0  0  0  0
   24.6540   79.6562   17.0020 O   0  0  0  0  0  0  0  0  0  0  0  0
   25.9930   79.1793   17.1546 C   0  0  0  0  0  0  0  0  0  0  0  0
   24.2646   78.2970   14.1287 C   0  0  0  0  0  0  0  0  0  0  0  0
   25.0470   79.0296   13.4685 O   0  0  0  0  0  0  0  0  0  0  0  0
   24.5430   76.9497   14.2056 O   0  0  0  0  0  0  0  0  0  0  0  0
   25.4627   76.4403   15.1463 C   0  0  0  0  0  0  0  0  0  0  0  0
 20 21  1  0  0  0
 21 22  2  0  0  0
 21 26  1  0  0  0
 22 23  1  0  0  0
 23 24  2  0  0  0
 24 25  1  0  0  0
 24 18  1  0  0  0
 25 26  2  0  0  0
 18 19  2  0  0  0
 18  1  1  0  0  0
  1  2  1  0  0  0
  1 17  1  0  0  0
  2  3  1  0  0  0
  2  6  1  0  0  0
  3  4  1  0  0  0
  3 16  1  0  0  0
  4  5  1  0  0  0
  4 15  1  0  0  0
  5  6  2  0  0  0
  5 12  1  0  0  0
  6  7  1  0  0  0
  7  8  2  0  0  0
  7  9  1  0  0  0
  9 10  1  0  0  0
  9 14  1  0  0  0
 10 11  2  0  0  0
 10 12  1  0  0  0
 12 13  1  0  0  0
 16 17  1  0  0  0
 16 31  1  0  0  0
 17 27  1  0  0  0
 27 28  2  0  0  0
 27 29  1  0  0  0
 29 30  1  0  0  0
 31 32  2  0  0  0
 31 33  1  0  0  0
 33 34  1  0  0  0
M  END
> <minimizedAffinity>
-7.10117

$$$$
1372


 31 34  0  0  0  0  0  0  0  0999 V2000
   21.6593   78.2904   17.6858 C   0  0  0  0  0  0  0  0  0  0  0  0
   21.5153   77.2951   18.4253 O   0  0  0  0  0  0  0  0  0  0  0  0
   22.8051   78.4163   16.8926 N   0  0  0  0  0  0  0  0  0  0  0  0
   23.7627   77.4443   16.4858 C   0  0  0  0  0  0  0  0  0  0  0  0
   24.2459   77.9397   15.1138 C   0  0  0  0  0  0  0  0  0  0  0  0
   23.1751   78.7094   14.3806 C   0  0  0  0  0  0  0  0  0  0  0  0
   23.6453   79.1727   13.1037 N   0  0  0  0  0  0  0  0  0  0  0  0
   22.5778   79.9867   12.5057 C   0  0  0  0  0  0  0  0  0  0  0  0
   21.3787   79.1620   12.1552 C   0  0  0  0  0  0  0  0  0  0  0  0
   21.1658   78.0341   13.0901 C   0  0  0  0  0  0  0  0  0  0  0  0
   20.2116   77.0985   13.1144 N   0  0  0  0  0  0  0  0  0  0  0  0
   20.4374   76.2832   14.1639 C   0  0  0  0  0  0  0  0  0  0  0  0
   21.5387   76.7284   14.7840 N   0  0  0  0  0  0  0  0  0  0  0  0
   22.0361   77.8095   14.1653 C   0  0  0  0  0  0  0  0  0  0  0  0
   22.7596   79.9898   15.1233 C   0  0  0  0  0  0  0  0  0  0  0  0
   23.2414   79.7974   16.4973 C   0  0  0  0  0  0  0  0  0  0  0  0
   24.4499   79.8283   13.2482 H   0  0  0  0  0  0  0  0  0  0  0  0
   19.4006   76.9509   12.4740 H   0  0  0  0  0  0  0  0  0  0  0  0
   20.5684   79.3129   17.6761 C   0  0  0  0  0  0  0  0  0  0  0  0
   19.2371   78.5309   17.5281 C   0  0  0  0  0  0  0  0  0  0  0  0
   20.3037   81.4581   18.9220 C   0  0  0  0  0  0  0  0  0  0  0  0
   20.3008   82.1035   17.8665 O   0  0  0  0  0  0  0  0  0  0  0  0
   20.4094   80.0092   18.9294 N   0  0  0  0  0  0  0  0  0  0  0  0
   20.3659   79.4942   19.8067 H   0  0  0  0  0  0  0  0  0  0  0  0
   17.5169   84.9204   21.8369 Br  0  0  0  0  0  0  0  0  0  0  0  0
   18.9914   83.6908   21.6377 C   0  0  0  0  0  0  0  0  0  0  0  0
   19.1692   83.0164   20.4555 C   0  0  0  0  0  0  0  0  0  0  0  0
   20.2148   82.1025   20.2433 C   0  0  0  0  0  0  0  0  0  0  0  0
   21.0883   81.8909   21.2662 C   0  0  0  0  0  0  0  0  0  0  0  0
   20.9183   82.5676   22.4696 C   0  0  0  0  0  0  0  0  0  0  0  0
   19.8792   83.4626   22.6626 C   0  0  0  0  0  0  0  0  0  0  0  0
 25 26  1  0  0  0
 26 27  2  0  0  0
 26 31  1  0  0  0
 27 28  1  0  0  0
 28 29  2  0  0  0
 28 21  1  0  0  0
 29 30  1  0  0  0
 30 31  2  0  0  0
 21 22  2  0  0  0
 21 23  1  0  0  0
 23 19  1  0  0  0
 19 20  1  0  0  0
 19  1  1  0  0  0
  1  2  2  0  0  0
  1  3  1  0  0  0
  3  4  1  0  0  0
  3 16  1  0  0  0
  4  5  1  0  0  0
  5  6  1  0  0  0
  6  7  1  0  0  0
  6 14  1  0  0  0
  6 15  1  0  0  0
  7  8  1  0  0  0
  8  9  1  0  0  0
  9 10  1  0  0  0
 10 11  1  0  0  0
 10 14  2  0  0  0
 11 12  1  0  0  0
 12 13  2  0  0  0
 13 14  1  0  0  0
 15 16  1  0  0  0
 23 24  1  0  0  0
  7 17  1  0  0  0
 11 18  1  0  0  0
M  END
> <minimizedAffinity>
-11.18606

$$$$
1381


 31 34  0  0  0  0  0  0  0  0999 V2000
   22.1334   77.6297   15.5666 C   0  0  0  0  0  0  0  0  0  0  0  0
   23.2529   77.2448   15.8779 O   0  0  0  0  0  0  0  0  0  0  0  0
   21.3367   77.3271   14.3933 C   0  0  0  0  0  0  0  0  0  0  0  0
   20.4107   76.3226   14.4242 N   0  0  0  0  0  0  0  0  0  0  0  0
   19.6722   76.0276   13.3691 N   0  0  0  0  0  0  0  0  0  0  0  0
   19.7982   76.7027   12.2141 C   0  0  0  0  0  0  0  0  0  0  0  0
   19.0797   76.4079   11.2010 O   0  0  0  0  0  0  0  0  0  0  0  0
   20.7080   77.7272   12.1000 C   0  0  0  0  0  0  0  0  0  0  0  0
   21.4756   78.0191   13.2303 C   0  0  0  0  0  0  0  0  0  0  0  0
   22.3696   79.0496   13.0718 C   0  0  0  0  0  0  0  0  0  0  0  0
   22.4924   79.7422   11.8718 C   0  0  0  0  0  0  0  0  0  0  0  0
   21.7206   79.4277   10.7782 C   0  0  0  0  0  0  0  0  0  0  0  0
   20.8195   78.4017   10.9130 C   0  0  0  0  0  0  0  0  0  0  0  0
   18.6943   74.9602   13.4142 C   0  0  0  0  0  0  0  0  0  0  0  0
   19.3287   73.5954   13.3572 C   0  0  0  0  0  0  0  0  0  0  0  0
   20.3738   73.4547   14.2515 O   0  0  0  0  0  0  0  0  0  0  0  0
   20.3821   74.2551   14.8276 H   0  0  0  0  0  0  0  0  0  0  0  0
   21.5946   78.5015   16.5520 O   0  0  0  0  0  0  0  0  0  0  0  0
   21.4206   79.8487   16.2061 C   0  0  0  0  0  0  0  0  0  0  0  0
   18.0038   84.7112   21.9840 Br  0  0  0  0  0  0  0  0  0  0  0  0
   18.9199   83.8135   20.5495 C   0  0  0  0  0  0  0  0  0  0  0  0
   18.7682   82.4517   20.3608 C   0  0  0  0  0  0  0  0  0  0  0  0
   19.4069   81.8045   19.3550 N   0  0  0  0  0  0  0  0  0  0  0  0
   20.2046   82.4690   18.5119 C   0  0  0  0  0  0  0  0  0  0  0  0
   20.8350   81.8230   17.5173 N   0  0  0  0  0  0  0  0  0  0  0  0
   20.7010   80.5014   17.3178 C   0  0  0  0  0  0  0  0  0  0  0  0
   19.8824   79.8180   18.1820 C   0  0  0  0  0  0  0  0  0  0  0  0
   19.2161   80.4757   19.2262 C   0  0  0  0  0  0  0  0  0  0  0  0
   18.4742   79.8202   19.9994 O   0  0  0  0  0  0  0  0  0  0  0  0
   20.3671   83.8177   18.6830 C   0  0  0  0  0  0  0  0  0  0  0  0
   19.7352   84.5121   19.6938 C   0  0  0  0  0  0  0  0  0  0  0  0
 20 21  1  0  0  0
 21 22  2  0  0  0
 21 31  1  0  0  0
 22 23  1  0  0  0
 23 24  1  0  0  0
 23 28  1  0  0  0
 24 25  2  0  0  0
 24 30  1  0  0  0
 25 26  1  0  0  0
 26 27  2  0  0  0
 26 19  1  0  0  0
 27 28  1  0  0  0
 28 29  2  0  0  0
 19 18  1  0  0  0
 18  1  1  0  0  0
  1  2  2  0  0  0
  1  3  1  0  0  0
  3  4  2  0  0  0
  3  9  1  0  0  0
  4  5  1  0  0  0
  5  6  1  0  0  0
  5 14  1  0  0  0
  6  7  2  0  0  0
  6  8  1  0  0  0
  8  9  2  0  0  0
  8 13  1  0  0  0
  9 10  1  0  0  0
 10 11  2  0  0  0
 11 12  1  0  0  0
 12 13  2  0  0  0
 14 15  1  0  0  0
 15 16  1  0  0  0
 30 31  2  0  0  0
 16 17  1  0  0  0
M  END
> <minimizedAffinity>
-10.61804

$$$$
1386


 33 36  0  0  0  0  0  0  0  0999 V2000
   21.9836   77.8856   13.9492 C   0  0  0  0  0  0  0  0  0  0  0  0
   21.4412   76.7775   14.1623 O   0  0  0  0  0  0  0  0  0  0  0  0
   21.5155   78.6889   12.8446 N   0  0  0  0  0  0  0  0  0  0  0  0
   20.4428   78.1904   12.0278 C   0  0  0  0  0  0  0  0  0  0  0  0
   21.0207   77.8983   10.6584 C   0  0  0  0  0  0  0  0  0  0  0  0
   22.1296   78.8093   10.2732 C   0  0  0  0  0  0  0  0  0  0  0  0
   22.1954   80.0923   11.0173 C   0  0  0  0  0  0  0  0  0  0  0  0
   22.0569   79.9743   12.4998 C   0  0  0  0  0  0  0  0  0  0  0  0
   23.3902   78.1970   10.3553 O   0  0  0  0  0  0  0  0  0  0  0  0
   21.9437   79.1499    8.7885 C   0  0  0  0  0  0  0  0  0  0  0  0
   23.3213   77.4395   11.0161 H   0  0  0  0  0  0  0  0  0  0  0  0
   19.9303   77.8805    9.7139 N   0  0  0  0  0  0  0  0  0  0  0  0
   19.1788   78.9826    9.5239 C   0  0  0  0  0  0  0  0  0  0  0  0
   18.1290   79.0102    8.6334 C   0  0  0  0  0  0  0  0  0  0  0  0
   17.8467   77.8693    7.9183 C   0  0  0  0  0  0  0  0  0  0  0  0
   16.8877   77.8306    7.0782 O   0  0  0  0  0  0  0  0  0  0  0  0
   18.6114   76.7867    8.1285 N   0  0  0  0  0  0  0  0  0  0  0  0
   19.6233   76.7855    8.9975 C   0  0  0  0  0  0  0  0  0  0  0  0
   20.3137   75.7382    9.1580 O   0  0  0  0  0  0  0  0  0  0  0  0
   18.4275   75.8833    7.5974 H   0  0  0  0  0  0  0  0  0  0  0  0
   23.0793   78.3997   14.7783 C   0  0  0  0  0  0  0  0  0  0  0  0
   23.0710   78.0765   16.2116 C   0  0  0  0  0  0  0  0  0  0  0  0
   18.8729   83.1285   20.1633 Cl  0  0  0  0  0  0  0  0  0  0  0  0
   19.4678   81.5905   19.5181 C   0  0  0  0  0  0  0  0  0  0  0  0
   20.5157   81.5965   18.6277 C   0  0  0  0  0  0  0  0  0  0  0  0
   21.0100   80.4147   18.0996 C   0  0  0  0  0  0  0  0  0  0  0  0
   21.9950   80.1280   17.2358 N   0  0  0  0  0  0  0  0  0  0  0  0
   22.0598   78.7623   17.0560 C   0  0  0  0  0  0  0  0  0  0  0  0
   21.1020   78.2605   17.8277 N   0  0  0  0  0  0  0  0  0  0  0  0
   20.4203   79.2366   18.4952 C   0  0  0  0  0  0  0  0  0  0  0  0
   19.3686   79.2200   19.3869 C   0  0  0  0  0  0  0  0  0  0  0  0
   18.8864   80.3983   19.9038 C   0  0  0  0  0  0  0  0  0  0  0  0
   20.7783   76.8605   18.0376 C   0  0  0  0  0  0  0  0  0  0  0  0
 23 24  1  0  0  0
 24 25  2  0  0  0
 24 32  1  0  0  0
 25 26  1  0  0  0
 26 27  1  0  0  0
 26 30  2  0  0  0
 27 28  2  0  0  0
 28 29  1  0  0  0
 28 22  1  0  0  0
 29 30  1  0  0  0
 29 33  1  0  0  0
 30 31  1  0  0  0
 31 32  2  0  0  0
 22 21  1  0  0  0
 21  1  1  0  0  0
  1  2  2  0  0  0
  1  3  1  0  0  0
  3  4  1  0  0  0
  3  8  1  0  0  0
  4  5  1  0  0  0
  5  6  1  0  0  0
  5 12  1  0  0  0
  6  7  1  0  0  0
  6  9  1  0  0  0
  6 10  1  0  0  0
  7  8  1  0  0  0
 12 13  1  0  0  0
 12 18  1  0  0  0
 13 14  2  0  0  0
 14 15  1  0  0  0
 15 16  2  0  0  0
 15 17  1  0  0  0
 17 18  1  0  0  0
 18 19  2  0  0  0
  9 11  1  0  0  0
 17 20  1  0  0  0
M  END
> <minimizedAffinity>
-9.56925

$$$$
1388


 30 33  0  0  0  0  0  0  0  0999 V2000
   20.2875   77.8057   18.1734 C   0  0  0  0  0  0  0  0  0  0  0  0
   19.9676   77.0303   19.1078 O   0  0  0  0  0  0  0  0  0  0  0  0
   19.8212   79.1294   18.1887 N   0  0  0  0  0  0  0  0  0  0  0  0
   20.1458   80.0771   17.1517 C   0  0  0  0  0  0  0  0  0  0  0  0
   20.9685   81.1702   17.7983 C   0  0  0  0  0  0  0  0  0  0  0  0
   20.2604   81.6782   19.0316 C   0  0  0  0  0  0  0  0  0  0  0  0
   21.0997   81.3969   20.1770 N   0  0  0  0  0  0  0  0  0  0  0  0
   20.6297   81.9274   21.4087 C   0  0  0  0  0  0  0  0  0  0  0  0
   20.0235   83.2823   21.3754 C   0  0  0  0  0  0  0  0  0  0  0  0
   20.0801   83.9517   20.0589 C   0  0  0  0  0  0  0  0  0  0  0  0
   20.0401   85.2688   19.6900 N   0  0  0  0  0  0  0  0  0  0  0  0
   20.1256   85.2952   18.3545 C   0  0  0  0  0  0  0  0  0  0  0  0
   20.2176   84.0375   17.8926 N   0  0  0  0  0  0  0  0  0  0  0  0
   20.1918   83.1672   18.9332 C   0  0  0  0  0  0  0  0  0  0  0  0
   18.8890   81.1184   19.2314 C   0  0  0  0  0  0  0  0  0  0  0  0
   18.9844   79.5899   19.2666 C   0  0  0  0  0  0  0  0  0  0  0  0
   21.1762   80.3508   20.2798 H   0  0  0  0  0  0  0  0  0  0  0  0
   19.9556   86.0783   20.3718 H   0  0  0  0  0  0  0  0  0  0  0  0
   21.1541   77.2481   17.1016 C   0  0  0  0  0  0  0  0  0  0  0  0
   20.8285   76.4085   14.7676 C   0  0  0  0  0  0  0  0  0  0  0  0
   21.9372   76.9242   14.4730 O   0  0  0  0  0  0  0  0  0  0  0  0
   20.3803   76.5449   16.1011 N   0  0  0  0  0  0  0  0  0  0  0  0
   19.4672   76.1274   16.3684 H   0  0  0  0  0  0  0  0  0  0  0  0
   18.3665   71.9674   13.1580 Br  0  0  0  0  0  0  0  0  0  0  0  0
   18.9181   73.7587   12.8870 C   0  0  0  0  0  0  0  0  0  0  0  0
   19.6385   74.4005   13.8782 C   0  0  0  0  0  0  0  0  0  0  0  0
   20.0695   75.7069   13.7424 C   0  0  0  0  0  0  0  0  0  0  0  0
   19.7586   76.3727   12.5654 C   0  0  0  0  0  0  0  0  0  0  0  0
   19.0422   75.7288   11.5844 C   0  0  0  0  0  0  0  0  0  0  0  0
   18.6048   74.4283   11.7031 C   0  0  0  0  0  0  0  0  0  0  0  0
 24 25  1  0  0  0
 25 26  2  0  0  0
 25 30  1  0  0  0
 26 27  1  0  0  0
 27 28  2  0  0  0
 27 20  1  0  0  0
 28 29  1  0  0  0
 29 30  2  0  0  0
 20 21  2  0  0  0
 20 22  1  0  0  0
 22 19  1  0  0  0
 19  1  1  0  0  0
  1  2  2  0  0  0
  1  3  1  0  0  0
  3  4  1  0  0  0
  3 16  1  0  0  0
  4  5  1  0  0  0
  5  6  1  0  0  0
  6  7  1  0  0  0
  6 14  1  0  0  0
  6 15  1  0  0  0
  7  8  1  0  0  0
  8  9  1  0  0  0
  9 10  1  0  0  0
 10 11  1  0  0  0
 10 14  2  0  0  0
 11 12  1  0  0  0
 12 13  2  0  0  0
 13 14  1  0  0  0
 15 16  1  0  0  0
 22 23  1  0  0  0
  7 17  1  0  0  0
 11 18  1  0  0  0
M  END
> <minimizedAffinity>
-10.39273

$$$$
1404


 26 29  0  0  0  0  0  0  0  0999 V2000
   21.5752   80.9416    9.4716 Br  0  0  0  0  0  0  0  0  0  0  0  0
   21.4295   79.7163   10.9264 C   0  0  0  0  0  0  0  0  0  0  0  0
   22.3632   79.6991   11.9452 C   0  0  0  0  0  0  0  0  0  0  0  0
   22.3016   78.8337   13.0168 C   0  0  0  0  0  0  0  0  0  0  0  0
   21.2183   77.9501   13.0241 C   0  0  0  0  0  0  0  0  0  0  0  0
   20.2906   77.9673   12.0117 C   0  0  0  0  0  0  0  0  0  0  0  0
   20.3653   78.8395   10.9455 C   0  0  0  0  0  0  0  0  0  0  0  0
   19.3294   78.8139    9.8739 C   0  0  0  0  0  0  0  0  0  0  0  0
   21.1886   77.0964   14.1180 O   0  0  0  0  0  0  0  0  0  0  0  0
   22.2509   76.9401   15.0398 C   0  0  0  0  0  0  0  0  0  0  0  0
   22.8563   78.3335   15.4157 C   0  0  0  0  0  0  0  0  0  0  0  0
   23.2963   78.8043   14.0799 C   0  0  0  0  0  0  0  0  0  0  0  0
   24.4357   79.1810   13.7539 O   0  0  0  0  0  0  0  0  0  0  0  0
   23.7993   78.2736   16.3942 N   0  0  0  0  0  0  0  0  0  0  0  0
   24.3957   79.3949   16.9837 C   0  0  0  0  0  0  0  0  0  0  0  0
   25.7719   79.6207   16.3952 C   0  0  0  0  0  0  0  0  0  0  0  0
   26.5473   78.5132   16.8132 O   0  0  0  0  0  0  0  0  0  0  0  0
   26.0620   77.4431   16.0414 C   0  0  0  0  0  0  0  0  0  0  0  0
   24.6273   77.1540   16.4894 C   0  0  0  0  0  0  0  0  0  0  0  0
   21.6644   79.1061   15.8556 C   0  0  0  0  0  0  0  0  0  0  0  0
   21.3788   79.1796   17.2544 N   0  0  0  0  0  0  0  0  0  0  0  0
   20.9443   80.4128   17.7920 C   0  0  0  0  0  0  0  0  0  0  0  0
   19.4738   80.6713   17.4312 C   0  0  0  0  0  0  0  0  0  0  0  0
   18.7451   79.6867   18.1066 O   0  0  0  0  0  0  0  0  0  0  0  0
   19.0339   78.4689   17.4797 C   0  0  0  0  0  0  0  0  0  0  0  0
   20.4756   78.0830   17.6077 C   0  0  0  0  0  0  0  0  0  0  0  0
  1  2  1  0  0  0
  2  3  2  0  0  0
  2  7  1  0  0  0
  3  4  1  0  0  0
  4  5  2  0  0  0
  4 12  1  0  0  0
  5  6  1  0  0  0
  5  9  1  0  0  0
  6  7  2  0  0  0
  7  8  1  0  0  0
  9 10  1  0  0  0
 10 11  1  0  0  0
 11 12  1  0  0  0
 11 14  1  0  0  0
 11 20  1  0  0  0
 12 13  2  0  0  0
 14 15  1  0  0  0
 14 19  1  0  0  0
 15 16  1  0  0  0
 16 17  1  0  0  0
 17 18  1  0  0  0
 18 19  1  0  0  0
 20 21  1  0  0  0
 21 22  1  0  0  0
 21 26  1  0  0  0
 22 23  1  0  0  0
 23 24  1  0  0  0
 24 25  1  0  0  0
 25 26  1  0  0  0
M  END
> <minimizedAffinity>
-7.90179

$$$$
1405


 27 30  0  0  0  0  0  0  0  0999 V2000
   18.8940   80.8522   18.3582 Br  0  0  0  0  0  0  0  0  0  0  0  0
   20.3855   79.8706   17.6329 C   0  0  0  0  0  0  0  0  0  0  0  0
   20.4927   79.6409   16.2866 C   0  0  0  0  0  0  0  0  0  0  0  0
   21.5696   78.9366   15.7906 C   0  0  0  0  0  0  0  0  0  0  0  0
   22.5031   78.4889   16.6857 C   0  0  0  0  0  0  0  0  0  0  0  0
   22.3915   78.7265   18.0706 C   0  0  0  0  0  0  0  0  0  0  0  0
   21.3156   79.4280   18.5457 C   0  0  0  0  0  0  0  0  0  0  0  0
   23.5491   77.7826   16.0254 N   0  0  0  0  0  0  0  0  0  0  0  0
   23.2682   77.7810   14.6533 C   0  0  0  0  0  0  0  0  0  0  0  0
   23.9894   77.2395   13.7606 O   0  0  0  0  0  0  0  0  0  0  0  0
   21.9786   78.5235   14.4256 C   0  0  0  0  0  0  0  0  0  0  0  0
   22.3138   79.6504   13.5627 C   0  0  0  0  0  0  0  0  0  0  0  0
   21.7908   79.7616   12.3120 C   0  0  0  0  0  0  0  0  0  0  0  0
   22.2979   80.9120   11.7783 N   0  0  0  0  0  0  0  0  0  0  0  0
   23.0997   81.4992   12.6416 N   0  0  0  0  0  0  0  0  0  0  0  0
   23.1404   80.7621   13.7493 C   0  0  0  0  0  0  0  0  0  0  0  0
   23.9018   80.9981   15.0157 C   0  0  0  0  0  0  0  0  0  0  0  0
   20.9077   78.8196   11.7734 O   0  0  0  0  0  0  0  0  0  0  0  0
   20.5909   77.7459   12.5992 C   0  0  0  0  0  0  0  0  0  0  0  0
   21.0611   77.5841   13.8084 C   0  0  0  0  0  0  0  0  0  0  0  0
   19.6763   76.7329   12.0932 N   0  0  0  0  0  0  0  0  0  0  0  0
   24.7211   77.1598   16.6592 C   0  0  0  0  0  0  0  0  0  0  0  0
   23.6402   82.3955   12.5289 H   0  0  0  0  0  0  0  0  0  0  0  0
   20.1330   75.9562   11.5748 H   0  0  0  0  0  0  0  0  0  0  0  0
   18.6679   76.7690   12.2274 H   0  0  0  0  0  0  0  0  0  0  0  0
   20.6157   76.3856   14.5405 C   0  0  0  0  0  0  0  0  0  0  0  0
   20.2416   75.4375   15.1107 N   0  0  0  0  0  0  0  0  0  0  0  0
  1  2  1  0  0  0
  2  3  2  0  0  0
  2  7  1  0  0  0
  3  4  1  0  0  0
  4  5  2  0  0  0
  4 11  1  0  0  0
  5  6  1  0  0  0
  5  8  1  0  0  0
  6  7  2  0  0  0
  8  9  1  0  0  0
  8 22  1  0  0  0
  9 10  2  0  0  0
  9 11  1  0  0  0
 11 12  1  0  0  0
 11 20  1  0  0  0
 12 13  1  0  0  0
 12 16  2  0  0  0
 13 14  2  0  0  0
 13 18  1  0  0  0
 14 15  1  0  0  0
 15 16  1  0  0  0
 16 17  1  0  0  0
 18 19  1  0  0  0
 19 20  2  0  0  0
 19 21  1  0  0  0
 20 26  1  0  0  0
 26 27  3  0  0  0
 15 23  1  0  0  0
 21 24  1  0  0  0
 21 25  1  0  0  0
M  END
> <minimizedAffinity>
-6.42472

$$$$
1413


 24 27  0  0  0  0  0  0  0  0999 V2000
   20.1178   79.4996   19.4586 C   0  0  0  0  0  0  0  0  0  0  0  0
   19.1555   83.5342   22.7472 Br  0  0  0  0  0  0  0  0  0  0  0  0
   19.5764   82.8372   21.0372 C   0  0  0  0  0  0  0  0  0  0  0  0
   19.7587   83.6972   20.0084 C   0  0  0  0  0  0  0  0  0  0  0  0
   19.6981   85.0418   19.9443 N   0  0  0  0  0  0  0  0  0  0  0  0
   19.9662   85.3266   18.6734 N   0  0  0  0  0  0  0  0  0  0  0  0
   20.1860   84.2563   17.9617 N   0  0  0  0  0  0  0  0  0  0  0  0
   20.0653   83.1730   18.7727 C   0  0  0  0  0  0  0  0  0  0  0  0
   20.1838   81.7997   18.5869 C   0  0  0  0  0  0  0  0  0  0  0  0
   20.0035   80.9413   19.6047 N   0  0  0  0  0  0  0  0  0  0  0  0
   19.7035   81.4672   20.8121 C   0  0  0  0  0  0  0  0  0  0  0  0
   19.4235   86.0181   20.9294 C   0  0  0  0  0  0  0  0  0  0  0  0
   20.0994   79.0330   18.0755 C   0  0  0  0  0  0  0  0  0  0  0  0
   18.9570   78.9205   17.5352 O   0  0  0  0  0  0  0  0  0  0  0  0
   21.2614   78.6863   17.2630 C   0  0  0  0  0  0  0  0  0  0  0  0
   22.5005   79.0915   17.6726 C   0  0  0  0  0  0  0  0  0  0  0  0
   23.6088   78.7859   16.9266 C   0  0  0  0  0  0  0  0  0  0  0  0
   23.5240   78.0672   15.7481 C   0  0  0  0  0  0  0  0  0  0  0  0
   22.2470   77.6704   15.3585 C   0  0  0  0  0  0  0  0  0  0  0  0
   21.1383   77.9726   16.1002 C   0  0  0  0  0  0  0  0  0  0  0  0
   24.6248   77.7471   14.9808 C   0  0  0  0  0  0  0  0  0  0  0  0
   25.8578   78.1726   15.4262 C   0  0  0  0  0  0  0  0  0  0  0  0
   25.9549   78.8902   16.6003 C   0  0  0  0  0  0  0  0  0  0  0  0
   24.8532   79.2057   17.3615 C   0  0  0  0  0  0  0  0  0  0  0  0
  2  3  1  0  0  0
  3  4  2  0  0  0
  3 11  1  0  0  0
  4  5  1  0  0  0
  4  8  1  0  0  0
  5  6  1  0  0  0
  5 12  1  0  0  0
  6  7  2  0  0  0
  7  8  1  0  0  0
  8  9  2  0  0  0
  9 10  1  0  0  0
 10 11  2  0  0  0
 10  1  1  0  0  0
  1 13  1  0  0  0
 13 14  2  0  0  0
 13 15  1  0  0  0
 15 16  2  0  0  0
 15 20  1  0  0  0
 16 17  1  0  0  0
 17 18  2  0  0  0
 17 24  1  0  0  0
 18 19  1  0  0  0
 18 21  1  0  0  0
 19 20  2  0  0  0
 21 22  2  0  0  0
 22 23  1  0  0  0
 23 24  2  0  0  0
M  END
> <minimizedAffinity>
-10.06558

$$$$
1415


 32 35  0  0  0  0  0  0  0  0999 V2000
   21.0196   77.8513   10.8021 Br  0  0  0  0  0  0  0  0  0  0  0  0
   20.2206   76.9385   12.2858 C   0  0  0  0  0  0  0  0  0  0  0  0
   20.4280   77.3989   13.5643 C   0  0  0  0  0  0  0  0  0  0  0  0
   19.8610   76.7594   14.6793 C   0  0  0  0  0  0  0  0  0  0  0  0
   19.0876   75.6485   14.4224 C   0  0  0  0  0  0  0  0  0  0  0  0
   18.8645   75.1656   13.1509 C   0  0  0  0  0  0  0  0  0  0  0  0
   19.4303   75.8098   12.0744 C   0  0  0  0  0  0  0  0  0  0  0  0
   19.2488   75.3677   10.6676 C   0  0  0  0  0  0  0  0  0  0  0  0
   17.7879   73.6244   12.8255 Br  0  0  0  0  0  0  0  0  0  0  0  0
   20.1082   77.2770   16.0090 C   0  0  0  0  0  0  0  0  0  0  0  0
   19.5315   76.7851   16.9849 O   0  0  0  0  0  0  0  0  0  0  0  0
   21.0523   78.3942   16.1881 C   0  0  0  0  0  0  0  0  0  0  0  0
   20.9479   79.2688   14.9580 C   0  0  0  0  0  0  0  0  0  0  0  0
   21.2152   78.5252   13.7833 O   0  0  0  0  0  0  0  0  0  0  0  0
   20.8260   79.1787   17.4448 C   0  0  0  0  0  0  0  0  0  0  0  0
   19.6688   79.9874   17.4718 N   0  0  0  0  0  0  0  0  0  0  0  0
   18.7833   79.5414   18.5065 C   0  0  0  0  0  0  0  0  0  0  0  0
   19.2416   79.8139   19.8943 C   0  0  0  0  0  0  0  0  0  0  0  0
   20.4249   80.6890   20.0456 C   0  0  0  0  0  0  0  0  0  0  0  0
   20.7234   81.6043   18.9231 C   0  0  0  0  0  0  0  0  0  0  0  0
   19.8914   81.3896   17.6932 C   0  0  0  0  0  0  0  0  0  0  0  0
   19.5748   78.4662   20.5450 C   0  0  0  0  0  0  0  0  0  0  0  0
   19.1492   79.9023   16.5617 H   0  0  0  0  0  0  0  0  0  0  0  0
   22.4339   77.7734   16.2065 C   0  0  0  0  0  0  0  0  0  0  0  0
   23.3871   78.3837   15.3439 N   0  0  0  0  0  0  0  0  0  0  0  0
   24.2217   77.3650   14.7096 C   0  0  0  0  0  0  0  0  0  0  0  0
   25.5657   77.2315   15.3636 C   0  0  0  0  0  0  0  0  0  0  0  0
   25.4070   77.2986   16.8657 C   0  0  0  0  0  0  0  0  0  0  0  0
   24.9592   78.6835   17.2166 C   0  0  0  0  0  0  0  0  0  0  0  0
   24.2927   79.2951   16.0092 C   0  0  0  0  0  0  0  0  0  0  0  0
   26.0796   75.8204   15.0475 C   0  0  0  0  0  0  0  0  0  0  0  0
   22.9191   78.8872   14.5856 H   0  0  0  0  0  0  0  0  0  0  0  0
  1  2  1  0  0  0
  2  3  2  0  0  0
  2  7  1  0  0  0
  3  4  1  0  0  0
  3 14  1  0  0  0
  4  5  2  0  0  0
  4 10  1  0  0  0
  5  6  1  0  0  0
  6  7  2  0  0  0
  6  9  1  0  0  0
  7  8  1  0  0  0
 10 11  2  0  0  0
 10 12  1  0  0  0
 12 13  1  0  0  0
 12 15  1  0  0  0
 12 24  1  0  0  0
 13 14  1  0  0  0
 15 16  1  0  0  0
 16 17  1  0  0  0
 16 21  1  0  0  0
 17 18  1  0  0  0
 18 19  1  0  0  0
 18 22  1  0  0  0
 19 20  1  0  0  0
 20 21  1  0  0  0
 24 25  1  0  0  0
 25 26  1  0  0  0
 25 30  1  0  0  0
 26 27  1  0  0  0
 27 28  1  0  0  0
 27 31  1  0  0  0
 28 29  1  0  0  0
 29 30  1  0  0  0
 16 23  1  0  0  0
 25 32  1  0  0  0
M  CHG 1  16   1
M  CHG 1  25   1
M  END
> <minimizedAffinity>
-8.58141

$$$$
1428


 37 40  0  0  0  0  0  0  0  0999 V2000
   18.7693   74.1655    6.1975 Cl  0  0  0  0  0  0  0  0  0  0  0  0
   18.4814   75.7316    6.9492 C   0  0  0  0  0  0  0  0  0  0  0  0
   19.2413   76.1875    7.9931 C   0  0  0  0  0  0  0  0  0  0  0  0
   18.9733   77.4198    8.5448 C   0  0  0  0  0  0  0  0  0  0  0  0
   17.9418   78.1547    8.0216 C   0  0  0  0  0  0  0  0  0  0  0  0
   17.1681   77.6868    6.9557 C   0  0  0  0  0  0  0  0  0  0  0  0
   17.4426   76.4640    6.4174 C   0  0  0  0  0  0  0  0  0  0  0  0
   17.7855   79.4089    8.6752 N   0  0  0  0  0  0  0  0  0  0  0  0
   18.7774   79.4596    9.6630 C   0  0  0  0  0  0  0  0  0  0  0  0
   18.9174   80.4726   10.4245 O   0  0  0  0  0  0  0  0  0  0  0  0
   19.5598   78.2157    9.6490 C   0  0  0  0  0  0  0  0  0  0  0  0
   20.9314   78.5615    9.4015 N   0  0  0  0  0  0  0  0  0  0  0  0
   21.6965   78.2988   10.5802 C   0  0  0  0  0  0  0  0  0  0  0  0
   20.7299   78.0694   11.6974 C   0  0  0  0  0  0  0  0  0  0  0  0
   19.5117   77.5752   10.9682 C   0  0  0  0  0  0  0  0  0  0  0  0
   17.0702   80.1544    8.4637 H   0  0  0  0  0  0  0  0  0  0  0  0
   21.2911   78.0886    8.5456 H   0  0  0  0  0  0  0  0  0  0  0  0
   19.3953   76.0943   10.9795 C   0  0  0  0  0  0  0  0  0  0  0  0
   19.9115   75.4947   10.0057 O   0  0  0  0  0  0  0  0  0  0  0  0
   18.7564   75.3715   11.9936 N   0  0  0  0  0  0  0  0  0  0  0  0
   18.3621   75.9742   12.7797 H   0  0  0  0  0  0  0  0  0  0  0  0
   18.5816   73.9918   12.1102 C   0  0  0  0  0  0  0  0  0  0  0  0
   19.2893   73.2982   13.0814 C   0  0  0  0  0  0  0  0  0  0  0  0
   19.1642   71.9348   13.2543 C   0  0  0  0  0  0  0  0  0  0  0  0
   18.3240   71.1929   12.4625 C   0  0  0  0  0  0  0  0  0  0  0  0
   17.6146   71.8477   11.4975 C   0  0  0  0  0  0  0  0  0  0  0  0
   17.7497   73.2244   11.3343 C   0  0  0  0  0  0  0  0  0  0  0  0
   20.1571   73.9764   13.9191 O   0  0  0  0  0  0  0  0  0  0  0  0
   19.8551   75.1840   14.5481 C   0  0  0  0  0  0  0  0  0  0  0  0
   16.7559   71.1366   10.6791 O   0  0  0  0  0  0  0  0  0  0  0  0
   15.9522   70.0719   11.1542 C   0  0  0  0  0  0  0  0  0  0  0  0
   22.6662   79.4283   10.8869 C   0  0  0  0  0  0  0  0  0  0  0  0
   22.4650   80.5831   10.0001 C   0  0  0  0  0  0  0  0  0  0  0  0
   23.1421   80.7062    8.9673 O   0  0  0  0  0  0  0  0  0  0  0  0
   21.4992   81.5535   10.3253 N   0  0  0  0  0  0  0  0  0  0  0  0
   20.8394   81.8613    9.5793 H   0  0  0  0  0  0  0  0  0  0  0  0
   21.3946   81.9929   11.2721 H   0  0  0  0  0  0  0  0  0  0  0  0
  1  2  1  0  0  0
  2  3  2  0  0  0
  2  7  1  0  0  0
  3  4  1  0  0  0
  4  5  2  0  0  0
  4 11  1  0  0  0
  5  6  1  0  0  0
  5  8  1  0  0  0
  6  7  2  0  0  0
  8  9  1  0  0  0
  9 10  2  0  0  0
  9 11  1  0  0  0
 11 12  1  0  0  0
 11 15  1  0  0  0
 12 13  1  0  0  0
 13 14  1  0  0  0
 13 32  1  0  0  0
 14 15  1  0  0  0
 15 18  1  0  0  0
 18 19  2  0  0  0
 18 20  1  0  0  0
 20 22  1  0  0  0
 22 23  2  0  0  0
 22 27  1  0  0  0
 23 24  1  0  0  0
 23 28  1  0  0  0
 24 25  2  0  0  0
 25 26  1  0  0  0
 26 27  2  0  0  0
 26 30  1  0  0  0
 30 31  1  0  0  0
 28 29  1  0  0  0
 32 33  1  0  0  0
 33 34  2  0  0  0
 33 35  1  0  0  0
  8 16  1  0  0  0
 12 17  1  0  0  0
 20 21  1  0  0  0
 35 36  1  0  0  0
 35 37  1  0  0  0
M  END
> <minimizedAffinity>
-9.41831

$$$$
1432


 21 24  0  0  0  0  0  0  0  0999 V2000
   20.7090   79.3231   16.6148 C   0  0  0  0  0  0  0  0  0  0  0  0
   20.0258   78.8686   17.6783 N   0  0  0  0  0  0  0  0  0  0  0  0
   19.7293   79.8768   18.5154 N   0  0  0  0  0  0  0  0  0  0  0  0
   20.2337   80.9994   17.9729 C   0  0  0  0  0  0  0  0  0  0  0  0
   20.8283   80.6529   16.8160 N   0  0  0  0  0  0  0  0  0  0  0  0
   20.0517   82.1835   18.6612 C   0  0  0  0  0  0  0  0  0  0  0  0
   19.3782   82.2382   19.8669 C   0  0  0  0  0  0  0  0  0  0  0  0
   19.3428   83.5079   20.3254 N   0  0  0  0  0  0  0  0  0  0  0  0
   19.9791   84.2344   19.4261 N   0  0  0  0  0  0  0  0  0  0  0  0
   20.4260   83.4817   18.4045 C   0  0  0  0  0  0  0  0  0  0  0  0
   18.7168   83.9544   21.5681 C   0  0  0  0  0  0  0  0  0  0  0  0
   18.9007   81.0779   20.3491 N   0  0  0  0  0  0  0  0  0  0  0  0
   19.0714   79.9206   19.6892 C   0  0  0  0  0  0  0  0  0  0  0  0
   21.2341   78.5576   15.4507 C   0  0  0  0  0  0  0  0  0  0  0  0
   26.5232   79.0450   16.6337 Br  0  0  0  0  0  0  0  0  0  0  0  0
   24.8191   78.4144   16.0590 C   0  0  0  0  0  0  0  0  0  0  0  0
   23.5963   79.0796   16.1040 C   0  0  0  0  0  0  0  0  0  0  0  0
   22.6510   78.2648   15.5943 N   0  0  0  0  0  0  0  0  0  0  0  0
   23.2407   77.1235   15.2375 N   0  0  0  0  0  0  0  0  0  0  0  0
   24.5599   77.1787   15.5053 C   0  0  0  0  0  0  0  0  0  0  0  0
   25.5996   76.1475   15.2771 C   0  0  0  0  0  0  0  0  0  0  0  0
 15 16  1  0  0  0
 16 17  2  0  0  0
 16 20  1  0  0  0
 17 18  1  0  0  0
 18 19  1  0  0  0
 18 14  1  0  0  0
 19 20  2  0  0  0
 20 21  1  0  0  0
 14  1  1  0  0  0
  1  2  2  0  0  0
  1  5  1  0  0  0
  2  3  1  0  0  0
  3  4  1  0  0  0
  3 13  1  0  0  0
  4  5  2  0  0  0
  4  6  1  0  0  0
  6  7  2  0  0  0
  6 10  1  0  0  0
  7  8  1  0  0  0
  7 12  1  0  0  0
  8  9  1  0  0  0
  8 11  1  0  0  0
  9 10  2  0  0  0
 12 13  2  0  0  0
M  END
> <minimizedAffinity>
-8.92392

$$$$
1433


 28 31  0  0  0  0  0  0  0  0999 V2000
   20.6818   80.8785   10.3046 Br  0  0  0  0  0  0  0  0  0  0  0  0
   20.5783   79.2626   11.2916 C   0  0  0  0  0  0  0  0  0  0  0  0
   21.1445   79.1936   12.5686 C   0  0  0  0  0  0  0  0  0  0  0  0
   21.0781   78.0439   13.3167 C   0  0  0  0  0  0  0  0  0  0  0  0
   20.4358   76.9617   12.7642 C   0  0  0  0  0  0  0  0  0  0  0  0
   19.8633   77.0026   11.4940 C   0  0  0  0  0  0  0  0  0  0  0  0
   19.9359   78.1809   10.7453 C   0  0  0  0  0  0  0  0  0  0  0  0
   19.3232   78.2383    9.3894 C   0  0  0  0  0  0  0  0  0  0  0  0
   19.1976   75.7977   10.9316 C   0  0  0  0  0  0  0  0  0  0  0  0
   21.6181   77.8931   14.6986 C   0  0  0  0  0  0  0  0  0  0  0  0
   22.4614   79.0397   15.1653 C   0  0  0  0  0  0  0  0  0  0  0  0
   22.9526   79.8099   13.9534 C   0  0  0  0  0  0  0  0  0  0  0  0
   21.8121   80.2507   13.1716 O   0  0  0  0  0  0  0  0  0  0  0  0
   22.3814   76.6846   14.7160 O   0  0  0  0  0  0  0  0  0  0  0  0
   21.7326   75.9389   14.7444 H   0  0  0  0  0  0  0  0  0  0  0  0
   23.6157   78.4573   15.8156 N   0  0  0  0  0  0  0  0  0  0  0  0
   24.1595   79.2686   16.8529 C   0  0  0  0  0  0  0  0  0  0  0  0
   25.5552   78.9195   17.2845 C   0  0  0  0  0  0  0  0  0  0  0  0
   26.3935   78.5142   16.2813 O   0  0  0  0  0  0  0  0  0  0  0  0
   25.8086   77.4068   15.6532 C   0  0  0  0  0  0  0  0  0  0  0  0
   24.6095   78.0173   14.8814 C   0  0  0  0  0  0  0  0  0  0  0  0
   21.7769   80.0544   15.9996 C   0  0  0  0  0  0  0  0  0  0  0  0
   20.4369   79.9875   16.3638 N   0  0  0  0  0  0  0  0  0  0  0  0
   20.2107   78.7697   17.2154 C   0  0  0  0  0  0  0  0  0  0  0  0
   21.1126   78.7634   18.3938 C   0  0  0  0  0  0  0  0  0  0  0  0
   21.4410   80.0009   18.8784 O   0  0  0  0  0  0  0  0  0  0  0  0
   20.5564   81.0042   18.6094 C   0  0  0  0  0  0  0  0  0  0  0  0
   19.9007   80.9894   17.2664 C   0  0  0  0  0  0  0  0  0  0  0  0
  1  2  1  0  0  0
  2  3  2  0  0  0
  2  7  1  0  0  0
  3  4  1  0  0  0
  3 13  1  0  0  0
  4  5  2  0  0  0
  4 10  1  0  0  0
  5  6  1  0  0  0
  6  7  2  0  0  0
  6  9  1  0  0  0
  7  8  1  0  0  0
 10 11  1  0  0  0
 10 14  1  0  0  0
 11 12  1  0  0  0
 11 16  1  0  0  0
 11 22  1  0  0  0
 12 13  1  0  0  0
 16 17  1  0  0  0
 16 21  1  0  0  0
 17 18  1  0  0  0
 18 19  1  0  0  0
 19 20  1  0  0  0
 20 21  1  0  0  0
 22 23  1  0  0  0
 23 24  1  0  0  0
 23 28  1  0  0  0
 24 25  1  0  0  0
 25 26  1  0  0  0
 26 27  1  0  0  0
 27 28  1  0  0  0
 14 15  1  0  0  0
M  END
> <minimizedAffinity>
-8.32679

$$$$
1434


 28 31  0  0  0  0  0  0  0  0999 V2000
   22.1911   79.0127   12.5653 C   0  0  0  0  0  0  0  0  0  0  0  0
   21.4997   79.8287   13.3533 O   0  0  0  0  0  0  0  0  0  0  0  0
   22.2317   79.3999   11.2352 N   0  0  0  0  0  0  0  0  0  0  0  0
   22.8773   78.7485   10.1518 C   0  0  0  0  0  0  0  0  0  0  0  0
   21.8341   78.1163    9.2295 C   0  0  0  0  0  0  0  0  0  0  0  0
   20.5731   78.9639    9.2313 C   0  0  0  0  0  0  0  0  0  0  0  0
   20.0355   78.8680    7.8847 N   0  0  0  0  0  0  0  0  0  0  0  0
   19.1558   77.7246    7.8797 C   0  0  0  0  0  0  0  0  0  0  0  0
   18.7476   77.1120    6.8619 O   0  0  0  0  0  0  0  0  0  0  0  0
   18.8407   77.4246    9.2526 N   0  0  0  0  0  0  0  0  0  0  0  0
   19.5163   78.3680   10.0750 C   0  0  0  0  0  0  0  0  0  0  0  0
   19.2385   78.6138   11.2719 O   0  0  0  0  0  0  0  0  0  0  0  0
   20.8453   80.4042    9.5309 C   0  0  0  0  0  0  0  0  0  0  0  0
   21.5178   80.6399   10.8441 C   0  0  0  0  0  0  0  0  0  0  0  0
   20.2356   79.4921    7.0756 H   0  0  0  0  0  0  0  0  0  0  0  0
   18.2317   76.6597    9.5756 H   0  0  0  0  0  0  0  0  0  0  0  0
   22.7424   77.8933   13.3026 C   0  0  0  0  0  0  0  0  0  0  0  0
   21.2774   77.4814   18.5170 Br  0  0  0  0  0  0  0  0  0  0  0  0
   22.1973   77.7702   16.8664 C   0  0  0  0  0  0  0  0  0  0  0  0
   23.4861   78.2375   16.7987 C   0  0  0  0  0  0  0  0  0  0  0  0
   23.8087   78.3187   15.4688 C   0  0  0  0  0  0  0  0  0  0  0  0
   22.7392   77.9092   14.7237 N   0  0  0  0  0  0  0  0  0  0  0  0
   21.7527   77.5746   15.5886 C   0  0  0  0  0  0  0  0  0  0  0  0
   20.4127   77.0797   15.1997 C   0  0  0  0  0  0  0  0  0  0  0  0
   25.0764   78.7683   15.0984 C   0  0  0  0  0  0  0  0  0  0  0  0
   26.0072   79.1319   16.0630 C   0  0  0  0  0  0  0  0  0  0  0  0
   25.6663   79.0441   17.3840 C   0  0  0  0  0  0  0  0  0  0  0  0
   24.4183   78.6019   17.7582 C   0  0  0  0  0  0  0  0  0  0  0  0
 18 19  1  0  0  0
 19 20  1  0  0  0
 19 23  2  0  0  0
 20 21  2  0  0  0
 20 28  1  0  0  0
 21 22  1  0  0  0
 21 25  1  0  0  0
 22 23  1  0  0  0
 22 17  1  0  0  0
 23 24  1  0  0  0
 17  1  1  0  0  0
  1  2  2  0  0  0
  1  3  1  0  0  0
  3  4  1  0  0  0
  3 14  1  0  0  0
  4  5  1  0  0  0
  5  6  1  0  0  0
  6  7  1  0  0  0
  6 11  1  0  0  0
  6 13  1  0  0  0
  7  8  1  0  0  0
  8  9  2  0  0  0
  8 10  1  0  0  0
 10 11  1  0  0  0
 11 12  2  0  0  0
 13 14  1  0  0  0
 25 26  2  0  0  0
 26 27  1  0  0  0
 27 28  2  0  0  0
  7 15  1  0  0  0
 10 16  1  0  0  0
M  END
> <minimizedAffinity>
-9.39855

$$$$
1435


 32 35  0  0  0  0  0  0  0  0999 V2000
   21.2998   77.3541   13.9722 C   0  0  0  0  0  0  0  0  0  0  0  0
   22.0264   77.5074   15.3015 C   0  0  0  0  0  0  0  0  0  0  0  0
   23.1695   80.4842   14.3093 Br  0  0  0  0  0  0  0  0  0  0  0  0
   21.9849   79.9962   15.7253 C   0  0  0  0  0  0  0  0  0  0  0  0
   21.6272   78.7147   15.9842 N   0  0  0  0  0  0  0  0  0  0  0  0
   20.7938   78.7962   17.0453 C   0  0  0  0  0  0  0  0  0  0  0  0
   20.6310   80.1061   17.4452 C   0  0  0  0  0  0  0  0  0  0  0  0
   21.3933   80.8343   16.5957 N   0  0  0  0  0  0  0  0  0  0  0  0
   19.8444   80.4577   18.4876 N   0  0  0  0  0  0  0  0  0  0  0  0
   19.2031   79.4767   19.1475 C   0  0  0  0  0  0  0  0  0  0  0  0
   18.4534   79.7275   20.1281 O   0  0  0  0  0  0  0  0  0  0  0  0
   19.3386   78.1725   18.7817 N   0  0  0  0  0  0  0  0  0  0  0  0
   20.1161   77.8149   17.7491 C   0  0  0  0  0  0  0  0  0  0  0  0
   20.2734   76.6314   17.3746 O   0  0  0  0  0  0  0  0  0  0  0  0
   19.6858   81.8411   18.8951 C   0  0  0  0  0  0  0  0  0  0  0  0
   18.8228   77.4370   19.3195 H   0  0  0  0  0  0  0  0  0  0  0  0
   20.6288   76.0097   13.8743 C   0  0  0  0  0  0  0  0  0  0  0  0
   19.2073   76.0497   13.3986 C   0  0  0  0  0  0  0  0  0  0  0  0
   19.1155   75.5720   12.0592 N   0  0  0  0  0  0  0  0  0  0  0  0
   19.2697   76.2028   10.8966 C   0  0  0  0  0  0  0  0  0  0  0  0
   19.1169   75.2835    9.8648 C   0  0  0  0  0  0  0  0  0  0  0  0
   18.8718   74.1171   10.4544 N   0  0  0  0  0  0  0  0  0  0  0  0
   18.8653   74.2680   11.7797 C   0  0  0  0  0  0  0  0  0  0  0  0
   18.5523   72.8519   13.0174 Br  0  0  0  0  0  0  0  0  0  0  0  0
   19.2200   75.6641    8.5883 N   0  0  0  0  0  0  0  0  0  0  0  0
   19.4731   76.9472    8.2661 C   0  0  0  0  0  0  0  0  0  0  0  0
   19.5689   77.2969    7.0633 O   0  0  0  0  0  0  0  0  0  0  0  0
   19.6211   77.8418    9.2481 N   0  0  0  0  0  0  0  0  0  0  0  0
   19.5257   77.5015   10.5422 C   0  0  0  0  0  0  0  0  0  0  0  0
   19.6642   78.3507   11.4448 O   0  0  0  0  0  0  0  0  0  0  0  0
   19.0649   74.7204    7.4864 C   0  0  0  0  0  0  0  0  0  0  0  0
   19.8209   78.8614    9.0383 H   0  0  0  0  0  0  0  0  0  0  0  0
  3  4  1  0  0  0
  4  5  1  0  0  0
  4  8  2  0  0  0
  5  6  1  0  0  0
  5  2  1  0  0  0
  6  7  2  0  0  0
  6 13  1  0  0  0
  7  8  1  0  0  0
  7  9  1  0  0  0
  9 10  1  0  0  0
  9 15  1  0  0  0
 10 11  2  0  0  0
 10 12  1  0  0  0
 12 13  1  0  0  0
 13 14  2  0  0  0
  2  1  1  0  0  0
  1 17  1  0  0  0
 17 18  1  0  0  0
 18 19  1  0  0  0
 19 20  1  0  0  0
 19 23  1  0  0  0
 20 21  2  0  0  0
 20 29  1  0  0  0
 21 22  1  0  0  0
 21 25  1  0  0  0
 22 23  2  0  0  0
 23 24  1  0  0  0
 25 26  1  0  0  0
 25 31  1  0  0  0
 26 27  2  0  0  0
 26 28  1  0  0  0
 28 29  1  0  0  0
 29 30  2  0  0  0
 12 16  1  0  0  0
 28 32  1  0  0  0
M  END
> <minimizedAffinity>
-9.89454

$$$$
1436


 33 36  0  0  0  0  0  0  0  0999 V2000
   20.7953   76.0073   14.4623 O   0  0  0  0  0  0  0  0  0  0  0  0
   20.2195   76.7894   15.4079 C   0  0  0  0  0  0  0  0  0  0  0  0
   20.9619   77.2931   16.5751 C   0  0  0  0  0  0  0  0  0  0  0  0
   22.7100   79.5424   14.6048 Br  0  0  0  0  0  0  0  0  0  0  0  0
   21.5754   79.6887   16.1372 C   0  0  0  0  0  0  0  0  0  0  0  0
   20.9909   78.6977   16.8071 N   0  0  0  0  0  0  0  0  0  0  0  0
   20.3311   79.2872   17.8425 C   0  0  0  0  0  0  0  0  0  0  0  0
   20.5445   80.6456   17.7543 C   0  0  0  0  0  0  0  0  0  0  0  0
   21.3121   80.8905   16.7011 N   0  0  0  0  0  0  0  0  0  0  0  0
   19.9863   81.4639   18.6894 N   0  0  0  0  0  0  0  0  0  0  0  0
   19.2523   80.9262   19.6617 C   0  0  0  0  0  0  0  0  0  0  0  0
   18.7465   81.7114   20.5150 O   0  0  0  0  0  0  0  0  0  0  0  0
   19.0384   79.6044   19.7569 N   0  0  0  0  0  0  0  0  0  0  0  0
   19.5694   78.7334   18.8522 C   0  0  0  0  0  0  0  0  0  0  0  0
   19.3656   77.4976   18.9518 O   0  0  0  0  0  0  0  0  0  0  0  0
   20.1863   82.8972   18.6315 C   0  0  0  0  0  0  0  0  0  0  0  0
   18.4617   79.1976   20.5239 H   0  0  0  0  0  0  0  0  0  0  0  0
   20.0060   74.9092   14.1624 C   0  0  0  0  0  0  0  0  0  0  0  0
   18.7813   75.3695   13.4296 C   0  0  0  0  0  0  0  0  0  0  0  0
   18.7844   74.9544   12.0627 N   0  0  0  0  0  0  0  0  0  0  0  0
   19.1790   75.6959   11.0190 C   0  0  0  0  0  0  0  0  0  0  0  0
   19.0229   74.9465    9.8947 C   0  0  0  0  0  0  0  0  0  0  0  0
   18.5375   73.7694   10.2803 N   0  0  0  0  0  0  0  0  0  0  0  0
   18.3770   73.7361   11.6135 C   0  0  0  0  0  0  0  0  0  0  0  0
   17.7275   72.3337   12.7173 Br  0  0  0  0  0  0  0  0  0  0  0  0
   19.3506   75.4560    8.6947 N   0  0  0  0  0  0  0  0  0  0  0  0
   19.8278   76.6966    8.6264 C   0  0  0  0  0  0  0  0  0  0  0  0
   20.1311   77.1610    7.4953 O   0  0  0  0  0  0  0  0  0  0  0  0
   19.9881   77.4438    9.7115 N   0  0  0  0  0  0  0  0  0  0  0  0
   19.6759   76.9807   10.9247 C   0  0  0  0  0  0  0  0  0  0  0  0
   19.8446   77.7289   11.9401 O   0  0  0  0  0  0  0  0  0  0  0  0
   19.1912   74.6736    7.4868 C   0  0  0  0  0  0  0  0  0  0  0  0
   20.3635   78.4142    9.6372 H   0  0  0  0  0  0  0  0  0  0  0  0
  4  5  1  0  0  0
  5  6  1  0  0  0
  5  9  2  0  0  0
  6  7  1  0  0  0
  6  3  1  0  0  0
  7  8  2  0  0  0
  7 14  1  0  0  0
  8  9  1  0  0  0
  8 10  1  0  0  0
 10 11  1  0  0  0
 10 16  1  0  0  0
 11 12  2  0  0  0
 11 13  1  0  0  0
 13 14  1  0  0  0
 14 15  2  0  0  0
  3  2  1  0  0  0
  2  1  1  0  0  0
  1 18  1  0  0  0
 18 19  1  0  0  0
 19 20  1  0  0  0
 20 21  1  0  0  0
 20 24  1  0  0  0
 21 22  2  0  0  0
 21 30  1  0  0  0
 22 23  1  0  0  0
 22 26  1  0  0  0
 23 24  2  0  0  0
 24 25  1  0  0  0
 26 27  1  0  0  0
 26 32  1  0  0  0
 27 28  2  0  0  0
 27 29  1  0  0  0
 29 30  1  0  0  0
 30 31  2  0  0  0
 13 17  1  0  0  0
 29 33  1  0  0  0
M  END
> <minimizedAffinity>
-10.16944

$$$$
1444


 33 36  0  0  0  0  0  0  0  0999 V2000
   20.7881   77.2914   14.5024 N   0  0  0  0  0  0  0  0  0  0  0  0
   20.1018   76.6308   13.5339 C   0  0  0  0  0  0  0  0  0  0  0  0
   20.6492   76.9816   12.3224 O   0  0  0  0  0  0  0  0  0  0  0  0
   21.6136   77.9238   14.0749 H   0  0  0  0  0  0  0  0  0  0  0  0
   21.2683   78.5186   16.5851 N   0  0  0  0  0  0  0  0  0  0  0  0
   20.9233   78.3852   17.8596 N   0  0  0  0  0  0  0  0  0  0  0  0
   20.1647   77.3182   18.0443 C   0  0  0  0  0  0  0  0  0  0  0  0
   20.0153   76.7248   16.7820 C   0  0  0  0  0  0  0  0  0  0  0  0
   20.7146   77.4895   15.8760 C   0  0  0  0  0  0  0  0  0  0  0  0
   22.0793   79.5449   16.0294 C   0  0  0  0  0  0  0  0  0  0  0  0
   23.4753   78.9543   13.3613 Cl  0  0  0  0  0  0  0  0  0  0  0  0
   24.2555   78.9775   14.9259 C   0  0  0  0  0  0  0  0  0  0  0  0
   23.5250   79.2547   16.0437 C   0  0  0  0  0  0  0  0  0  0  0  0
   24.1903   79.2596   17.2494 C   0  0  0  0  0  0  0  0  0  0  0  0
   25.5330   78.9987   17.3457 C   0  0  0  0  0  0  0  0  0  0  0  0
   26.2617   78.7198   16.2091 C   0  0  0  0  0  0  0  0  0  0  0  0
   25.6035   78.7133   15.0003 C   0  0  0  0  0  0  0  0  0  0  0  0
   19.0095   75.6932   13.3302 C   0  0  0  0  0  0  0  0  0  0  0  0
   19.1277   74.3242   13.0653 N   0  0  0  0  0  0  0  0  0  0  0  0
   19.8819   73.3936   13.9470 C   0  0  0  0  0  0  0  0  0  0  0  0
   20.0508   72.1377   13.1177 C   0  0  0  0  0  0  0  0  0  0  0  0
   18.6908   71.5460   12.8573 C   0  0  0  0  0  0  0  0  0  0  0  0
   17.9180   72.4558   11.9260 C   0  0  0  0  0  0  0  0  0  0  0  0
   18.5828   73.7890   11.8508 C   0  0  0  0  0  0  0  0  0  0  0  0
   18.7423   74.3952   10.6721 C   0  0  0  0  0  0  0  0  0  0  0  0
   18.1779   73.8490    9.4682 N   0  0  0  0  0  0  0  0  0  0  0  0
   18.5525   74.6491    8.3735 N   0  0  0  0  0  0  0  0  0  0  0  0
   19.3513   75.7050    8.8581 C   0  0  0  0  0  0  0  0  0  0  0  0
   19.8944   76.6445    8.2337 O   0  0  0  0  0  0  0  0  0  0  0  0
   19.4548   75.5249   10.2820 N   0  0  0  0  0  0  0  0  0  0  0  0
   17.5779   73.0173    9.3056 H   0  0  0  0  0  0  0  0  0  0  0  0
   18.3011   74.5168    7.3624 H   0  0  0  0  0  0  0  0  0  0  0  0
   20.0042   76.1414   10.9029 H   0  0  0  0  0  0  0  0  0  0  0  0
 11 12  1  0  0  0
 12 13  2  0  0  0
 12 17  1  0  0  0
 13 14  1  0  0  0
 13 10  1  0  0  0
 14 15  2  0  0  0
 15 16  1  0  0  0
 16 17  2  0  0  0
 10  5  1  0  0  0
  5  6  1  0  0  0
  5  9  1  0  0  0
  6  7  2  0  0  0
  7  8  1  0  0  0
  8  9  2  0  0  0
  9  1  1  0  0  0
  1  2  1  0  0  0
  2  3  2  0  0  0
  2 18  1  0  0  0
 18 19  1  0  0  0
 19 20  1  0  0  0
 19 24  1  0  0  0
 20 21  1  0  0  0
 21 22  1  0  0  0
 22 23  1  0  0  0
 23 24  1  0  0  0
 24 25  2  0  0  0
 25 26  1  0  0  0
 25 30  1  0  0  0
 26 27  1  0  0  0
 27 28  1  0  0  0
 28 29  2  0  0  0
 28 30  1  0  0  0
  1  4  1  0  0  0
 26 31  1  0  0  0
 27 32  1  0  0  0
 30 33  1  0  0  0
M  END
> <minimizedAffinity>
-10.16340

$$$$
1447


 38 41  0  0  0  0  0  0  0  0999 V2000
   19.5880   78.5401   18.0916 C   0  0  0  0  0  0  0  0  0  0  0  0
   19.1740   78.4383   19.3961 N   0  0  0  0  0  0  0  0  0  0  0  0
   19.4154   79.5602   20.0159 N   0  0  0  0  0  0  0  0  0  0  0  0
   19.9774   80.4454   19.2109 N   0  0  0  0  0  0  0  0  0  0  0  0
   20.0974   79.8410   18.0168 C   0  0  0  0  0  0  0  0  0  0  0  0
   20.3229   81.7632   19.5994 C   0  0  0  0  0  0  0  0  0  0  0  0
   20.3261   82.8991   18.8697 N   0  0  0  0  0  0  0  0  0  0  0  0
   20.7021   83.9035   19.6162 O   0  0  0  0  0  0  0  0  0  0  0  0
   20.9575   83.4966   20.8335 N   0  0  0  0  0  0  0  0  0  0  0  0
   20.7321   82.1724   20.8594 C   0  0  0  0  0  0  0  0  0  0  0  0
   20.8959   81.3612   22.0030 N   0  0  0  0  0  0  0  0  0  0  0  0
   20.2235   81.4577   22.7853 H   0  0  0  0  0  0  0  0  0  0  0  0
   21.6631   80.6709   22.0928 H   0  0  0  0  0  0  0  0  0  0  0  0
   20.5005   76.8226   16.4227 N   0  0  0  0  0  0  0  0  0  0  0  0
   19.4864   77.4889   17.0970 C   0  0  0  0  0  0  0  0  0  0  0  0
   18.2794   77.1394   16.8124 O   0  0  0  0  0  0  0  0  0  0  0  0
   21.5329   76.9729   16.5189 H   0  0  0  0  0  0  0  0  0  0  0  0
   19.6283   76.1692   14.3423 C   0  0  0  0  0  0  0  0  0  0  0  0
   20.1072   75.8123   15.4805 N   0  0  0  0  0  0  0  0  0  0  0  0
   18.8711   75.1982    9.1821 Br  0  0  0  0  0  0  0  0  0  0  0  0
   18.8162   74.6689   11.0002 C   0  0  0  0  0  0  0  0  0  0  0  0
   18.3787   73.4208   11.3350 C   0  0  0  0  0  0  0  0  0  0  0  0
   18.3487   73.0613   12.6799 C   0  0  0  0  0  0  0  0  0  0  0  0
   18.7612   73.9744   13.6452 C   0  0  0  0  0  0  0  0  0  0  0  0
   19.2014   75.2289   13.3176 C   0  0  0  0  0  0  0  0  0  0  0  0
   19.2255   75.5707   11.9838 C   0  0  0  0  0  0  0  0  0  0  0  0
   19.6733   76.8431   11.6638 O   0  0  0  0  0  0  0  0  0  0  0  0
   17.7469   71.3343   13.1785 Br  0  0  0  0  0  0  0  0  0  0  0  0
   17.9635   72.4955   10.3884 O   0  0  0  0  0  0  0  0  0  0  0  0
   19.7098   77.1422   10.6974 H   0  0  0  0  0  0  0  0  0  0  0  0
   17.6440   71.5806   10.6614 H   0  0  0  0  0  0  0  0  0  0  0  0
   20.6335   80.4255   16.7840 C   0  0  0  0  0  0  0  0  0  0  0  0
   22.0771   80.6754   16.8126 N   0  0  0  0  0  0  0  0  0  0  0  0
   22.5449   80.8742   15.4267 C   0  0  0  0  0  0  0  0  0  0  0  0
   21.9884   79.8085   14.5486 C   0  0  0  0  0  0  0  0  0  0  0  0
   22.2930   78.5749   15.0696 O   0  0  0  0  0  0  0  0  0  0  0  0
   23.1785   78.6045   16.1147 C   0  0  0  0  0  0  0  0  0  0  0  0
   22.7460   79.4419   17.2901 C   0  0  0  0  0  0  0  0  0  0  0  0
 20 21  1  0  0  0
 21 22  2  0  0  0
 21 26  1  0  0  0
 22 23  1  0  0  0
 22 29  1  0  0  0
 23 24  2  0  0  0
 23 28  1  0  0  0
 24 25  1  0  0  0
 25 26  2  0  0  0
 25 18  1  0  0  0
 26 27  1  0  0  0
 18 19  2  0  0  0
 19 14  1  0  0  0
 14 15  1  0  0  0
 15 16  2  0  0  0
 15  1  1  0  0  0
  1  2  1  0  0  0
  1  5  2  0  0  0
  2  3  2  0  0  0
  3  4  1  0  0  0
  4  5  1  0  0  0
  4  6  1  0  0  0
  5 32  1  0  0  0
 32 33  1  0  0  0
 33 34  1  0  0  0
 33 38  1  0  0  0
 34 35  1  0  0  0
 35 36  1  0  0  0
 36 37  1  0  0  0
 37 38  1  0  0  0
  6  7  2  0  0  0
  6 10  1  0  0  0
  7  8  1  0  0  0
  8  9  1  0  0  0
  9 10  2  0  0  0
 10 11  1  0  0  0
 27 30  1  0  0  0
 14 17  1  0  0  0
 11 12  1  0  0  0
 11 13  1  0  0  0
 29 31  1  0  0  0
M  END
> <minimizedAffinity>
-9.49554

$$$$
1466


 29 32  0  0  0  0  0  0  0  0999 V2000
   22.0824   78.2323   16.7548 N   0  0  0  0  0  0  0  0  0  0  0  0
   23.0786   77.8972   15.9520 N   0  0  0  0  0  0  0  0  0  0  0  0
   22.6319   77.1733   14.9348 N   0  0  0  0  0  0  0  0  0  0  0  0
   21.3042   77.0155   15.0524 C   0  0  0  0  0  0  0  0  0  0  0  0
   20.9655   77.6868   16.2039 C   0  0  0  0  0  0  0  0  0  0  0  0
   20.4139   76.2936   14.1612 C   0  0  0  0  0  0  0  0  0  0  0  0
   20.0172   75.0130   14.2702 N   0  0  0  0  0  0  0  0  0  0  0  0
   19.1945   74.7144   13.2517 C   0  0  0  0  0  0  0  0  0  0  0  0
   19.0973   75.8365   12.5212 N   0  0  0  0  0  0  0  0  0  0  0  0
   19.8285   76.7487   13.0848 O   0  0  0  0  0  0  0  0  0  0  0  0
   18.5327   73.4182   12.9886 C   0  0  0  0  0  0  0  0  0  0  0  0
   17.1607   73.3538   12.9126 C   0  0  0  0  0  0  0  0  0  0  0  0
   16.5472   72.1791   12.6729 N   0  0  0  0  0  0  0  0  0  0  0  0
   17.2181   71.0226   12.4967 C   0  0  0  0  0  0  0  0  0  0  0  0
   18.5953   71.0980   12.5741 C   0  0  0  0  0  0  0  0  0  0  0  0
   19.2594   72.2722   12.8158 C   0  0  0  0  0  0  0  0  0  0  0  0
   22.1382   79.0246   17.9888 C   0  0  0  0  0  0  0  0  0  0  0  0
   20.7311   79.0358   18.5426 C   0  0  0  0  0  0  0  0  0  0  0  0
   20.1015   81.4142   18.6974 C   0  0  0  0  0  0  0  0  0  0  0  0
   19.9477   81.4170   17.4313 O   0  0  0  0  0  0  0  0  0  0  0  0
   20.5058   80.2218   19.3544 N   0  0  0  0  0  0  0  0  0  0  0  0
   20.6346   80.2042   20.3855 H   0  0  0  0  0  0  0  0  0  0  0  0
   18.9195   84.0424   23.2286 Br  0  0  0  0  0  0  0  0  0  0  0  0
   19.3281   83.9301   21.3663 C   0  0  0  0  0  0  0  0  0  0  0  0
   19.3913   85.0947   20.6346 C   0  0  0  0  0  0  0  0  0  0  0  0
   19.6775   85.0483   19.3126 N   0  0  0  0  0  0  0  0  0  0  0  0
   19.8961   83.8479   18.7444 C   0  0  0  0  0  0  0  0  0  0  0  0
   19.8484   82.6572   19.4111 C   0  0  0  0  0  0  0  0  0  0  0  0
   19.5567   82.6942   20.7606 C   0  0  0  0  0  0  0  0  0  0  0  0
 23 24  1  0  0  0
 24 25  2  0  0  0
 24 29  1  0  0  0
 25 26  1  0  0  0
 26 27  2  0  0  0
 27 28  1  0  0  0
 28 29  2  0  0  0
 28 19  1  0  0  0
 19 20  2  0  0  0
 19 21  1  0  0  0
 21 18  1  0  0  0
 18 17  1  0  0  0
 17  1  1  0  0  0
  1  2  1  0  0  0
  1  5  1  0  0  0
  2  3  2  0  0  0
  3  4  1  0  0  0
  4  5  2  0  0  0
  4  6  1  0  0  0
  6  7  2  0  0  0
  6 10  1  0  0  0
  7  8  1  0  0  0
  8  9  2  0  0  0
  8 11  1  0  0  0
  9 10  1  0  0  0
 11 12  2  0  0  0
 11 16  1  0  0  0
 12 13  1  0  0  0
 13 14  2  0  0  0
 14 15  1  0  0  0
 15 16  2  0  0  0
 21 22  1  0  0  0
M  END
> <minimizedAffinity>
-11.10802

$$$$
1471


 31 34  0  0  0  0  0  0  0  0999 V2000
   21.2751   77.4471   14.6665 C   0  0  0  0  0  0  0  0  0  0  0  0
   20.4645   76.4776   14.1435 C   0  0  0  0  0  0  0  0  0  0  0  0
   19.9716   76.4926   12.8671 N   0  0  0  0  0  0  0  0  0  0  0  0
   20.3097   77.5206   12.0955 C   0  0  0  0  0  0  0  0  0  0  0  0
   21.1167   78.5392   12.5295 C   0  0  0  0  0  0  0  0  0  0  0  0
   21.6312   78.5072   13.8858 C   0  0  0  0  0  0  0  0  0  0  0  0
   22.3801   79.6170   14.0259 N   0  0  0  0  0  0  0  0  0  0  0  0
   22.3720   80.3125   12.9013 N   0  0  0  0  0  0  0  0  0  0  0  0
   21.6242   79.7005   11.9740 C   0  0  0  0  0  0  0  0  0  0  0  0
   21.3749   80.0520   10.7807 O   0  0  0  0  0  0  0  0  0  0  0  0
   22.8655   81.2270   12.7008 H   0  0  0  0  0  0  0  0  0  0  0  0
   19.7698   79.1181   18.5464 N   0  0  0  0  0  0  0  0  0  0  0  0
   20.4926   78.1551   19.3348 C   0  0  0  0  0  0  0  0  0  0  0  0
   21.3206   77.2062   18.5050 C   0  0  0  0  0  0  0  0  0  0  0  0
   20.8774   77.3000   17.1400 N   0  0  0  0  0  0  0  0  0  0  0  0
   19.4575   77.3391   16.9012 C   0  0  0  0  0  0  0  0  0  0  0  0
   18.9881   78.7253   17.3646 C   0  0  0  0  0  0  0  0  0  0  0  0
   21.7558   77.3532   16.0357 C   0  0  0  0  0  0  0  0  0  0  0  0
   23.0116   77.3214   16.1933 O   0  0  0  0  0  0  0  0  0  0  0  0
   21.4273   80.8645   16.7399 Cl  0  0  0  0  0  0  0  0  0  0  0  0
   20.4897   81.4088   18.1345 C   0  0  0  0  0  0  0  0  0  0  0  0
   19.7770   80.4883   18.8713 C   0  0  0  0  0  0  0  0  0  0  0  0
   19.0596   80.9372   19.9465 C   0  0  0  0  0  0  0  0  0  0  0  0
   19.0246   82.2720   20.3202 C   0  0  0  0  0  0  0  0  0  0  0  0
   19.7622   83.1749   19.5469 C   0  0  0  0  0  0  0  0  0  0  0  0
   20.4893   82.7475   18.4637 C   0  0  0  0  0  0  0  0  0  0  0  0
   19.0855   75.4268   12.4254 C   0  0  0  0  0  0  0  0  0  0  0  0
   18.9725   74.2715   13.3164 C   0  0  0  0  0  0  0  0  0  0  0  0
   18.8704   72.8837   12.8614 C   0  0  0  0  0  0  0  0  0  0  0  0
   17.8766   72.0726   13.2591 O   0  0  0  0  0  0  0  0  0  0  0  0
   17.2121   71.2558   12.4392 C   0  0  0  0  0  0  0  0  0  0  0  0
 20 21  1  0  0  0
 21 22  2  0  0  0
 21 26  1  0  0  0
 22 23  1  0  0  0
 22 12  1  0  0  0
 23 24  2  0  0  0
 24 25  1  0  0  0
 25 26  2  0  0  0
 12 13  1  0  0  0
 12 17  1  0  0  0
 13 14  1  0  0  0
 14 15  1  0  0  0
 15 16  1  0  0  0
 15 18  1  0  0  0
 16 17  1  0  0  0
 18 19  2  0  0  0
 18  1  1  0  0  0
  1  2  2  0  0  0
  1  6  1  0  0  0
  2  3  1  0  0  0
  3  4  1  0  0  0
  3 27  1  0  0  0
  4  5  2  0  0  0
  5  6  1  0  0  0
  5  9  1  0  0  0
  6  7  2  0  0  0
  7  8  1  0  0  0
  8  9  1  0  0  0
  9 10  2  0  0  0
 27 28  1  0  0  0
 28 29  1  0  0  0
 29 30  1  0  0  0
 30 31  1  0  0  0
  8 11  1  0  0  0
M  END
> <minimizedAffinity>
-9.99438

$$$$
1477


 35 39  0  0  0  0  0  0  0  0999 V2000
   21.7568   78.3509   15.2672 C   0  0  0  0  0  0  0  0  0  0  0  0
   20.8060   77.5490   15.9025 N   0  0  0  0  0  0  0  0  0  0  0  0
   20.1590   76.7508   14.8655 C   0  0  0  0  0  0  0  0  0  0  0  0
   19.3448   75.8060   15.0201 O   0  0  0  0  0  0  0  0  0  0  0  0
   20.5924   77.2084   13.5544 C   0  0  0  0  0  0  0  0  0  0  0  0
   20.2306   76.7306   12.4276 O   0  0  0  0  0  0  0  0  0  0  0  0
   21.5064   78.2939   13.7906 C   0  0  0  0  0  0  0  0  0  0  0  0
   22.0497   79.0518   12.8606 C   0  0  0  0  0  0  0  0  0  0  0  0
   22.9735   80.0137   13.3326 O   0  0  0  0  0  0  0  0  0  0  0  0
   21.7831   78.9890   11.4357 C   0  0  0  0  0  0  0  0  0  0  0  0
   20.6768   79.2013   10.7061 N   0  0  0  0  0  0  0  0  0  0  0  0
   20.8714   78.9830    9.3969 C   0  0  0  0  0  0  0  0  0  0  0  0
   22.1652   78.6120    9.2733 N   0  0  0  0  0  0  0  0  0  0  0  0
   22.7450   78.6043   10.4761 C   0  0  0  0  0  0  0  0  0  0  0  0
   24.1407   78.2604   10.7814 C   0  0  0  0  0  0  0  0  0  0  0  0
   19.8703   79.1576    8.4606 C   0  0  0  0  0  0  0  0  0  0  0  0
   18.6338   79.5659    8.8829 C   0  0  0  0  0  0  0  0  0  0  0  0
   18.4330   79.7917   10.2314 C   0  0  0  0  0  0  0  0  0  0  0  0
   19.4520   79.6089   11.1368 C   0  0  0  0  0  0  0  0  0  0  0  0
   26.3307   75.6357   15.0246 Br  0  0  0  0  0  0  0  0  0  0  0  0
   25.2947   77.1564   15.4888 C   0  0  0  0  0  0  0  0  0  0  0  0
   23.9396   77.1858   15.2429 C   0  0  0  0  0  0  0  0  0  0  0  0
   23.1712   78.3078   15.5810 C   0  0  0  0  0  0  0  0  0  0  0  0
   23.8733   79.3409   16.1621 C   0  0  0  0  0  0  0  0  0  0  0  0
   25.2122   79.3528   16.4244 C   0  0  0  0  0  0  0  0  0  0  0  0
   25.9377   78.2280   16.0755 C   0  0  0  0  0  0  0  0  0  0  0  0
   20.4059   77.5290   17.2619 C   0  0  0  0  0  0  0  0  0  0  0  0
   20.3975   78.7431   18.0747 C   0  0  0  0  0  0  0  0  0  0  0  0
   19.3407   79.7033   17.9486 N   0  0  0  0  0  0  0  0  0  0  0  0
   18.7644   79.8700   19.2829 C   0  0  0  0  0  0  0  0  0  0  0  0
   19.4434   80.9380   20.0787 C   0  0  0  0  0  0  0  0  0  0  0  0
   20.6434   81.3341   19.4686 O   0  0  0  0  0  0  0  0  0  0  0  0
   20.2725   81.9260   18.2820 C   0  0  0  0  0  0  0  0  0  0  0  0
   19.7409   80.9210   17.3286 C   0  0  0  0  0  0  0  0  0  0  0  0
   18.5221   79.3147   17.3923 H   0  0  0  0  0  0  0  0  0  0  0  0
 20 21  1  0  0  0
 21 22  2  0  0  0
 21 26  1  0  0  0
 22 23  1  0  0  0
 23 24  2  0  0  0
 23  1  1  0  0  0
 24 25  1  0  0  0
 25 26  2  0  0  0
  1  2  1  0  0  0
  1  7  1  0  0  0
  2  3  1  0  0  0
  2 27  1  0  0  0
  3  4  2  0  0  0
  3  5  1  0  0  0
  5  6  2  0  0  0
  5  7  1  0  0  0
  7  8  2  0  0  0
  8  9  1  0  0  0
  8 10  1  0  0  0
 10 11  1  0  0  0
 10 14  2  0  0  0
 11 12  1  0  0  0
 11 19  1  0  0  0
 12 13  2  0  0  0
 12 16  1  0  0  0
 13 14  1  0  0  0
 14 15  1  0  0  0
 16 17  2  0  0  0
 17 18  1  0  0  0
 18 19  2  0  0  0
 27 28  1  0  0  0
 28 29  1  0  0  0
 29 30  1  0  0  0
 29 34  1  0  0  0
 30 31  1  0  0  0
 31 32  1  0  0  0
 32 33  1  0  0  0
 33 34  1  0  0  0
 29 35  1  0  0  0
M  CHG 1   9  -1
M  CHG 1  29   1
M  END
> <minimizedAffinity>
-9.55749

$$$$
1486


 31 34  0  0  0  0  0  0  0  0999 V2000
   21.4863   77.6616   16.7295 N   0  0  0  0  0  0  0  0  0  0  0  0
   20.6650   76.8302   16.1298 N   0  0  0  0  0  0  0  0  0  0  0  0
   20.7979   76.9143   14.7978 C   0  0  0  0  0  0  0  0  0  0  0  0
   21.7411   77.8367   14.5573 N   0  0  0  0  0  0  0  0  0  0  0  0
   22.1654   78.2993   15.7701 C   0  0  0  0  0  0  0  0  0  0  0  0
   23.1905   79.3177   15.9918 C   0  0  0  0  0  0  0  0  0  0  0  0
   22.8660   80.6364   15.3307 C   0  0  0  0  0  0  0  0  0  0  0  0
   23.0168   80.5673   13.8270 C   0  0  0  0  0  0  0  0  0  0  0  0
   21.9471   79.7564   13.1635 C   0  0  0  0  0  0  0  0  0  0  0  0
   22.2162   78.2610   13.2552 C   0  0  0  0  0  0  0  0  0  0  0  0
   21.6328   77.8558   18.1412 C   0  0  0  0  0  0  0  0  0  0  0  0
   20.3925   78.3979   18.7569 C   0  0  0  0  0  0  0  0  0  0  0  0
   19.5063   77.5729   19.1044 O   0  0  0  0  0  0  0  0  0  0  0  0
   19.4060   84.4162   19.7159 Br  0  0  0  0  0  0  0  0  0  0  0  0
   19.7095   82.5383   19.4244 C   0  0  0  0  0  0  0  0  0  0  0  0
   20.3698   82.1163   18.2832 C   0  0  0  0  0  0  0  0  0  0  0  0
   20.5921   80.7598   18.0664 C   0  0  0  0  0  0  0  0  0  0  0  0
   20.1683   79.8116   18.9685 C   0  0  0  0  0  0  0  0  0  0  0  0
   19.5147   80.2661   20.0920 C   0  0  0  0  0  0  0  0  0  0  0  0
   19.2817   81.5983   20.3313 C   0  0  0  0  0  0  0  0  0  0  0  0
   20.0696   76.1588   13.7693 C   0  0  0  0  0  0  0  0  0  0  0  0
   20.1554   74.7436   13.9618 N   0  0  0  0  0  0  0  0  0  0  0  0
   20.9787   74.3339   14.4267 H   0  0  0  0  0  0  0  0  0  0  0  0
   19.1404   73.8399   13.5355 C   0  0  0  0  0  0  0  0  0  0  0  0
   19.3917   72.5056   13.3090 C   0  0  0  0  0  0  0  0  0  0  0  0
   18.4052   71.6441   12.9035 C   0  0  0  0  0  0  0  0  0  0  0  0
   17.1418   72.1099   12.7167 C   0  0  0  0  0  0  0  0  0  0  0  0
   16.8864   73.4447   12.9418 C   0  0  0  0  0  0  0  0  0  0  0  0
   17.8707   74.3205   13.3507 C   0  0  0  0  0  0  0  0  0  0  0  0
   16.1330   71.2697   12.3098 O   0  0  0  0  0  0  0  0  0  0  0  0
   16.3611   70.1230   11.5286 C   0  0  0  0  0  0  0  0  0  0  0  0
 14 15  1  0  0  0
 15 16  2  0  0  0
 15 20  1  0  0  0
 16 17  1  0  0  0
 17 18  2  0  0  0
 18 19  1  0  0  0
 18 12  1  0  0  0
 19 20  2  0  0  0
 12 13  2  0  0  0
 12 11  1  0  0  0
 11  1  1  0  0  0
  1  2  1  0  0  0
  1  5  2  0  0  0
  2  3  2  0  0  0
  3  4  1  0  0  0
  3 21  1  0  0  0
  4  5  1  0  0  0
  4 10  1  0  0  0
  5  6  1  0  0  0
  6  7  1  0  0  0
  7  8  1  0  0  0
  8  9  1  0  0  0
  9 10  1  0  0  0
 21 22  1  0  0  0
 22 24  1  0  0  0
 24 25  2  0  0  0
 24 29  1  0  0  0
 25 26  1  0  0  0
 26 27  2  0  0  0
 27 28  1  0  0  0
 27 30  1  0  0  0
 28 29  2  0  0  0
 30 31  1  0  0  0
 22 23  1  0  0  0
M  END
> <minimizedAffinity>
-11.65570

$$$$
1487


 29 32  0  0  0  0  0  0  0  0999 V2000
   21.4886   76.9794   14.5391 N   0  0  0  0  0  0  0  0  0  0  0  0
   20.5759   77.3704   15.5840 C   0  0  0  0  0  0  0  0  0  0  0  0
   21.2917   77.8506   16.7757 C   0  0  0  0  0  0  0  0  0  0  0  0
   22.6740   77.6948   16.4217 N   0  0  0  0  0  0  0  0  0  0  0  0
   23.8734   77.5696   17.2159 C   0  0  0  0  0  0  0  0  0  0  0  0
   24.8949   78.6382   16.9934 C   0  0  0  0  0  0  0  0  0  0  0  0
   24.6384   79.5294   15.8288 C   0  0  0  0  0  0  0  0  0  0  0  0
   24.9773   78.7425   14.5426 C   0  0  0  0  0  0  0  0  0  0  0  0
   23.6704   78.0627   14.1755 C   0  0  0  0  0  0  0  0  0  0  0  0
   22.7205   77.6257   14.9703 C   0  0  0  0  0  0  0  0  0  0  0  0
   21.0540   76.9611   17.8605 O   0  0  0  0  0  0  0  0  0  0  0  0
   21.7009   75.9922   14.4455 H   0  0  0  0  0  0  0  0  0  0  0  0
   20.1953   76.4769   17.6251 H   0  0  0  0  0  0  0  0  0  0  0  0
   22.1829   80.7830   11.0785 Cl  0  0  0  0  0  0  0  0  0  0  0  0
   21.4185   79.2911   11.6058 C   0  0  0  0  0  0  0  0  0  0  0  0
   21.7715   78.7044   12.8183 C   0  0  0  0  0  0  0  0  0  0  0  0
   21.2188   77.5263   13.2566 C   0  0  0  0  0  0  0  0  0  0  0  0
   20.2683   76.9427   12.4106 C   0  0  0  0  0  0  0  0  0  0  0  0
   19.9023   77.5118   11.1959 C   0  0  0  0  0  0  0  0  0  0  0  0
   20.4803   78.6864   10.7941 C   0  0  0  0  0  0  0  0  0  0  0  0
   20.9460   79.1588   17.2767 C   0  0  0  0  0  0  0  0  0  0  0  0
   20.0955   79.3647   18.3629 C   0  0  0  0  0  0  0  0  0  0  0  0
   19.7857   80.6247   18.8561 C   0  0  0  0  0  0  0  0  0  0  0  0
   20.3514   81.7404   18.2387 C   0  0  0  0  0  0  0  0  0  0  0  0
   21.1879   81.5831   17.1716 C   0  0  0  0  0  0  0  0  0  0  0  0
   21.4770   80.2918   16.7024 C   0  0  0  0  0  0  0  0  0  0  0  0
   18.9151   80.7585   19.9615 N   0  0  0  0  0  0  0  0  0  0  0  0
   18.2011   79.7709   20.3209 O   0  0  0  0  0  0  0  0  0  0  0  0
   18.7868   81.8927   20.6722 O   0  0  0  0  0  0  0  0  0  0  0  0
 14 15  1  0  0  0
 15 16  2  0  0  0
 15 20  1  0  0  0
 16 17  1  0  0  0
 17 18  2  0  0  0
 17  1  1  0  0  0
 18 19  1  0  0  0
 19 20  2  0  0  0
  1  2  1  0  0  0
  1 10  1  0  0  0
  2  3  1  0  0  0
  3  4  1  0  0  0
  3 11  1  0  0  0
  3 21  1  0  0  0
  4  5  1  0  0  0
  4 10  1  0  0  0
  5  6  1  0  0  0
  6  7  1  0  0  0
  7  8  1  0  0  0
  8  9  1  0  0  0
  9 10  2  0  0  0
 21 22  2  0  0  0
 21 26  1  0  0  0
 22 23  1  0  0  0
 23 24  2  0  0  0
 23 27  1  0  0  0
 24 25  1  0  0  0
 25 26  2  0  0  0
 27 28  2  0  0  0
 27 29  1  0  0  0
  1 12  1  0  0  0
 11 13  1  0  0  0
M  CHG 1   1   1
M  CHG 1  29  -1
M  END
> <minimizedAffinity>
-9.94363

$$$$
1491


 34 38  0  0  0  0  0  0  0  0999 V2000
   19.1107   74.4271   14.2606 F   0  0  0  0  0  0  0  0  0  0  0  0
   19.5244   75.4134   13.4450 C   0  0  0  0  0  0  0  0  0  0  0  0
   19.1399   75.2517   12.1171 C   0  0  0  0  0  0  0  0  0  0  0  0
   19.4867   76.1895   11.1699 C   0  0  0  0  0  0  0  0  0  0  0  0
   20.2168   77.2807   11.5774 C   0  0  0  0  0  0  0  0  0  0  0  0
   20.5903   77.4248   12.9097 C   0  0  0  0  0  0  0  0  0  0  0  0
   20.2531   76.4991   13.8603 C   0  0  0  0  0  0  0  0  0  0  0  0
   20.5436   78.1860   10.6333 N   0  0  0  0  0  0  0  0  0  0  0  0
   20.1843   78.0518    9.3440 C   0  0  0  0  0  0  0  0  0  0  0  0
   19.4534   76.9704    8.9040 C   0  0  0  0  0  0  0  0  0  0  0  0
   19.0978   76.0219    9.8338 C   0  0  0  0  0  0  0  0  0  0  0  0
   18.4317   75.0134    9.5005 O   0  0  0  0  0  0  0  0  0  0  0  0
   20.6546   76.6742   15.1844 N   0  0  0  0  0  0  0  0  0  0  0  0
   19.6897   77.3010   16.0513 C   0  0  0  0  0  0  0  0  0  0  0  0
   20.2104   77.2924   17.5080 C   0  0  0  0  0  0  0  0  0  0  0  0
   21.3740   78.0881   17.4974 N   0  0  0  0  0  0  0  0  0  0  0  0
   22.4736   77.3931   16.7217 C   0  0  0  0  0  0  0  0  0  0  0  0
   21.9107   77.3324   15.3348 C   0  0  0  0  0  0  0  0  0  0  0  0
   21.6660   79.3190   17.9799 C   0  0  0  0  0  0  0  0  0  0  0  0
   22.9131   79.6976   17.8345 O   0  0  0  0  0  0  0  0  0  0  0  0
   20.7912   75.6948   15.5844 H   0  0  0  0  0  0  0  0  0  0  0  0
   20.8464   80.3008   18.6337 C   0  0  0  0  0  0  0  0  0  0  0  0
   20.8573   81.6260   18.3406 C   0  0  0  0  0  0  0  0  0  0  0  0
   20.0065   82.5320   18.9611 C   0  0  0  0  0  0  0  0  0  0  0  0
   19.1228   82.0798   19.9067 C   0  0  0  0  0  0  0  0  0  0  0  0
   19.0719   80.7560   20.2407 C   0  0  0  0  0  0  0  0  0  0  0  0
   19.9180   79.8923   19.6138 C   0  0  0  0  0  0  0  0  0  0  0  0
   20.0551   84.2466   18.5446 Cl  0  0  0  0  0  0  0  0  0  0  0  0
   19.0680   76.8379    7.4861 C   0  0  0  0  0  0  0  0  0  0  0  0
   19.2975   75.8125    6.8258 O   0  0  0  0  0  0  0  0  0  0  0  0
   18.4287   77.9003    6.8885 O   0  0  0  0  0  0  0  0  0  0  0  0
   21.3233   79.3438   11.0867 C   0  0  0  0  0  0  0  0  0  0  0  0
   21.8480   80.3232   10.1302 C   0  0  0  0  0  0  0  0  0  0  0  0
   22.8098   79.3241   10.5985 C   0  0  0  0  0  0  0  0  0  0  0  0
  1  2  1  0  0  0
  2  3  2  0  0  0
  2  7  1  0  0  0
  3  4  1  0  0  0
  4  5  2  0  0  0
  4 11  1  0  0  0
  5  6  1  0  0  0
  5  8  1  0  0  0
  6  7  2  0  0  0
  7 13  1  0  0  0
 13 14  1  0  0  0
 13 18  1  0  0  0
 14 15  1  0  0  0
 15 16  1  0  0  0
 16 17  1  0  0  0
 16 19  1  0  0  0
 17 18  1  0  0  0
 19 20  2  0  0  0
 19 22  1  0  0  0
 22 23  2  0  0  0
 22 27  1  0  0  0
 23 24  1  0  0  0
 24 25  2  0  0  0
 24 28  1  0  0  0
 25 26  1  0  0  0
 26 27  2  0  0  0
  8  9  1  0  0  0
  8 32  1  0  0  0
  9 10  2  0  0  0
 10 11  1  0  0  0
 10 29  1  0  0  0
 11 12  2  0  0  0
 29 30  2  0  0  0
 29 31  1  0  0  0
 32 33  1  0  0  0
 32 34  1  0  0  0
 33 34  1  0  0  0
 13 21  1  0  0  0
M  CHG 1  13   1
M  END
> <minimizedAffinity>
-10.53012

$$$$
1506


 32 35  0  0  0  0  0  0  0  0999 V2000
   20.3413   77.7407   12.5000 N   0  0  0  0  0  0  0  0  0  0  0  0
   21.2505   78.5180   11.6953 C   0  0  0  0  0  0  0  0  0  0  0  0
   22.4389   78.6063   12.0413 O   0  0  0  0  0  0  0  0  0  0  0  0
   19.3915   77.6881   12.1408 H   0  0  0  0  0  0  0  0  0  0  0  0
   20.7988   79.2121   10.4662 C   0  0  0  0  0  0  0  0  0  0  0  0
   19.3286   78.9137   10.2739 C   0  0  0  0  0  0  0  0  0  0  0  0
   19.2173   77.4641    9.8577 C   0  0  0  0  0  0  0  0  0  0  0  0
   19.7545   77.4028    8.5016 N   0  0  0  0  0  0  0  0  0  0  0  0
   20.8472   78.2361    8.1303 C   0  0  0  0  0  0  0  0  0  0  0  0
   21.5852   78.8617    9.2575 C   0  0  0  0  0  0  0  0  0  0  0  0
   19.1496   76.4962    7.6006 C   0  0  0  0  0  0  0  0  0  0  0  0
   18.2621   76.8788    6.6625 N   0  0  0  0  0  0  0  0  0  0  0  0
   17.6874   76.0453    5.8157 N   0  0  0  0  0  0  0  0  0  0  0  0
   16.8052   76.2379    4.8408 N   0  0  0  0  0  0  0  0  0  0  0  0
   16.5140   75.1074    4.2553 N   0  0  0  0  0  0  0  0  0  0  0  0
   17.2082   74.1565    4.8436 N   0  0  0  0  0  0  0  0  0  0  0  0
   17.9425   74.7321    5.8189 C   0  0  0  0  0  0  0  0  0  0  0  0
   18.8466   74.2756    6.7611 C   0  0  0  0  0  0  0  0  0  0  0  0
   19.4489   75.1457    7.6474 C   0  0  0  0  0  0  0  0  0  0  0  0
   20.8692   77.1176   13.6488 C   0  0  0  0  0  0  0  0  0  0  0  0
   20.0408   76.2893   14.5398 C   0  0  0  0  0  0  0  0  0  0  0  0
   19.6675   73.8675   13.8250 C   0  0  0  0  0  0  0  0  0  0  0  0
   20.7683   73.4148   14.2050 O   0  0  0  0  0  0  0  0  0  0  0  0
   19.3274   75.2023   13.9868 N   0  0  0  0  0  0  0  0  0  0  0  0
   18.3099   75.4191   13.5941 H   0  0  0  0  0  0  0  0  0  0  0  0
   15.8875   69.9621   11.2440 Cl  0  0  0  0  0  0  0  0  0  0  0  0
   17.0033   71.0898   11.9974 C   0  0  0  0  0  0  0  0  0  0  0  0
   16.5504   72.3318   12.4102 C   0  0  0  0  0  0  0  0  0  0  0  0
   17.4308   73.2078   13.0000 C   0  0  0  0  0  0  0  0  0  0  0  0
   18.7564   72.8845   13.1927 C   0  0  0  0  0  0  0  0  0  0  0  0
   19.1816   71.6507   12.7756 C   0  0  0  0  0  0  0  0  0  0  0  0
   18.3147   70.7362   12.1730 C   0  0  0  0  0  0  0  0  0  0  0  0
 26 27  1  0  0  0
 27 28  2  0  0  0
 27 32  1  0  0  0
 28 29  1  0  0  0
 29 30  2  0  0  0
 30 31  1  0  0  0
 30 22  1  0  0  0
 31 32  2  0  0  0
 22 23  2  0  0  0
 22 24  1  0  0  0
 24 21  1  0  0  0
 21 20  1  0  0  0
 20  1  1  0  0  0
  1  2  1  0  0  0
  2  3  2  0  0  0
  2  5  1  0  0  0
  5  6  1  0  0  0
  5 10  1  0  0  0
  6  7  1  0  0  0
  7  8  1  0  0  0
  8  9  1  0  0  0
  8 11  1  0  0  0
  9 10  1  0  0  0
 11 12  2  0  0  0
 11 19  1  0  0  0
 12 13  1  0  0  0
 13 14  1  0  0  0
 13 17  1  0  0  0
 14 15  2  0  0  0
 15 16  1  0  0  0
 16 17  2  0  0  0
 17 18  1  0  0  0
 18 19  2  0  0  0
 24 25  1  0  0  0
  1  4  1  0  0  0
M  END
> <minimizedAffinity>
-11.32559

$$$$
1507


 32 35  0  0  0  0  0  0  0  0999 V2000
   21.2451   76.8410   15.1772 C   0  0  0  0  0  0  0  0  0  0  0  0
   20.6921   77.4628   16.1985 C   0  0  0  0  0  0  0  0  0  0  0  0
   21.3163   78.3636   17.2210 C   0  0  0  0  0  0  0  0  0  0  0  0
   20.3406   79.3842   17.3497 N   0  0  0  0  0  0  0  0  0  0  0  0
   19.0796   78.6494   17.3991 C   0  0  0  0  0  0  0  0  0  0  0  0
   18.0093   78.9966   17.9624 O   0  0  0  0  0  0  0  0  0  0  0  0
   19.3044   77.4137   16.6578 C   0  0  0  0  0  0  0  0  0  0  0  0
   18.5106   76.4446   16.4154 O   0  0  0  0  0  0  0  0  0  0  0  0
   22.5962   76.9451   14.8970 O   0  0  0  0  0  0  0  0  0  0  0  0
   17.8390   73.2085   11.5266 Br  0  0  0  0  0  0  0  0  0  0  0  0
   18.9080   74.3333   12.6622 C   0  0  0  0  0  0  0  0  0  0  0  0
   19.0885   75.6694   12.3878 C   0  0  0  0  0  0  0  0  0  0  0  0
   19.8368   76.5141   13.1589 C   0  0  0  0  0  0  0  0  0  0  0  0
   20.4538   76.0020   14.2851 C   0  0  0  0  0  0  0  0  0  0  0  0
   20.2889   74.6688   14.5829 C   0  0  0  0  0  0  0  0  0  0  0  0
   19.5202   73.8158   13.7852 C   0  0  0  0  0  0  0  0  0  0  0  0
   22.6996   78.6301   17.0090 C   0  0  0  0  0  0  0  0  0  0  0  0
   23.6366   77.7893   17.5594 C   0  0  0  0  0  0  0  0  0  0  0  0
   24.9876   77.9703   17.3857 C   0  0  0  0  0  0  0  0  0  0  0  0
   25.4633   79.0326   16.6309 C   0  0  0  0  0  0  0  0  0  0  0  0
   24.5065   79.8661   16.0864 C   0  0  0  0  0  0  0  0  0  0  0  0
   23.1542   79.6774   16.2654 C   0  0  0  0  0  0  0  0  0  0  0  0
   27.1772   79.2740   16.4017 Cl  0  0  0  0  0  0  0  0  0  0  0  0
   20.3901   80.8272   17.4845 C   0  0  0  0  0  0  0  0  0  0  0  0
   20.5939   81.3801   18.8410 C   0  0  0  0  0  0  0  0  0  0  0  0
   19.5694   82.3449   19.2552 N   0  0  0  0  0  0  0  0  0  0  0  0
   19.9867   83.6705   18.9500 C   0  0  0  0  0  0  0  0  0  0  0  0
   20.2203   84.5807   20.1045 C   0  0  0  0  0  0  0  0  0  0  0  0
   19.4874   84.3025   21.2425 O   0  0  0  0  0  0  0  0  0  0  0  0
   19.8859   83.0006   21.6231 C   0  0  0  0  0  0  0  0  0  0  0  0
   19.2686   82.0787   20.6313 C   0  0  0  0  0  0  0  0  0  0  0  0
   18.7127   82.0839   18.6766 H   0  0  0  0  0  0  0  0  0  0  0  0
 10 11  1  0  0  0
 11 12  2  0  0  0
 11 16  1  0  0  0
 12 13  1  0  0  0
 13 14  2  0  0  0
 14 15  1  0  0  0
 14  1  1  0  0  0
 15 16  2  0  0  0
  1  2  2  0  0  0
  1  9  1  0  0  0
  2  3  1  0  0  0
  2  7  1  0  0  0
  3  4  1  0  0  0
  3 17  1  0  0  0
  4  5  1  0  0  0
  4 24  1  0  0  0
  5  6  2  0  0  0
  5  7  1  0  0  0
  7  8  2  0  0  0
 24 25  1  0  0  0
 25 26  1  0  0  0
 26 27  1  0  0  0
 26 31  1  0  0  0
 27 28  1  0  0  0
 28 29  1  0  0  0
 29 30  1  0  0  0
 30 31  1  0  0  0
 17 18  2  0  0  0
 17 22  1  0  0  0
 18 19  1  0  0  0
 19 20  2  0  0  0
 20 21  1  0  0  0
 20 23  1  0  0  0
 21 22  2  0  0  0
 26 32  1  0  0  0
M  CHG 1   9  -1
M  CHG 1  26   1
M  END
> <minimizedAffinity>
-9.25085

$$$$
1511


 34 37  0  0  0  0  0  0  0  0999 V2000
   20.5929   78.4196   10.8128 N   0  0  0  0  0  0  0  0  0  0  0  0
   20.5831   78.0811   12.1123 C   0  0  0  0  0  0  0  0  0  0  0  0
   19.9357   77.0949   12.5484 O   0  0  0  0  0  0  0  0  0  0  0  0
   21.3621   78.9475   12.8610 C   0  0  0  0  0  0  0  0  0  0  0  0
   21.8540   79.8283   11.9991 C   0  0  0  0  0  0  0  0  0  0  0  0
   22.6082   80.6678   12.7250 N   0  0  0  0  0  0  0  0  0  0  0  0
   22.5776   80.3091   13.9960 N   0  0  0  0  0  0  0  0  0  0  0  0
   21.8168   79.2523   14.1005 N   0  0  0  0  0  0  0  0  0  0  0  0
   21.3861   79.5117   10.7409 C   0  0  0  0  0  0  0  0  0  0  0  0
   21.6591   80.1489    9.6700 O   0  0  0  0  0  0  0  0  0  0  0  0
   23.1475   81.4854   12.3771 H   0  0  0  0  0  0  0  0  0  0  0  0
   23.0751   80.7784   14.8102 H   0  0  0  0  0  0  0  0  0  0  0  0
   17.8498   75.6824    6.0234 Br  0  0  0  0  0  0  0  0  0  0  0  0
   18.6927   76.5453    7.5108 C   0  0  0  0  0  0  0  0  0  0  0  0
   18.2694   77.7818    7.9571 C   0  0  0  0  0  0  0  0  0  0  0  0
   18.8852   78.4041    9.0390 C   0  0  0  0  0  0  0  0  0  0  0  0
   19.9397   77.8132    9.7037 C   0  0  0  0  0  0  0  0  0  0  0  0
   20.3578   76.5801    9.2537 C   0  0  0  0  0  0  0  0  0  0  0  0
   19.7479   75.9609    8.1821 C   0  0  0  0  0  0  0  0  0  0  0  0
   21.4919   78.5143   15.2977 C   0  0  0  0  0  0  0  0  0  0  0  0
   21.4304   79.4698   16.4666 C   0  0  0  0  0  0  0  0  0  0  0  0
   22.4935   79.8172   17.0272 O   0  0  0  0  0  0  0  0  0  0  0  0
   20.1933   79.9573   16.9125 N   0  0  0  0  0  0  0  0  0  0  0  0
   19.3249   79.6174   16.3845 H   0  0  0  0  0  0  0  0  0  0  0  0
   19.9957   80.8534   17.9817 C   0  0  0  0  0  0  0  0  0  0  0  0
   20.4205   82.1571   18.0294 C   0  0  0  0  0  0  0  0  0  0  0  0
   20.2099   82.9798   19.1165 C   0  0  0  0  0  0  0  0  0  0  0  0
   19.5386   82.4592   20.2028 C   0  0  0  0  0  0  0  0  0  0  0  0
   19.0921   81.1477   20.1946 C   0  0  0  0  0  0  0  0  0  0  0  0
   19.3135   80.3493   19.1058 C   0  0  0  0  0  0  0  0  0  0  0  0
   19.3149   83.2729   21.3102 O   0  0  0  0  0  0  0  0  0  0  0  0
   18.2490   84.2013   21.2798 C   0  0  0  0  0  0  0  0  0  0  0  0
   20.6531   84.3003   19.1358 O   0  0  0  0  0  0  0  0  0  0  0  0
   20.3277   85.1250   18.0093 C   0  0  0  0  0  0  0  0  0  0  0  0
 13 14  1  0  0  0
 14 15  2  0  0  0
 14 19  1  0  0  0
 15 16  1  0  0  0
 16 17  2  0  0  0
 17 18  1  0  0  0
 17  1  1  0  0  0
 18 19  2  0  0  0
  1  2  1  0  0  0
  1  9  1  0  0  0
  2  3  2  0  0  0
  2  4  1  0  0  0
  4  5  2  0  0  0
  4  8  1  0  0  0
  5  6  1  0  0  0
  5  9  1  0  0  0
  6  7  1  0  0  0
  7  8  1  0  0  0
  8 20  1  0  0  0
 20 21  1  0  0  0
 21 22  2  0  0  0
 21 23  1  0  0  0
 23 25  1  0  0  0
 25 26  2  0  0  0
 25 30  1  0  0  0
 26 27  1  0  0  0
 27 28  2  0  0  0
 27 33  1  0  0  0
 28 29  1  0  0  0
 28 31  1  0  0  0
 29 30  2  0  0  0
 31 32  1  0  0  0
 33 34  1  0  0  0
  9 10  2  0  0  0
  6 11  1  0  0  0
  7 12  1  0  0  0
 23 24  1  0  0  0
M  END
> <minimizedAffinity>
-9.70793

$$$$
1516


 30 33  0  0  0  0  0  0  0  0999 V2000
   21.2650   80.2179   17.2246 C   0  0  0  0  0  0  0  0  0  0  0  0
   21.3598   80.9296   16.1248 O   0  0  0  0  0  0  0  0  0  0  0  0
   20.6332   80.8744   18.2712 N   0  0  0  0  0  0  0  0  0  0  0  0
   20.3819   80.3000   19.5518 C   0  0  0  0  0  0  0  0  0  0  0  0
   19.3829   81.2153   20.2965 C   0  0  0  0  0  0  0  0  0  0  0  0
   20.1283   82.5005   20.6021 C   0  0  0  0  0  0  0  0  0  0  0  0
   21.2342   82.2122   21.4193 N   0  0  0  0  0  0  0  0  0  0  0  0
   21.0964   82.1291   22.8097 C   0  0  0  0  0  0  0  0  0  0  0  0
   20.1564   83.0688   23.4660 C   0  0  0  0  0  0  0  0  0  0  0  0
   19.1996   83.7018   22.5341 C   0  0  0  0  0  0  0  0  0  0  0  0
   18.2330   84.5962   22.8178 N   0  0  0  0  0  0  0  0  0  0  0  0
   17.6036   84.9021   21.6792 C   0  0  0  0  0  0  0  0  0  0  0  0
   18.1769   84.1976   20.6773 N   0  0  0  0  0  0  0  0  0  0  0  0
   19.1692   83.4470   21.1910 C   0  0  0  0  0  0  0  0  0  0  0  0
   20.6687   83.0484   19.2700 C   0  0  0  0  0  0  0  0  0  0  0  0
   20.1705   82.2599   18.0912 C   0  0  0  0  0  0  0  0  0  0  0  0
   22.0977   81.8972   20.9934 H   0  0  0  0  0  0  0  0  0  0  0  0
   17.8916   84.2340   19.6820 H   0  0  0  0  0  0  0  0  0  0  0  0
   21.8423   78.8790   17.1192 C   0  0  0  0  0  0  0  0  0  0  0  0
   21.2210   77.3845   14.9276 C   0  0  0  0  0  0  0  0  0  0  0  0
   20.6642   76.2560   14.9061 O   0  0  0  0  0  0  0  0  0  0  0  0
   21.5302   78.1281   16.0170 N   0  0  0  0  0  0  0  0  0  0  0  0
   21.0721   77.1355   16.8536 H   0  0  0  0  0  0  0  0  0  0  0  0
   22.5743   79.5866    9.5316 Cl  0  0  0  0  0  0  0  0  0  0  0  0
   22.1848   78.9465   11.1218 C   0  0  0  0  0  0  0  0  0  0  0  0
   20.9941   78.2969   11.2913 C   0  0  0  0  0  0  0  0  0  0  0  0
   20.6834   77.7825   12.5544 C   0  0  0  0  0  0  0  0  0  0  0  0
   21.5686   77.9415   13.5793 C   0  0  0  0  0  0  0  0  0  0  0  0
   22.7487   78.5838   13.4165 C   0  0  0  0  0  0  0  0  0  0  0  0
   23.0708   79.1044   12.1473 C   0  0  0  0  0  0  0  0  0  0  0  0
 24 25  1  0  0  0
 25 26  2  0  0  0
 25 30  1  0  0  0
 26 27  1  0  0  0
 27 28  2  0  0  0
 28 29  1  0  0  0
 28 20  1  0  0  0
 29 30  2  0  0  0
 20 21  2  0  0  0
 20 22  1  0  0  0
 22 19  1  0  0  0
 19  1  1  0  0  0
  1  2  2  0  0  0
  1  3  1  0  0  0
  3  4  1  0  0  0
  3 16  1  0  0  0
  4  5  1  0  0  0
  5  6  1  0  0  0
  6  7  1  0  0  0
  6 14  1  0  0  0
  6 15  1  0  0  0
  7  8  1  0  0  0
  8  9  1  0  0  0
  9 10  1  0  0  0
 10 11  1  0  0  0
 10 14  2  0  0  0
 11 12  2  0  0  0
 12 13  1  0  0  0
 13 14  1  0  0  0
 15 16  1  0  0  0
 22 23  1  0  0  0
  7 17  1  0  0  0
 13 18  1  0  0  0
M  END
> <minimizedAffinity>
-10.25747

$$$$
1518


 31 34  0  0  0  0  0  0  0  0999 V2000
   20.2078   77.8314   17.8919 C   0  0  0  0  0  0  0  0  0  0  0  0
   19.2846   77.0121   18.1198 O   0  0  0  0  0  0  0  0  0  0  0  0
   20.1802   79.1200   18.4748 N   0  0  0  0  0  0  0  0  0  0  0  0
   21.2139   80.1101   18.2497 C   0  0  0  0  0  0  0  0  0  0  0  0
   21.3428   80.9399   19.5185 C   0  0  0  0  0  0  0  0  0  0  0  0
   20.0479   81.7066   19.7853 C   0  0  0  0  0  0  0  0  0  0  0  0
   19.8926   81.7722   21.2096 N   0  0  0  0  0  0  0  0  0  0  0  0
   19.0073   82.8446   21.6108 C   0  0  0  0  0  0  0  0  0  0  0  0
   19.7183   84.1751   21.3736 C   0  0  0  0  0  0  0  0  0  0  0  0
   20.0074   84.2377   19.9118 C   0  0  0  0  0  0  0  0  0  0  0  0
   20.1694   85.2955   19.0618 N   0  0  0  0  0  0  0  0  0  0  0  0
   20.4159   84.8041   17.8346 C   0  0  0  0  0  0  0  0  0  0  0  0
   20.4076   83.4616   17.9170 N   0  0  0  0  0  0  0  0  0  0  0  0
   20.1559   83.0686   19.2006 C   0  0  0  0  0  0  0  0  0  0  0  0
   18.8618   80.9779   19.1903 C   0  0  0  0  0  0  0  0  0  0  0  0
   19.0831   79.5019   19.3422 C   0  0  0  0  0  0  0  0  0  0  0  0
   19.5640   80.8690   21.6040 H   0  0  0  0  0  0  0  0  0  0  0  0
   20.0978   86.2836   19.3932 H   0  0  0  0  0  0  0  0  0  0  0  0
   21.3129   77.4100   17.0021 C   0  0  0  0  0  0  0  0  0  0  0  0
   20.9552   77.4966   15.5522 C   0  0  0  0  0  0  0  0  0  0  0  0
   19.9324   75.9899   13.8224 C   0  0  0  0  0  0  0  0  0  0  0  0
   19.8868   76.9271   12.9856 O   0  0  0  0  0  0  0  0  0  0  0  0
   20.4486   76.2160   15.0987 N   0  0  0  0  0  0  0  0  0  0  0  0
   20.4954   75.4444   15.8065 H   0  0  0  0  0  0  0  0  0  0  0  0
   17.7951   70.6743   12.0192 Cl  0  0  0  0  0  0  0  0  0  0  0  0
   18.3915   72.2438   12.5215 C   0  0  0  0  0  0  0  0  0  0  0  0
   19.4296   72.2975   13.4410 C   0  0  0  0  0  0  0  0  0  0  0  0
   19.9495   73.5054   13.8806 C   0  0  0  0  0  0  0  0  0  0  0  0
   19.4285   74.6859   13.3992 C   0  0  0  0  0  0  0  0  0  0  0  0
   18.3863   74.6022   12.4768 C   0  0  0  0  0  0  0  0  0  0  0  0
   17.8624   73.4194   12.0317 C   0  0  0  0  0  0  0  0  0  0  0  0
 25 26  1  0  0  0
 26 27  2  0  0  0
 26 31  1  0  0  0
 27 28  1  0  0  0
 28 29  2  0  0  0
 29 30  1  0  0  0
 29 21  1  0  0  0
 30 31  2  0  0  0
 21 22  2  0  0  0
 21 23  1  0  0  0
 23 20  1  0  0  0
 20 19  1  0  0  0
 19  1  1  0  0  0
  1  2  2  0  0  0
  1  3  1  0  0  0
  3  4  1  0  0  0
  3 16  1  0  0  0
  4  5  1  0  0  0
  5  6  1  0  0  0
  6  7  1  0  0  0
  6 14  1  0  0  0
  6 15  1  0  0  0
  7  8  1  0  0  0
  8  9  1  0  0  0
  9 10  1  0  0  0
 10 11  1  0  0  0
 10 14  2  0  0  0
 11 12  1  0  0  0
 12 13  2  0  0  0
 13 14  1  0  0  0
 15 16  1  0  0  0
 23 24  1  0  0  0
  7 17  1  0  0  0
 11 18  1  0  0  0
M  END
> <minimizedAffinity>
-10.28382

$$$$
1521


 24 27  0  0  0  0  0  0  0  0999 V2000
   25.0763   77.1990   16.6667 Cl  0  0  0  0  0  0  0  0  0  0  0  0
   23.9383   78.5023   16.3962 C   0  0  0  0  0  0  0  0  0  0  0  0
   22.7772   78.5483   17.1289 C   0  0  0  0  0  0  0  0  0  0  0  0
   22.2371   77.7797   18.0896 N   0  0  0  0  0  0  0  0  0  0  0  0
   21.0484   78.2621   18.4985 C   0  0  0  0  0  0  0  0  0  0  0  0
   20.8337   79.3984   17.7475 C   0  0  0  0  0  0  0  0  0  0  0  0
   21.8969   79.5907   16.8920 C   0  0  0  0  0  0  0  0  0  0  0  0
   22.2110   80.5386   15.9395 C   0  0  0  0  0  0  0  0  0  0  0  0
   23.3640   80.5156   15.1946 C   0  0  0  0  0  0  0  0  0  0  0  0
   24.2450   79.4664   15.4353 C   0  0  0  0  0  0  0  0  0  0  0  0
   19.5673   80.1212   18.0228 C   0  0  0  0  0  0  0  0  0  0  0  0
   19.5474   80.2969   19.4574 N   0  0  0  0  0  0  0  0  0  0  0  0
   19.4118   79.1045   20.1994 C   0  0  0  0  0  0  0  0  0  0  0  0
   19.9888   77.9138   19.4682 C   0  0  0  0  0  0  0  0  0  0  0  0
   22.6552   76.8996   18.5038 H   0  0  0  0  0  0  0  0  0  0  0  0
   18.8927   81.4523   19.9031 C   0  0  0  0  0  0  0  0  0  0  0  0
   19.8294   82.5814   20.2080 C   0  0  0  0  0  0  0  0  0  0  0  0
   20.0529   83.4975   19.0549 C   0  0  0  0  0  0  0  0  0  0  0  0
   19.7289   84.8353   19.4135 N   0  0  0  0  0  0  0  0  0  0  0  0
   19.2334   84.8566   20.7513 C   0  0  0  0  0  0  0  0  0  0  0  0
   19.1998   83.4550   21.2596 C   0  0  0  0  0  0  0  0  0  0  0  0
   21.0321   82.1065   20.7461 O   0  0  0  0  0  0  0  0  0  0  0  0
   20.5101   85.5167   19.2628 H   0  0  0  0  0  0  0  0  0  0  0  0
   21.7119   82.8035   20.5476 H   0  0  0  0  0  0  0  0  0  0  0  0
  1  2  1  0  0  0
  2  3  2  0  0  0
  2 10  1  0  0  0
  3  4  1  0  0  0
  3  7  1  0  0  0
  4  5  1  0  0  0
  5  6  2  0  0  0
  5 14  1  0  0  0
  6  7  1  0  0  0
  6 11  1  0  0  0
  7  8  2  0  0  0
  8  9  1  0  0  0
  9 10  2  0  0  0
 11 12  1  0  0  0
 12 13  1  0  0  0
 12 16  1  0  0  0
 13 14  1  0  0  0
 16 17  1  0  0  0
 17 18  1  0  0  0
 17 21  1  0  0  0
 17 22  1  0  0  0
 18 19  1  0  0  0
 19 20  1  0  0  0
 20 21  1  0  0  0
  4 15  1  0  0  0
 19 23  1  0  0  0
 22 24  1  0  0  0
M  END
> <minimizedAffinity>
-9.30478

$$$$
1523


 25 28  0  0  0  0  0  0  0  0999 V2000
   19.4789   77.5143   16.8346 C   0  0  0  0  0  0  0  0  0  0  0  0
   18.3486   76.9449   16.6381 O   0  0  0  0  0  0  0  0  0  0  0  0
   20.5699   77.2268   16.0135 N   0  0  0  0  0  0  0  0  0  0  0  0
   20.4254   76.2794   14.9429 C   0  0  0  0  0  0  0  0  0  0  0  0
   20.5684   77.0119   13.6375 C   0  0  0  0  0  0  0  0  0  0  0  0
   21.6877   77.9068   13.7117 N   0  0  0  0  0  0  0  0  0  0  0  0
   22.6291   77.6563   14.8206 C   0  0  0  0  0  0  0  0  0  0  0  0
   21.8868   77.8110   16.1407 C   0  0  0  0  0  0  0  0  0  0  0  0
   21.9830   78.9793   12.8703 C   0  0  0  0  0  0  0  0  0  0  0  0
   23.0874   79.6033   13.1458 O   0  0  0  0  0  0  0  0  0  0  0  0
   19.6082   80.3511   19.1463 N   0  0  0  0  0  0  0  0  0  0  0  0
   19.5155   79.2994   19.9670 N   0  0  0  0  0  0  0  0  0  0  0  0
   19.4583   78.1819   19.2776 N   0  0  0  0  0  0  0  0  0  0  0  0
   19.5131   78.4665   17.9686 C   0  0  0  0  0  0  0  0  0  0  0  0
   19.6069   79.8369   17.9051 C   0  0  0  0  0  0  0  0  0  0  0  0
   18.9353   83.9951   22.9351 Br  0  0  0  0  0  0  0  0  0  0  0  0
   19.4248   83.4448   21.1768 C   0  0  0  0  0  0  0  0  0  0  0  0
   19.3356   82.0946   20.8081 C   0  0  0  0  0  0  0  0  0  0  0  0
   19.6909   81.7109   19.5376 C   0  0  0  0  0  0  0  0  0  0  0  0
   20.1283   82.6631   18.6548 C   0  0  0  0  0  0  0  0  0  0  0  0
   20.2206   84.0139   19.0133 C   0  0  0  0  0  0  0  0  0  0  0  0
   19.8626   84.3880   20.2858 C   0  0  0  0  0  0  0  0  0  0  0  0
   21.2521   79.5150   11.7281 C   0  0  0  0  0  0  0  0  0  0  0  0
   21.8339   80.3910   10.7109 C   0  0  0  0  0  0  0  0  0  0  0  0
   21.3552   78.9889   10.3449 C   0  0  0  0  0  0  0  0  0  0  0  0
 16 17  1  0  0  0
 17 18  2  0  0  0
 17 22  1  0  0  0
 18 19  1  0  0  0
 19 20  2  0  0  0
 19 11  1  0  0  0
 20 21  1  0  0  0
 21 22  2  0  0  0
 11 12  1  0  0  0
 11 15  1  0  0  0
 12 13  2  0  0  0
 13 14  1  0  0  0
 14 15  2  0  0  0
 14  1  1  0  0  0
  1  2  2  0  0  0
  1  3  1  0  0  0
  3  4  1  0  0  0
  3  8  1  0  0  0
  4  5  1  0  0  0
  5  6  1  0  0  0
  6  7  1  0  0  0
  6  9  1  0  0  0
  7  8  1  0  0  0
  9 10  2  0  0  0
  9 23  1  0  0  0
 23 24  1  0  0  0
 23 25  1  0  0  0
 24 25  1  0  0  0
M  END
> <minimizedAffinity>
-10.05955

$$$$
1525


 26 29  0  0  0  0  0  0  0  0999 V2000
   19.6416   81.3217   19.2331 N   0  0  0  0  0  0  0  0  0  0  0  0
   20.2192   81.7320   17.9999 C   0  0  0  0  0  0  0  0  0  0  0  0
   20.5053   82.9243   17.7337 O   0  0  0  0  0  0  0  0  0  0  0  0
   20.3830   80.5309   17.1897 C   0  0  0  0  0  0  0  0  0  0  0  0
   19.2536   79.6407   17.6641 C   0  0  0  0  0  0  0  0  0  0  0  0
   18.9708   80.0693   19.0472 C   0  0  0  0  0  0  0  0  0  0  0  0
   18.2785   79.4689   19.9112 O   0  0  0  0  0  0  0  0  0  0  0  0
   17.6178   84.9181   22.6405 Br  0  0  0  0  0  0  0  0  0  0  0  0
   18.9271   83.6643   22.0615 C   0  0  0  0  0  0  0  0  0  0  0  0
   18.7868   82.9686   20.8638 C   0  0  0  0  0  0  0  0  0  0  0  0
   19.7399   82.0618   20.4506 C   0  0  0  0  0  0  0  0  0  0  0  0
   20.8322   81.8883   21.2933 C   0  0  0  0  0  0  0  0  0  0  0  0
   20.9882   82.5628   22.4734 C   0  0  0  0  0  0  0  0  0  0  0  0
   20.0267   83.4615   22.8669 C   0  0  0  0  0  0  0  0  0  0  0  0
   21.6404   79.9003   17.2419 N   0  0  0  0  0  0  0  0  0  0  0  0
   22.5978   80.2491   16.2719 C   0  0  0  0  0  0  0  0  0  0  0  0
   22.5558   79.2071   15.1455 C   0  0  0  0  0  0  0  0  0  0  0  0
   21.8679   78.0121   15.6072 N   0  0  0  0  0  0  0  0  0  0  0  0
   21.9822   77.5393   16.9726 C   0  0  0  0  0  0  0  0  0  0  0  0
   21.8124   78.6975   17.9272 C   0  0  0  0  0  0  0  0  0  0  0  0
   21.0248   77.2591   14.7244 C   0  0  0  0  0  0  0  0  0  0  0  0
   20.9175   77.5853   13.4193 N   0  0  0  0  0  0  0  0  0  0  0  0
   20.1369   76.8634   12.5916 C   0  0  0  0  0  0  0  0  0  0  0  0
   19.4186   75.7634   13.0461 C   0  0  0  0  0  0  0  0  0  0  0  0
   19.5342   75.4342   14.3850 C   0  0  0  0  0  0  0  0  0  0  0  0
   20.3291   76.1933   15.1598 N   0  0  0  0  0  0  0  0  0  0  0  0
  8  9  1  0  0  0
  9 10  2  0  0  0
  9 14  1  0  0  0
 10 11  1  0  0  0
 11 12  2  0  0  0
 11  1  1  0  0  0
 12 13  1  0  0  0
 13 14  2  0  0  0
  1  2  1  0  0  0
  1  6  1  0  0  0
  2  3  2  0  0  0
  2  4  1  0  0  0
  4  5  1  0  0  0
  4 15  1  0  0  0
  5  6  1  0  0  0
  6  7  2  0  0  0
 15 16  1  0  0  0
 15 20  1  0  0  0
 16 17  1  0  0  0
 17 18  1  0  0  0
 18 19  1  0  0  0
 18 21  1  0  0  0
 19 20  1  0  0  0
 21 22  2  0  0  0
 21 26  1  0  0  0
 22 23  1  0  0  0
 23 24  2  0  0  0
 24 25  1  0  0  0
 25 26  2  0  0  0
M  END
> <minimizedAffinity>
-10.27876

$$$$
1531


 27 30  0  0  0  0  0  0  0  0999 V2000
   22.2280   79.2730   16.9829 N   0  0  0  0  0  0  0  0  0  0  0  0
   23.5632   79.1568   16.6985 C   0  0  0  0  0  0  0  0  0  0  0  0
   23.6648   79.1596   15.3672 N   0  0  0  0  0  0  0  0  0  0  0  0
   22.4682   79.2703   14.7665 C   0  0  0  0  0  0  0  0  0  0  0  0
   21.5540   79.3423   15.8024 C   0  0  0  0  0  0  0  0  0  0  0  0
   25.0622   79.0375   14.9654 C   0  0  0  0  0  0  0  0  0  0  0  0
   25.8256   78.8472   16.2434 C   0  0  0  0  0  0  0  0  0  0  0  0
   24.8782   79.0367   17.3735 C   0  0  0  0  0  0  0  0  0  0  0  0
   22.1450   79.3105   13.3411 C   0  0  0  0  0  0  0  0  0  0  0  0
   22.5913   80.2669   12.4652 C   0  0  0  0  0  0  0  0  0  0  0  0
   22.2387   80.2375   11.1084 C   0  0  0  0  0  0  0  0  0  0  0  0
   21.4294   79.2522   10.5880 C   0  0  0  0  0  0  0  0  0  0  0  0
   20.9751   78.2871   11.4602 C   0  0  0  0  0  0  0  0  0  0  0  0
   21.3241   78.3179   12.7944 C   0  0  0  0  0  0  0  0  0  0  0  0
   21.0724   79.2109    9.2474 O   0  0  0  0  0  0  0  0  0  0  0  0
   20.4629   78.0546    8.7017 C   0  0  0  0  0  0  0  0  0  0  0  0
   21.6501   79.3572   18.2809 C   0  0  0  0  0  0  0  0  0  0  0  0
   20.3993   80.0421   18.5088 C   0  0  0  0  0  0  0  0  0  0  0  0
   19.3412   79.4092   18.0405 O   0  0  0  0  0  0  0  0  0  0  0  0
   20.3636   85.1735   18.0723 Cl  0  0  0  0  0  0  0  0  0  0  0  0
   20.0580   83.7279   18.9974 C   0  0  0  0  0  0  0  0  0  0  0  0
   19.5526   83.8547   20.2710 C   0  0  0  0  0  0  0  0  0  0  0  0
   19.3176   82.7070   20.9878 C   0  0  0  0  0  0  0  0  0  0  0  0
   19.5941   81.4596   20.4090 C   0  0  0  0  0  0  0  0  0  0  0  0
   20.0938   81.2908   19.1536 C   0  0  0  0  0  0  0  0  0  0  0  0
   20.3160   82.5085   18.4633 C   0  0  0  0  0  0  0  0  0  0  0  0
   19.2093   85.4121   20.9875 Cl  0  0  0  0  0  0  0  0  0  0  0  0
 20 21  1  0  0  0
 21 22  2  0  0  0
 21 26  1  0  0  0
 22 23  1  0  0  0
 22 27  1  0  0  0
 23 24  2  0  0  0
 24 25  1  0  0  0
 25 26  2  0  0  0
 25 18  1  0  0  0
 18 19  2  0  0  0
 18 17  1  0  0  0
 17  1  1  0  0  0
  1  2  1  0  0  0
  1  5  1  0  0  0
  2  3  2  0  0  0
  2  8  1  0  0  0
  3  4  1  0  0  0
  3  6  1  0  0  0
  4  5  2  0  0  0
  4  9  1  0  0  0
  9 10  2  0  0  0
  9 14  1  0  0  0
 10 11  1  0  0  0
 11 12  2  0  0  0
 12 13  1  0  0  0
 12 15  1  0  0  0
 13 14  2  0  0  0
 15 16  1  0  0  0
  6  7  1  0  0  0
  7  8  1  0  0  0
M  END
> <minimizedAffinity>
-10.41275

$$$$
1533


 28 31  0  0  0  0  0  0  0  0999 V2000
   20.6900   77.3874   15.8325 C   0  0  0  0  0  0  0  0  0  0  0  0
   21.8946   77.9383   16.1325 N   0  0  0  0  0  0  0  0  0  0  0  0
   21.8656   78.4144   17.3817 C   0  0  0  0  0  0  0  0  0  0  0  0
   20.6373   78.1858   17.9395 N   0  0  0  0  0  0  0  0  0  0  0  0
   19.9328   77.5596   16.9823 C   0  0  0  0  0  0  0  0  0  0  0  0
   23.1596   79.0350   17.7436 C   0  0  0  0  0  0  0  0  0  0  0  0
   24.0939   78.3793   16.7648 C   0  0  0  0  0  0  0  0  0  0  0  0
   23.2164   78.1772   15.5512 C   0  0  0  0  0  0  0  0  0  0  0  0
   20.0859   77.3543   10.6430 Cl  0  0  0  0  0  0  0  0  0  0  0  0
   19.8961   76.6458   12.2323 C   0  0  0  0  0  0  0  0  0  0  0  0
   19.2686   75.4393   12.3364 C   0  0  0  0  0  0  0  0  0  0  0  0
   19.1058   74.8595   13.5732 C   0  0  0  0  0  0  0  0  0  0  0  0
   19.5898   75.5233   14.7034 C   0  0  0  0  0  0  0  0  0  0  0  0
   20.2241   76.7413   14.6055 C   0  0  0  0  0  0  0  0  0  0  0  0
   20.3727   77.2946   13.3673 C   0  0  0  0  0  0  0  0  0  0  0  0
   18.6494   74.5848   10.9221 Cl  0  0  0  0  0  0  0  0  0  0  0  0
   20.1973   78.5850   19.2446 C   0  0  0  0  0  0  0  0  0  0  0  0
   19.4054   79.7636   19.4677 C   0  0  0  0  0  0  0  0  0  0  0  0
   18.1879   79.4944   19.9295 O   0  0  0  0  0  0  0  0  0  0  0  0
   19.6386   81.1759   19.3019 C   0  0  0  0  0  0  0  0  0  0  0  0
   19.1470   82.0852   20.2657 C   0  0  0  0  0  0  0  0  0  0  0  0
   19.3197   83.4428   20.1957 C   0  0  0  0  0  0  0  0  0  0  0  0
   20.0201   83.9214   19.1070 C   0  0  0  0  0  0  0  0  0  0  0  0
   20.5095   83.0561   18.1542 C   0  0  0  0  0  0  0  0  0  0  0  0
   20.3300   81.6736   18.2310 C   0  0  0  0  0  0  0  0  0  0  0  0
   18.8184   84.3363   21.1719 N   0  0  0  0  0  0  0  0  0  0  0  0
   18.4845   85.4769   20.8336 O   0  0  0  0  0  0  0  0  0  0  0  0
   18.6916   83.9750   22.4816 O   0  0  0  0  0  0  0  0  0  0  0  0
  9 10  1  0  0  0
 10 11  2  0  0  0
 10 15  1  0  0  0
 11 12  1  0  0  0
 11 16  1  0  0  0
 12 13  2  0  0  0
 13 14  1  0  0  0
 14 15  2  0  0  0
 14  1  1  0  0  0
  1  2  1  0  0  0
  1  5  2  0  0  0
  2  3  2  0  0  0
  2  8  1  0  0  0
  3  4  1  0  0  0
  3  6  1  0  0  0
  4  5  1  0  0  0
  4 17  1  0  0  0
 17 18  1  0  0  0
 18 19  2  0  0  0
 18 20  1  0  0  0
 20 21  2  0  0  0
 20 25  1  0  0  0
 21 22  1  0  0  0
 22 23  2  0  0  0
 22 26  1  0  0  0
 23 24  1  0  0  0
 24 25  2  0  0  0
 26 27  2  0  0  0
 26 28  1  0  0  0
  6  7  1  0  0  0
  7  8  1  0  0  0
M  CHG 1  28  -1
M  END
> <minimizedAffinity>
-10.61293

$$$$
1535


 28 31  0  0  0  0  0  0  0  0999 V2000
   20.7810   77.5040   15.8983 C   0  0  0  0  0  0  0  0  0  0  0  0
   21.9822   78.0306   16.1861 N   0  0  0  0  0  0  0  0  0  0  0  0
   21.9622   78.5425   17.4345 C   0  0  0  0  0  0  0  0  0  0  0  0
   20.7357   78.3381   17.9473 N   0  0  0  0  0  0  0  0  0  0  0  0
   19.9662   77.6936   17.0252 C   0  0  0  0  0  0  0  0  0  0  0  0
   23.2792   79.1376   17.7600 C   0  0  0  0  0  0  0  0  0  0  0  0
   24.1677   78.2652   16.9107 C   0  0  0  0  0  0  0  0  0  0  0  0
   23.3228   78.2367   15.6253 C   0  0  0  0  0  0  0  0  0  0  0  0
   20.1613   77.4165   10.7403 Cl  0  0  0  0  0  0  0  0  0  0  0  0
   19.9381   76.6841   12.2977 C   0  0  0  0  0  0  0  0  0  0  0  0
   19.2919   75.4836   12.4204 C   0  0  0  0  0  0  0  0  0  0  0  0
   19.1436   74.9525   13.6792 C   0  0  0  0  0  0  0  0  0  0  0  0
   19.6323   75.6107   14.7763 C   0  0  0  0  0  0  0  0  0  0  0  0
   20.2980   76.8371   14.6881 C   0  0  0  0  0  0  0  0  0  0  0  0
   20.4328   77.3457   13.4389 C   0  0  0  0  0  0  0  0  0  0  0  0
   18.6638   74.6341   11.0253 Cl  0  0  0  0  0  0  0  0  0  0  0  0
   20.2848   78.7583   19.2227 C   0  0  0  0  0  0  0  0  0  0  0  0
   19.4360   79.8969   19.4263 C   0  0  0  0  0  0  0  0  0  0  0  0
   18.2228   79.5427   19.8004 O   0  0  0  0  0  0  0  0  0  0  0  0
   19.6527   81.3188   19.3006 C   0  0  0  0  0  0  0  0  0  0  0  0
   19.2329   82.2614   20.1995 C   0  0  0  0  0  0  0  0  0  0  0  0
   19.4808   83.6244   20.0116 C   0  0  0  0  0  0  0  0  0  0  0  0
   20.1553   84.0501   18.9128 C   0  0  0  0  0  0  0  0  0  0  0  0
   20.5898   83.1225   17.9912 C   0  0  0  0  0  0  0  0  0  0  0  0
   20.3530   81.7860   18.1651 C   0  0  0  0  0  0  0  0  0  0  0  0
   19.0156   84.5576   20.9884 N   0  0  0  0  0  0  0  0  0  0  0  0
   19.1638   85.7758   20.7893 O   0  0  0  0  0  0  0  0  0  0  0  0
   18.4124   84.1551   22.1366 O   0  0  0  0  0  0  0  0  0  0  0  0
  9 10  1  0  0  0
 10 11  2  0  0  0
 10 15  1  0  0  0
 11 12  1  0  0  0
 11 16  1  0  0  0
 12 13  2  0  0  0
 13 14  1  0  0  0
 14 15  2  0  0  0
 14  1  1  0  0  0
  1  2  1  0  0  0
  1  5  2  0  0  0
  2  3  1  0  0  0
  2  8  1  0  0  0
  3  4  2  0  0  0
  3  6  1  0  0  0
  4  5  1  0  0  0
  4 17  1  0  0  0
 17 18  1  0  0  0
 18 19  2  0  0  0
 18 20  1  0  0  0
 20 21  2  0  0  0
 20 25  1  0  0  0
 21 22  1  0  0  0
 22 23  2  0  0  0
 22 26  1  0  0  0
 23 24  1  0  0  0
 24 25  2  0  0  0
 26 27  2  0  0  0
 26 28  1  0  0  0
  6  7  1  0  0  0
  7  8  1  0  0  0
M  CHG 1  28  -1
M  END
> <minimizedAffinity>
-10.41609

$$$$
1536


 31 34  0  0  0  0  0  0  0  0999 V2000
   21.6675   78.7405   16.9122 S   0  0  0  0  0  0  0  0  0  0  0  0
   22.0766   77.5769   17.8212 O   0  0  0  0  0  0  0  0  0  0  0  0
   20.7267   78.0777   15.9030 O   0  0  0  0  0  0  0  0  0  0  0  0
   20.7768   79.8347   17.9297 C   0  0  0  0  0  0  0  0  0  0  0  0
   20.8151   81.2121   17.6529 C   0  0  0  0  0  0  0  0  0  0  0  0
   20.1811   82.1398   18.4377 C   0  0  0  0  0  0  0  0  0  0  0  0
   19.4813   81.7315   19.5311 C   0  0  0  0  0  0  0  0  0  0  0  0
   19.4076   80.3996   19.8506 C   0  0  0  0  0  0  0  0  0  0  0  0
   20.0611   79.4746   19.0341 C   0  0  0  0  0  0  0  0  0  0  0  0
   19.8687   77.7787   19.4446 Cl  0  0  0  0  0  0  0  0  0  0  0  0
   18.8269   82.7197   20.3455 N   0  0  0  0  0  0  0  0  0  0  0  0
   18.9241   84.0893   19.9945 C   0  0  0  0  0  0  0  0  0  0  0  0
   18.1023   84.9328   20.4094 O   0  0  0  0  0  0  0  0  0  0  0  0
   20.0474   84.4916   19.1081 C   0  0  0  0  0  0  0  0  0  0  0  0
   20.2421   83.5051   18.1300 O   0  0  0  0  0  0  0  0  0  0  0  0
   18.2897   82.4169   21.1820 H   0  0  0  0  0  0  0  0  0  0  0  0
   23.0179   79.2937   16.1360 N   0  0  0  0  0  0  0  0  0  0  0  0
   23.0767   80.4738   15.4037 C   0  0  0  0  0  0  0  0  0  0  0  0
   22.7995   80.3704   13.9384 C   0  0  0  0  0  0  0  0  0  0  0  0
   23.0596   78.9361   13.4831 C   0  0  0  0  0  0  0  0  0  0  0  0
   24.3506   78.5523   14.2244 C   0  0  0  0  0  0  0  0  0  0  0  0
   23.9124   78.2506   15.6488 C   0  0  0  0  0  0  0  0  0  0  0  0
   23.2098   78.8334   12.0418 C   0  0  0  0  0  0  0  0  0  0  0  0
   24.3620   78.8456   11.5346 O   0  0  0  0  0  0  0  0  0  0  0  0
   22.1024   78.7179   11.1953 N   0  0  0  0  0  0  0  0  0  0  0  0
   22.2204   78.5730    9.7399 C   0  0  0  0  0  0  0  0  0  0  0  0
   20.8164   78.6906    9.1852 C   0  0  0  0  0  0  0  0  0  0  0  0
   19.9832   77.6160    9.6894 N   0  0  0  0  0  0  0  0  0  0  0  0
   19.9047   77.6437   11.1392 C   0  0  0  0  0  0  0  0  0  0  0  0
   20.7630   78.7584   11.7114 C   0  0  0  0  0  0  0  0  0  0  0  0
   18.6612   77.6649    9.1033 C   0  0  0  0  0  0  0  0  0  0  0  0
  1  2  2  0  0  0
  1  3  2  0  0  0
  1 17  1  0  0  0
  1  4  1  0  0  0
 17 18  1  0  0  0
 17 22  1  0  0  0
 18 19  1  0  0  0
 19 20  1  0  0  0
 20 21  1  0  0  0
 20 23  1  0  0  0
 21 22  1  0  0  0
 23 24  2  0  0  0
 23 25  1  0  0  0
 25 26  1  0  0  0
 25 30  1  0  0  0
 26 27  1  0  0  0
 27 28  1  0  0  0
 28 29  1  0  0  0
 28 31  1  0  0  0
 29 30  1  0  0  0
  4  5  2  0  0  0
  4  9  1  0  0  0
  5  6  1  0  0  0
  6  7  2  0  0  0
  6 15  1  0  0  0
  7  8  1  0  0  0
  7 11  1  0  0  0
  8  9  2  0  0  0
  9 10  1  0  0  0
 11 12  1  0  0  0
 12 13  2  0  0  0
 12 14  1  0  0  0
 14 15  1  0  0  0
 11 16  1  0  0  0
M  END
> <minimizedAffinity>
-10.92640

$$$$
1539


 34 37  0  0  0  0  0  0  0  0999 V2000
   20.5255   79.5222    9.8335 C   0  0  0  0  0  0  0  0  0  0  0  0
   20.3529   78.1299    9.3993 N   0  0  0  0  0  0  0  0  0  0  0  0
   19.9630   77.4264   10.5700 C   0  0  0  0  0  0  0  0  0  0  0  0
   19.2763   76.3930   10.6236 O   0  0  0  0  0  0  0  0  0  0  0  0
   20.5316   78.1610   11.6957 C   0  0  0  0  0  0  0  0  0  0  0  0
   20.4647   77.9374   12.9407 O   0  0  0  0  0  0  0  0  0  0  0  0
   21.2555   79.3016   11.1155 C   0  0  0  0  0  0  0  0  0  0  0  0
   22.2708   79.9473   11.6552 C   0  0  0  0  0  0  0  0  0  0  0  0
   22.8040   81.0404   10.9667 O   0  0  0  0  0  0  0  0  0  0  0  0
   14.9427   81.6662   10.8931 Cl  0  0  0  0  0  0  0  0  0  0  0  0
   16.5618   81.0423   10.5835 C   0  0  0  0  0  0  0  0  0  0  0  0
   17.6443   81.4503   11.3415 C   0  0  0  0  0  0  0  0  0  0  0  0
   18.9046   80.9532   11.0864 C   0  0  0  0  0  0  0  0  0  0  0  0
   19.1585   80.0403   10.0853 C   0  0  0  0  0  0  0  0  0  0  0  0
   18.0506   79.6388    9.3285 C   0  0  0  0  0  0  0  0  0  0  0  0
   16.7917   80.1330    9.5808 C   0  0  0  0  0  0  0  0  0  0  0  0
   22.8624   79.5703   12.9305 C   0  0  0  0  0  0  0  0  0  0  0  0
   22.3890   80.0581   14.1374 C   0  0  0  0  0  0  0  0  0  0  0  0
   22.9697   79.7190   15.3418 C   0  0  0  0  0  0  0  0  0  0  0  0
   24.0633   78.8657   15.3865 C   0  0  0  0  0  0  0  0  0  0  0  0
   24.5435   78.3743   14.1943 C   0  0  0  0  0  0  0  0  0  0  0  0
   23.9467   78.7253   12.9796 C   0  0  0  0  0  0  0  0  0  0  0  0
   22.4299   80.2652   16.6065 C   0  0  0  0  0  0  0  0  0  0  0  0
   24.6601   78.5129   16.5940 O   0  0  0  0  0  0  0  0  0  0  0  0
   25.8824   79.0986   16.9455 C   0  0  0  0  0  0  0  0  0  0  0  0
   20.5405   77.5969    8.0495 C   0  0  0  0  0  0  0  0  0  0  0  0
   19.2060   77.7165    7.3506 C   0  0  0  0  0  0  0  0  0  0  0  0
   18.3189   76.6289    7.6640 N   0  0  0  0  0  0  0  0  0  0  0  0
   18.9069   75.3744    7.3237 C   0  0  0  0  0  0  0  0  0  0  0  0
   18.5231   74.8080    5.9973 C   0  0  0  0  0  0  0  0  0  0  0  0
   17.2524   75.1015    5.5818 O   0  0  0  0  0  0  0  0  0  0  0  0
   16.9649   76.4598    5.6113 C   0  0  0  0  0  0  0  0  0  0  0  0
   17.0452   76.8885    7.0532 C   0  0  0  0  0  0  0  0  0  0  0  0
   18.2070   76.6500    8.7174 H   0  0  0  0  0  0  0  0  0  0  0  0
 10 11  1  0  0  0
 11 12  2  0  0  0
 11 16  1  0  0  0
 12 13  1  0  0  0
 13 14  2  0  0  0
 14 15  1  0  0  0
 14  1  1  0  0  0
 15 16  2  0  0  0
  1  2  1  0  0  0
  1  7  1  0  0  0
  2  3  1  0  0  0
  2 26  1  0  0  0
  3  4  2  0  0  0
  3  5  1  0  0  0
  5  6  2  0  0  0
  5  7  1  0  0  0
  7  8  2  0  0  0
  8  9  1  0  0  0
  8 17  1  0  0  0
 17 18  2  0  0  0
 17 22  1  0  0  0
 18 19  1  0  0  0
 19 20  2  0  0  0
 19 23  1  0  0  0
 20 21  1  0  0  0
 20 24  1  0  0  0
 21 22  2  0  0  0
 24 25  1  0  0  0
 26 27  1  0  0  0
 27 28  1  0  0  0
 28 29  1  0  0  0
 28 33  1  0  0  0
 29 30  1  0  0  0
 30 31  1  0  0  0
 31 32  1  0  0  0
 32 33  1  0  0  0
 28 34  1  0  0  0
M  CHG 1   9  -1
M  CHG 1  28   1
M  END
> <minimizedAffinity>
-7.80711

$$$$
1548


 24 27  0  0  0  0  0  0  0  0999 V2000
   18.8621   82.8794   21.6417 Cl  0  0  0  0  0  0  0  0  0  0  0  0
   19.5712   82.3160   20.1355 C   0  0  0  0  0  0  0  0  0  0  0  0
   19.6670   80.9769   19.8256 C   0  0  0  0  0  0  0  0  0  0  0  0
   20.2188   80.5420   18.6549 N   0  0  0  0  0  0  0  0  0  0  0  0
   20.6978   81.4060   17.7416 C   0  0  0  0  0  0  0  0  0  0  0  0
   21.2467   80.9761   16.5778 N   0  0  0  0  0  0  0  0  0  0  0  0
   21.3370   79.6622   16.2809 C   0  0  0  0  0  0  0  0  0  0  0  0
   20.8604   78.7579   17.1849 C   0  0  0  0  0  0  0  0  0  0  0  0
   20.9348   77.2875   16.9060 C   0  0  0  0  0  0  0  0  0  0  0  0
   20.9130   77.1808   15.4368 N   0  0  0  0  0  0  0  0  0  0  0  0
   22.0262   77.8158   14.7906 C   0  0  0  0  0  0  0  0  0  0  0  0
   21.9584   79.3218   14.9739 C   0  0  0  0  0  0  0  0  0  0  0  0
   19.8497   76.4994   14.8520 C   0  0  0  0  0  0  0  0  0  0  0  0
   18.9524   75.9959   15.6132 O   0  0  0  0  0  0  0  0  0  0  0  0
   20.3052   79.2312   18.3660 C   0  0  0  0  0  0  0  0  0  0  0  0
   19.8673   78.4124   19.1980 O   0  0  0  0  0  0  0  0  0  0  0  0
   20.6056   82.7557   18.0454 C   0  0  0  0  0  0  0  0  0  0  0  0
   20.0542   83.2244   19.2187 C   0  0  0  0  0  0  0  0  0  0  0  0
   19.6490   76.2947   13.4125 C   0  0  0  0  0  0  0  0  0  0  0  0
   19.9778   77.2188   12.5052 N   0  0  0  0  0  0  0  0  0  0  0  0
   19.7915   77.0240   11.1963 C   0  0  0  0  0  0  0  0  0  0  0  0
   19.2473   75.8551   10.7058 C   0  0  0  0  0  0  0  0  0  0  0  0
   18.9229   74.9369   11.6325 N   0  0  0  0  0  0  0  0  0  0  0  0
   19.0981   75.1069   12.9432 C   0  0  0  0  0  0  0  0  0  0  0  0
  1  2  1  0  0  0
  2  3  2  0  0  0
  2 18  1  0  0  0
  3  4  1  0  0  0
  4  5  1  0  0  0
  4 15  1  0  0  0
  5  6  2  0  0  0
  5 17  1  0  0  0
  6  7  1  0  0  0
  7  8  2  0  0  0
  7 12  1  0  0  0
  8  9  1  0  0  0
  8 15  1  0  0  0
  9 10  1  0  0  0
 10 11  1  0  0  0
 10 13  1  0  0  0
 11 12  1  0  0  0
 13 14  2  0  0  0
 13 19  1  0  0  0
 19 20  2  0  0  0
 19 24  1  0  0  0
 20 21  1  0  0  0
 21 22  2  0  0  0
 22 23  1  0  0  0
 23 24  2  0  0  0
 15 16  2  0  0  0
 17 18  2  0  0  0
M  END
> <minimizedAffinity>
-8.76676

$$$$
1553


 29 32  0  0  0  0  0  0  0  0999 V2000
   19.7058   76.6659    7.9012 C   0  0  0  0  0  0  0  0  0  0  0  0
   20.4167   77.8724    8.0973 N   0  0  0  0  0  0  0  0  0  0  0  0
   20.9722   78.0943    9.4004 C   0  0  0  0  0  0  0  0  0  0  0  0
   19.8559   77.9566   10.4495 C   0  0  0  0  0  0  0  0  0  0  0  0
   19.4529   76.5407   10.3510 C   0  0  0  0  0  0  0  0  0  0  0  0
   19.1056   75.6145   11.3212 C   0  0  0  0  0  0  0  0  0  0  0  0
   18.8292   74.4398   10.6577 C   0  0  0  0  0  0  0  0  0  0  0  0
   18.9950   74.6202    9.3383 N   0  0  0  0  0  0  0  0  0  0  0  0
   19.3827   75.9232    9.1413 C   0  0  0  0  0  0  0  0  0  0  0  0
   18.4543   73.3444   11.4143 C   0  0  0  0  0  0  0  0  0  0  0  0
   18.3740   73.4748   12.7785 C   0  0  0  0  0  0  0  0  0  0  0  0
   18.6512   74.6503   13.4391 C   0  0  0  0  0  0  0  0  0  0  0  0
   19.0301   75.7617   12.6896 C   0  0  0  0  0  0  0  0  0  0  0  0
   21.2351   77.8789    7.4081 H   0  0  0  0  0  0  0  0  0  0  0  0
   19.8731   78.7388    7.8560 H   0  0  0  0  0  0  0  0  0  0  0  0
   18.8661   73.9310    8.5532 H   0  0  0  0  0  0  0  0  0  0  0  0
   15.7450   75.1284    4.5654 Br  0  0  0  0  0  0  0  0  0  0  0  0
   16.5637   76.3788    5.7594 C   0  0  0  0  0  0  0  0  0  0  0  0
   17.7871   76.0742    6.3647 C   0  0  0  0  0  0  0  0  0  0  0  0
   18.3910   76.9713    7.2275 C   0  0  0  0  0  0  0  0  0  0  0  0
   17.7457   78.1677    7.4654 C   0  0  0  0  0  0  0  0  0  0  0  0
   16.5313   78.4626    6.8595 C   0  0  0  0  0  0  0  0  0  0  0  0
   15.9334   77.5687    6.0018 C   0  0  0  0  0  0  0  0  0  0  0  0
   15.6771   80.1494    7.2253 Br  0  0  0  0  0  0  0  0  0  0  0  0
   18.3305   74.8564    6.0506 O   0  0  0  0  0  0  0  0  0  0  0  0
   19.1803   74.4873    6.3792 H   0  0  0  0  0  0  0  0  0  0  0  0
   21.5869   79.4358    9.4613 C   0  0  0  0  0  0  0  0  0  0  0  0
   20.8626   80.4263    9.7395 O   0  0  0  0  0  0  0  0  0  0  0  0
   22.9418   79.5781    9.2113 O   0  0  0  0  0  0  0  0  0  0  0  0
 17 18  1  0  0  0
 18 19  2  0  0  0
 18 23  1  0  0  0
 19 20  1  0  0  0
 19 25  1  0  0  0
 20 21  2  0  0  0
 20  1  1  0  0  0
 21 22  1  0  0  0
 22 23  2  0  0  0
 22 24  1  0  0  0
  1  2  1  0  0  0
  1  9  1  0  0  0
  2  3  1  0  0  0
  3  4  1  0  0  0
  3 27  1  0  0  0
  4  5  1  0  0  0
  5  6  1  0  0  0
  5  9  2  0  0  0
  6  7  2  0  0  0
  6 13  1  0  0  0
  7  8  1  0  0  0
  7 10  1  0  0  0
  8  9  1  0  0  0
 10 11  2  0  0  0
 11 12  1  0  0  0
 12 13  2  0  0  0
 27 28  2  0  0  0
 27 29  1  0  0  0
  2 14  1  0  0  0
  2 15  1  0  0  0
  8 16  1  0  0  0
 25 26  1  0  0  0
M  CHG 1   2   1
M  END
> <minimizedAffinity>
-9.83005

$$$$
1571


 28 31  0  0  0  0  0  0  0  0999 V2000
   21.3239   79.2367   12.1681 O   0  0  0  0  0  0  0  0  0  0  0  0
   22.6747   78.9794   12.2131 C   0  0  0  0  0  0  0  0  0  0  0  0
   23.2300   78.7483   11.1015 O   0  0  0  0  0  0  0  0  0  0  0  0
   23.4513   78.9698   13.4819 C   0  0  0  0  0  0  0  0  0  0  0  0
   22.5703   79.0096   14.6503 N   0  0  0  0  0  0  0  0  0  0  0  0
   21.7502   77.9571   15.1507 C   0  0  0  0  0  0  0  0  0  0  0  0
   21.7749   76.7561   14.7830 O   0  0  0  0  0  0  0  0  0  0  0  0
   20.8595   78.5300   16.1866 C   0  0  0  0  0  0  0  0  0  0  0  0
   21.7466   79.6225   16.7362 C   0  0  0  0  0  0  0  0  0  0  0  0
   22.8363   79.0943   17.6487 C   0  0  0  0  0  0  0  0  0  0  0  0
   22.6901   77.6272   17.9548 C   0  0  0  0  0  0  0  0  0  0  0  0
   21.2752   77.2903   18.3316 C   0  0  0  0  0  0  0  0  0  0  0  0
   20.3680   77.5636   17.1850 C   0  0  0  0  0  0  0  0  0  0  0  0
   22.3727   80.1307   15.4938 C   0  0  0  0  0  0  0  0  0  0  0  0
   22.6816   81.3313   15.2145 O   0  0  0  0  0  0  0  0  0  0  0  0
   20.4834   78.9860   11.0767 C   0  0  0  0  0  0  0  0  0  0  0  0
   17.5207   71.2722   12.1424 Br  0  0  0  0  0  0  0  0  0  0  0  0
   18.2108   73.0714   12.1703 C   0  0  0  0  0  0  0  0  0  0  0  0
   18.4781   73.7453   11.0025 C   0  0  0  0  0  0  0  0  0  0  0  0
   18.9582   74.9967   10.9885 N   0  0  0  0  0  0  0  0  0  0  0  0
   19.2024   75.6615   12.1464 C   0  0  0  0  0  0  0  0  0  0  0  0
   19.6786   76.9081   12.1861 N   0  0  0  0  0  0  0  0  0  0  0  0
   19.9541   77.6016   11.0642 C   0  0  0  0  0  0  0  0  0  0  0  0
   19.7184   76.9579    9.8669 C   0  0  0  0  0  0  0  0  0  0  0  0
   19.2254   75.6687    9.8393 C   0  0  0  0  0  0  0  0  0  0  0  0
   18.9953   75.0440    8.7664 O   0  0  0  0  0  0  0  0  0  0  0  0
   18.9428   75.0114   13.3512 C   0  0  0  0  0  0  0  0  0  0  0  0
   18.4499   73.7240   13.3526 C   0  0  0  0  0  0  0  0  0  0  0  0
 17 18  1  0  0  0
 18 19  2  0  0  0
 18 28  1  0  0  0
 19 20  1  0  0  0
 20 21  1  0  0  0
 20 25  1  0  0  0
 21 22  2  0  0  0
 21 27  1  0  0  0
 22 23  1  0  0  0
 23 24  2  0  0  0
 23 16  1  0  0  0
 24 25  1  0  0  0
 25 26  2  0  0  0
 16  1  1  0  0  0
  1  2  1  0  0  0
  2  3  2  0  0  0
  2  4  1  0  0  0
  4  5  1  0  0  0
  5  6  1  0  0  0
  5 14  1  0  0  0
  6  7  2  0  0  0
  6  8  1  0  0  0
  8  9  1  0  0  0
  8 13  1  0  0  0
  9 10  1  0  0  0
  9 14  1  0  0  0
 10 11  1  0  0  0
 11 12  1  0  0  0
 12 13  1  0  0  0
 14 15  2  0  0  0
 27 28  2  0  0  0
M  END
> <minimizedAffinity>
-10.23240

$$$$
1576


 30 33  0  0  0  0  0  0  0  0999 V2000
   21.2568   78.7940    9.8424 N   0  0  0  0  0  0  0  0  0  0  0  0
   20.7565   79.9826   10.4987 C   0  0  0  0  0  0  0  0  0  0  0  0
   21.9305   80.6986   11.1620 C   0  0  0  0  0  0  0  0  0  0  0  0
   22.8117   79.7165   11.7733 N   0  0  0  0  0  0  0  0  0  0  0  0
   23.3717   78.6801   10.9382 C   0  0  0  0  0  0  0  0  0  0  0  0
   22.7051   78.7589    9.5856 C   0  0  0  0  0  0  0  0  0  0  0  0
   23.1291   79.7578   13.1596 C   0  0  0  0  0  0  0  0  0  0  0  0
   22.6229   80.6862   13.8634 O   0  0  0  0  0  0  0  0  0  0  0  0
   19.9930   77.0940   12.0039 Cl  0  0  0  0  0  0  0  0  0  0  0  0
   19.8528   76.8309   10.3029 C   0  0  0  0  0  0  0  0  0  0  0  0
   20.4918   77.6969    9.4419 C   0  0  0  0  0  0  0  0  0  0  0  0
   20.3399   77.4273    8.0836 C   0  0  0  0  0  0  0  0  0  0  0  0
   19.5916   76.3554    7.6386 C   0  0  0  0  0  0  0  0  0  0  0  0
   18.9736   75.5211    8.5325 C   0  0  0  0  0  0  0  0  0  0  0  0
   19.1028   75.7569    9.8653 C   0  0  0  0  0  0  0  0  0  0  0  0
   24.0081   78.7933   13.8307 C   0  0  0  0  0  0  0  0  0  0  0  0
   23.6428   78.5444   15.2239 N   0  0  0  0  0  0  0  0  0  0  0  0
   22.4531   78.3395   15.7526 N   0  0  0  0  0  0  0  0  0  0  0  0
   22.4977   78.1434   17.0722 C   0  0  0  0  0  0  0  0  0  0  0  0
   23.8311   78.2275   17.4302 C   0  0  0  0  0  0  0  0  0  0  0  0
   24.5193   78.4770   16.2639 C   0  0  0  0  0  0  0  0  0  0  0  0
   25.9845   78.6446   16.1685 C   0  0  0  0  0  0  0  0  0  0  0  0
   21.3551   77.8857   17.9677 C   0  0  0  0  0  0  0  0  0  0  0  0
   20.8831   76.7354   18.0659 O   0  0  0  0  0  0  0  0  0  0  0  0
   20.8123   78.9591   18.7074 N   0  0  0  0  0  0  0  0  0  0  0  0
   21.3041   80.3065   18.6448 C   0  0  0  0  0  0  0  0  0  0  0  0
   20.3388   81.1569   19.4801 C   0  0  0  0  0  0  0  0  0  0  0  0
   19.0355   80.9728   19.0744 O   0  0  0  0  0  0  0  0  0  0  0  0
   18.5783   79.6843   19.2185 C   0  0  0  0  0  0  0  0  0  0  0  0
   19.6771   78.7155   19.6024 C   0  0  0  0  0  0  0  0  0  0  0  0
  9 10  1  0  0  0
 10 11  2  0  0  0
 10 15  1  0  0  0
 11 12  1  0  0  0
 11  1  1  0  0  0
 12 13  2  0  0  0
 13 14  1  0  0  0
 14 15  2  0  0  0
  1  2  1  0  0  0
  1  6  1  0  0  0
  2  3  1  0  0  0
  3  4  1  0  0  0
  4  5  1  0  0  0
  4  7  1  0  0  0
  5  6  1  0  0  0
  7  8  2  0  0  0
  7 16  1  0  0  0
 16 17  1  0  0  0
 17 18  1  0  0  0
 17 21  1  0  0  0
 18 19  2  0  0  0
 19 20  1  0  0  0
 19 23  1  0  0  0
 20 21  2  0  0  0
 21 22  1  0  0  0
 23 24  2  0  0  0
 23 25  1  0  0  0
 25 26  1  0  0  0
 25 30  1  0  0  0
 26 27  1  0  0  0
 27 28  1  0  0  0
 28 29  1  0  0  0
 29 30  1  0  0  0
M  END
> <minimizedAffinity>
-9.91092

$$$$
1581


 27 30  0  0  0  0  0  0  0  0999 V2000
   21.2219   77.4548   16.4864 N   0  0  0  0  0  0  0  0  0  0  0  0
   22.3069   77.4977   17.3752 C   0  0  0  0  0  0  0  0  0  0  0  0
   22.5289   78.7995   18.0709 C   0  0  0  0  0  0  0  0  0  0  0  0
   21.2942   79.5538   18.2310 N   0  0  0  0  0  0  0  0  0  0  0  0
   21.1613   80.7178   18.8651 N   0  0  0  0  0  0  0  0  0  0  0  0
   19.8842   81.1067   18.8078 C   0  0  0  0  0  0  0  0  0  0  0  0
   19.2021   80.1426   18.1092 C   0  0  0  0  0  0  0  0  0  0  0  0
   20.1127   79.1471   17.7411 C   0  0  0  0  0  0  0  0  0  0  0  0
   19.9625   77.8786   16.9854 C   0  0  0  0  0  0  0  0  0  0  0  0
   19.3162   82.3592   19.3972 C   0  0  0  0  0  0  0  0  0  0  0  0
   18.7970   82.0382   20.6621 O   0  0  0  0  0  0  0  0  0  0  0  0
   19.0486   81.1042   20.9192 H   0  0  0  0  0  0  0  0  0  0  0  0
   20.4327   83.3686   19.6520 C   0  0  0  0  0  0  0  0  0  0  0  0
   20.4027   84.4058   18.5392 C   0  0  0  0  0  0  0  0  0  0  0  0
   21.4670   77.6378   15.1170 C   0  0  0  0  0  0  0  0  0  0  0  0
   17.3987   72.1314   10.7728 Cl  0  0  0  0  0  0  0  0  0  0  0  0
   18.3031   73.1347   11.8976 C   0  0  0  0  0  0  0  0  0  0  0  0
   18.5774   74.4299   11.5214 C   0  0  0  0  0  0  0  0  0  0  0  0
   19.2755   75.2013   12.3922 N   0  0  0  0  0  0  0  0  0  0  0  0
   19.6919   74.7391   13.5819 C   0  0  0  0  0  0  0  0  0  0  0  0
   20.3842   75.4979   14.4518 N   0  0  0  0  0  0  0  0  0  0  0  0
   20.7120   76.7773   14.1958 C   0  0  0  0  0  0  0  0  0  0  0  0
   20.2833   77.2549   12.9695 C   0  0  0  0  0  0  0  0  0  0  0  0
   19.5758   76.4783   12.0804 C   0  0  0  0  0  0  0  0  0  0  0  0
   19.2019   76.9587   10.9656 O   0  0  0  0  0  0  0  0  0  0  0  0
   19.4153   73.4242   13.9698 C   0  0  0  0  0  0  0  0  0  0  0  0
   18.7110   72.6183   13.1102 C   0  0  0  0  0  0  0  0  0  0  0  0
 16 17  1  0  0  0
 17 18  2  0  0  0
 17 27  1  0  0  0
 18 19  1  0  0  0
 19 20  1  0  0  0
 19 24  1  0  0  0
 20 21  2  0  0  0
 20 26  1  0  0  0
 21 22  1  0  0  0
 22 23  2  0  0  0
 22 15  1  0  0  0
 23 24  1  0  0  0
 24 25  2  0  0  0
 15  1  1  0  0  0
  1  2  1  0  0  0
  1  9  1  0  0  0
  2  3  1  0  0  0
  3  4  1  0  0  0
  4  5  1  0  0  0
  4  8  1  0  0  0
  5  6  2  0  0  0
  6  7  1  0  0  0
  6 10  1  0  0  0
  7  8  2  0  0  0
  8  9  1  0  0  0
 10 11  1  0  0  0
 10 13  1  0  0  0
 13 14  1  0  0  0
 26 27  2  0  0  0
 11 12  1  0  0  0
M  END
> <minimizedAffinity>
-9.43213

$$$$
1586


 29 32  0  0  0  0  0  0  0  0999 V2000
   20.1118   79.5688   19.5828 C   0  0  0  0  0  0  0  0  0  0  0  0
   19.2078   78.8218   20.1965 O   0  0  0  0  0  0  0  0  0  0  0  0
   20.9553   78.8892   18.6884 N   0  0  0  0  0  0  0  0  0  0  0  0
   22.0070   79.4918   17.9497 C   0  0  0  0  0  0  0  0  0  0  0  0
   22.8315   78.3872   17.2670 C   0  0  0  0  0  0  0  0  0  0  0  0
   21.9002   77.6697   16.4354 N   0  0  0  0  0  0  0  0  0  0  0  0
   20.8010   77.0320   17.0789 C   0  0  0  0  0  0  0  0  0  0  0  0
   20.6887   77.4599   18.5278 C   0  0  0  0  0  0  0  0  0  0  0  0
   22.0747   77.6064   15.0422 C   0  0  0  0  0  0  0  0  0  0  0  0
   21.5129   76.6969   14.4064 O   0  0  0  0  0  0  0  0  0  0  0  0
   22.9192   78.6231   14.3819 C   0  0  0  0  0  0  0  0  0  0  0  0
   24.1223   78.7284   15.1537 N   0  0  0  0  0  0  0  0  0  0  0  0
   23.9940   78.9114   16.5526 C   0  0  0  0  0  0  0  0  0  0  0  0
   24.8766   79.5296   17.2266 O   0  0  0  0  0  0  0  0  0  0  0  0
   25.0781   78.6768   14.7217 H   0  0  0  0  0  0  0  0  0  0  0  0
   19.4802   85.4004   21.0216 Cl  0  0  0  0  0  0  0  0  0  0  0  0
   19.7012   83.6896   20.6249 C   0  0  0  0  0  0  0  0  0  0  0  0
   20.5479   82.9100   21.3439 C   0  0  0  0  0  0  0  0  0  0  0  0
   20.6997   81.5646   21.0056 C   0  0  0  0  0  0  0  0  0  0  0  0
   20.0375   80.9497   19.9720 C   0  0  0  0  0  0  0  0  0  0  0  0
   19.1762   81.8051   19.2625 C   0  0  0  0  0  0  0  0  0  0  0  0
   19.0102   83.1374   19.5780 C   0  0  0  0  0  0  0  0  0  0  0  0
   23.1179   78.3958   12.9322 C   0  0  0  0  0  0  0  0  0  0  0  0
   22.1067   79.1366   12.1607 C   0  0  0  0  0  0  0  0  0  0  0  0
   20.8703   78.7594   11.8268 N   0  0  0  0  0  0  0  0  0  0  0  0
   20.2752   79.7555   11.1068 C   0  0  0  0  0  0  0  0  0  0  0  0
   21.1380   80.7664   10.9832 N   0  0  0  0  0  0  0  0  0  0  0  0
   22.2608   80.4128   11.6169 C   0  0  0  0  0  0  0  0  0  0  0  0
   20.9753   81.6506   10.4940 H   0  0  0  0  0  0  0  0  0  0  0  0
 16 17  1  0  0  0
 17 18  2  0  0  0
 17 22  1  0  0  0
 18 19  1  0  0  0
 19 20  2  0  0  0
 20 21  1  0  0  0
 20  1  1  0  0  0
 21 22  2  0  0  0
  1  2  2  0  0  0
  1  3  1  0  0  0
  3  4  1  0  0  0
  3  8  1  0  0  0
  4  5  1  0  0  0
  5  6  1  0  0  0
  5 13  1  0  0  0
  6  7  1  0  0  0
  6  9  1  0  0  0
  7  8  1  0  0  0
  9 10  2  0  0  0
  9 11  1  0  0  0
 11 12  1  0  0  0
 11 23  1  0  0  0
 12 13  1  0  0  0
 13 14  2  0  0  0
 23 24  1  0  0  0
 24 25  1  0  0  0
 24 28  2  0  0  0
 25 26  2  0  0  0
 26 27  1  0  0  0
 27 28  1  0  0  0
 12 15  1  0  0  0
 27 29  1  0  0  0
M  END
> <minimizedAffinity>
-10.42401

$$$$
1591


 26 29  0  0  0  0  0  0  0  0999 V2000
   21.4273   80.6448   16.1456 Cl  0  0  0  0  0  0  0  0  0  0  0  0
   20.5690   80.3700   17.6448 C   0  0  0  0  0  0  0  0  0  0  0  0
   20.1660   79.1102   17.9870 C   0  0  0  0  0  0  0  0  0  0  0  0
   19.4766   79.0132   19.1988 C   0  0  0  0  0  0  0  0  0  0  0  0
   19.2456   80.1026   19.9479 N   0  0  0  0  0  0  0  0  0  0  0  0
   19.6242   81.3220   19.6375 N   0  0  0  0  0  0  0  0  0  0  0  0
   20.2892   81.4627   18.4833 C   0  0  0  0  0  0  0  0  0  0  0  0
   20.6937   82.5897   18.0995 O   0  0  0  0  0  0  0  0  0  0  0  0
   19.3378   82.4254   20.4911 C   0  0  0  0  0  0  0  0  0  0  0  0
   18.4401   83.4178   20.1512 C   0  0  0  0  0  0  0  0  0  0  0  0
   18.1697   84.4813   20.9856 C   0  0  0  0  0  0  0  0  0  0  0  0
   18.7991   84.5918   22.2092 C   0  0  0  0  0  0  0  0  0  0  0  0
   19.6964   83.6035   22.5548 C   0  0  0  0  0  0  0  0  0  0  0  0
   19.9643   82.5390   21.7152 C   0  0  0  0  0  0  0  0  0  0  0  0
   20.4338   77.9640   17.2017 N   0  0  0  0  0  0  0  0  0  0  0  0
   21.7812   77.4900   16.9327 C   0  0  0  0  0  0  0  0  0  0  0  0
   22.1086   77.5489   15.4630 C   0  0  0  0  0  0  0  0  0  0  0  0
   20.9287   77.1143   14.7560 N   0  0  0  0  0  0  0  0  0  0  0  0
   19.9854   76.2867   15.4621 C   0  0  0  0  0  0  0  0  0  0  0  0
   19.3810   77.1745   16.5719 C   0  0  0  0  0  0  0  0  0  0  0  0
   20.7010   77.4861   13.4092 C   0  0  0  0  0  0  0  0  0  0  0  0
   19.7661   76.9767   12.5566 N   0  0  0  0  0  0  0  0  0  0  0  0
   19.8663   77.5806   11.3894 N   0  0  0  0  0  0  0  0  0  0  0  0
   20.8484   78.4688   11.4753 C   0  0  0  0  0  0  0  0  0  0  0  0
   21.3309   78.3944   12.6879 O   0  0  0  0  0  0  0  0  0  0  0  0
   21.3617   79.4089   10.4269 C   0  0  0  0  0  0  0  0  0  0  0  0
  1  2  1  0  0  0
  2  3  2  0  0  0
  2  7  1  0  0  0
  3  4  1  0  0  0
  3 15  1  0  0  0
  4  5  2  0  0  0
  5  6  1  0  0  0
  6  7  1  0  0  0
  6  9  1  0  0  0
  7  8  2  0  0  0
  9 10  2  0  0  0
  9 14  1  0  0  0
 10 11  1  0  0  0
 11 12  2  0  0  0
 12 13  1  0  0  0
 13 14  2  0  0  0
 15 16  1  0  0  0
 15 20  1  0  0  0
 16 17  1  0  0  0
 17 18  1  0  0  0
 18 19  1  0  0  0
 18 21  1  0  0  0
 19 20  1  0  0  0
 21 22  2  0  0  0
 21 25  1  0  0  0
 22 23  1  0  0  0
 23 24  2  0  0  0
 24 25  1  0  0  0
 24 26  1  0  0  0
M  END
> <minimizedAffinity>
-9.67633

$$$$
1594


 27 30  0  0  0  0  0  0  0  0999 V2000
   21.5779   80.1568   17.2474 C   0  0  0  0  0  0  0  0  0  0  0  0
   22.3660   80.5897   16.3281 O   0  0  0  0  0  0  0  0  0  0  0  0
   21.3877   78.7897   17.3045 N   0  0  0  0  0  0  0  0  0  0  0  0
   20.5450   78.1333   18.2749 C   0  0  0  0  0  0  0  0  0  0  0  0
   19.3166   77.5442   17.6144 C   0  0  0  0  0  0  0  0  0  0  0  0
   19.6888   77.0013   16.2644 C   0  0  0  0  0  0  0  0  0  0  0  0
   20.9179   77.1386   15.6795 C   0  0  0  0  0  0  0  0  0  0  0  0
   20.8213   76.5070   14.4809 N   0  0  0  0  0  0  0  0  0  0  0  0
   19.6196   76.0040   14.3120 N   0  0  0  0  0  0  0  0  0  0  0  0
   18.8679   76.2772   15.3859 C   0  0  0  0  0  0  0  0  0  0  0  0
   17.6537   75.9607   15.6004 O   0  0  0  0  0  0  0  0  0  0  0  0
   22.0381   77.8613   16.3480 C   0  0  0  0  0  0  0  0  0  0  0  0
   21.6296   76.4566   13.8148 H   0  0  0  0  0  0  0  0  0  0  0  0
   18.5151   84.2142   22.8982 Cl  0  0  0  0  0  0  0  0  0  0  0  0
   19.1430   83.7122   21.3396 C   0  0  0  0  0  0  0  0  0  0  0  0
   19.6429   82.4430   21.1565 C   0  0  0  0  0  0  0  0  0  0  0  0
   20.1222   82.0875   19.9322 N   0  0  0  0  0  0  0  0  0  0  0  0
   20.0983   82.9754   18.9323 C   0  0  0  0  0  0  0  0  0  0  0  0
   20.6176   82.4032   17.8345 N   0  0  0  0  0  0  0  0  0  0  0  0
   20.9760   81.1511   18.1191 C   0  0  0  0  0  0  0  0  0  0  0  0
   20.6564   80.9489   19.4710 C   0  0  0  0  0  0  0  0  0  0  0  0
   19.5936   84.2779   19.0905 C   0  0  0  0  0  0  0  0  0  0  0  0
   19.1134   84.6383   20.3113 C   0  0  0  0  0  0  0  0  0  0  0  0
   19.1130   75.2512   13.1554 C   0  0  0  0  0  0  0  0  0  0  0  0
   19.2224   73.7630   13.3945 C   0  0  0  0  0  0  0  0  0  0  0  0
   20.3461   73.4309   14.1417 O   0  0  0  0  0  0  0  0  0  0  0  0
   20.7611   72.5701   13.8355 H   0  0  0  0  0  0  0  0  0  0  0  0
 14 15  1  0  0  0
 15 16  2  0  0  0
 15 23  1  0  0  0
 16 17  1  0  0  0
 17 18  1  0  0  0
 17 21  1  0  0  0
 18 19  2  0  0  0
 18 22  1  0  0  0
 19 20  1  0  0  0
 20 21  2  0  0  0
 20  1  1  0  0  0
  1  2  2  0  0  0
  1  3  1  0  0  0
  3  4  1  0  0  0
  3 12  1  0  0  0
  4  5  1  0  0  0
  5  6  1  0  0  0
  6  7  2  0  0  0
  6 10  1  0  0  0
  7  8  1  0  0  0
  7 12  1  0  0  0
  8  9  1  0  0  0
  9 10  1  0  0  0
  9 24  1  0  0  0
 10 11  2  0  0  0
 24 25  1  0  0  0
 25 26  1  0  0  0
 22 23  2  0  0  0
  8 13  1  0  0  0
 26 27  1  0  0  0
M  END
> <minimizedAffinity>
-8.80313

$$$$
1599


 30 33  0  0  0  0  0  0  0  0999 V2000
   20.1520   79.3443   18.5861 C   0  0  0  0  0  0  0  0  0  0  0  0
   20.6277   79.5887   19.7506 O   0  0  0  0  0  0  0  0  0  0  0  0
   20.5958   78.2507   17.8305 N   0  0  0  0  0  0  0  0  0  0  0  0
   20.0921   77.9502   16.5286 C   0  0  0  0  0  0  0  0  0  0  0  0
   21.1461   77.3978   15.6114 C   0  0  0  0  0  0  0  0  0  0  0  0
   22.5687   77.7301   16.0050 C   0  0  0  0  0  0  0  0  0  0  0  0
   23.3740   76.8571   15.1618 N   0  0  0  0  0  0  0  0  0  0  0  0
   24.7659   77.0992   15.1647 C   0  0  0  0  0  0  0  0  0  0  0  0
   25.2427   78.4129   15.6656 C   0  0  0  0  0  0  0  0  0  0  0  0
   24.2137   79.4831   15.4804 C   0  0  0  0  0  0  0  0  0  0  0  0
   24.3199   80.7743   15.1695 N   0  0  0  0  0  0  0  0  0  0  0  0
   23.0574   81.2501   15.1389 C   0  0  0  0  0  0  0  0  0  0  0  0
   22.1787   80.2656   15.4286 N   0  0  0  0  0  0  0  0  0  0  0  0
   22.8995   79.1285   15.6507 C   0  0  0  0  0  0  0  0  0  0  0  0
   22.8735   77.4826   17.4601 C   0  0  0  0  0  0  0  0  0  0  0  0
   21.6320   77.3503   18.3232 C   0  0  0  0  0  0  0  0  0  0  0  0
   23.1443   75.8835   15.5139 H   0  0  0  0  0  0  0  0  0  0  0  0
   21.1508   80.3675   15.4721 H   0  0  0  0  0  0  0  0  0  0  0  0
   19.1004   80.3199   18.1232 C   0  0  0  0  0  0  0  0  0  0  0  0
   19.7410   82.8655   18.7918 C   0  0  0  0  0  0  0  0  0  0  0  0
   20.2491   83.7819   18.0543 O   0  0  0  0  0  0  0  0  0  0  0  0
   19.4283   81.6223   18.4655 N   0  0  0  0  0  0  0  0  0  0  0  0
   19.8780   81.8338   17.1742 H   0  0  0  0  0  0  0  0  0  0  0  0
   20.9408   82.4670   23.9784 Br  0  0  0  0  0  0  0  0  0  0  0  0
   19.9328   83.1970   22.5601 C   0  0  0  0  0  0  0  0  0  0  0  0
   20.1980   82.8000   21.2583 C   0  0  0  0  0  0  0  0  0  0  0  0
   19.4875   83.3147   20.2065 C   0  0  0  0  0  0  0  0  0  0  0  0
   18.4948   84.2321   20.3779 C   0  0  0  0  0  0  0  0  0  0  0  0
   18.2204   84.6373   21.6878 C   0  0  0  0  0  0  0  0  0  0  0  0
   18.9346   84.1198   22.7522 C   0  0  0  0  0  0  0  0  0  0  0  0
 24 25  1  0  0  0
 25 26  2  0  0  0
 25 30  1  0  0  0
 26 27  1  0  0  0
 27 28  2  0  0  0
 27 20  1  0  0  0
 28 29  1  0  0  0
 29 30  2  0  0  0
 20 21  2  0  0  0
 20 22  1  0  0  0
 22 19  1  0  0  0
 19  1  1  0  0  0
  1  2  2  0  0  0
  1  3  1  0  0  0
  3  4  1  0  0  0
  3 16  1  0  0  0
  4  5  1  0  0  0
  5  6  1  0  0  0
  6  7  1  0  0  0
  6 14  1  0  0  0
  6 15  1  0  0  0
  7  8  1  0  0  0
  8  9  1  0  0  0
  9 10  1  0  0  0
 10 11  1  0  0  0
 10 14  2  0  0  0
 11 12  2  0  0  0
 12 13  1  0  0  0
 13 14  1  0  0  0
 15 16  1  0  0  0
 22 23  1  0  0  0
  7 17  1  0  0  0
 13 18  1  0  0  0
M  END
> <minimizedAffinity>
-10.12234

$$$$
1609


 26 29  0  0  0  0  0  0  0  0999 V2000
   19.5318   79.0441   18.8614 N   0  0  0  0  0  0  0  0  0  0  0  0
   19.7815   79.0134   17.4449 C   0  0  0  0  0  0  0  0  0  0  0  0
   19.6239   77.5364   17.1432 C   0  0  0  0  0  0  0  0  0  0  0  0
   20.3262   76.9672   18.2403 O   0  0  0  0  0  0  0  0  0  0  0  0
   19.9291   77.7623   19.3348 C   0  0  0  0  0  0  0  0  0  0  0  0
   19.9441   77.3473   20.5366 O   0  0  0  0  0  0  0  0  0  0  0  0
   20.3489   77.4697   15.8487 C   0  0  0  0  0  0  0  0  0  0  0  0
   21.6196   78.1427   16.2028 N   0  0  0  0  0  0  0  0  0  0  0  0
   21.2848   79.1611   17.1492 C   0  0  0  0  0  0  0  0  0  0  0  0
   22.8274   77.7338   15.6304 C   0  0  0  0  0  0  0  0  0  0  0  0
   22.8395   76.7490   14.7837 O   0  0  0  0  0  0  0  0  0  0  0  0
   24.1362   78.3075   15.8835 C   0  0  0  0  0  0  0  0  0  0  0  0
   25.3400   77.6862   15.7590 N   0  0  0  0  0  0  0  0  0  0  0  0
   26.2998   78.5517   16.0768 C   0  0  0  0  0  0  0  0  0  0  0  0
   25.7399   79.7181   16.4036 N   0  0  0  0  0  0  0  0  0  0  0  0
   24.3999   79.5827   16.2881 C   0  0  0  0  0  0  0  0  0  0  0  0
   25.5208   76.3179   15.3499 C   0  0  0  0  0  0  0  0  0  0  0  0
   19.0044   80.0844   19.7141 C   0  0  0  0  0  0  0  0  0  0  0  0
   20.0662   80.8906   20.4110 C   0  0  0  0  0  0  0  0  0  0  0  0
   20.2995   85.4039   17.8061 Cl  0  0  0  0  0  0  0  0  0  0  0  0
   19.8505   84.4651   19.2330 C   0  0  0  0  0  0  0  0  0  0  0  0
   20.1156   83.1171   19.2730 C   0  0  0  0  0  0  0  0  0  0  0  0
   19.7760   82.3430   20.3827 C   0  0  0  0  0  0  0  0  0  0  0  0
   19.1639   83.0028   21.4293 C   0  0  0  0  0  0  0  0  0  0  0  0
   18.9018   84.3597   21.3798 C   0  0  0  0  0  0  0  0  0  0  0  0
   19.2393   85.1204   20.2805 C   0  0  0  0  0  0  0  0  0  0  0  0
 20 21  1  0  0  0
 21 22  2  0  0  0
 21 26  1  0  0  0
 22 23  1  0  0  0
 23 24  2  0  0  0
 23 19  1  0  0  0
 24 25  1  0  0  0
 25 26  2  0  0  0
 19 18  1  0  0  0
 18  1  1  0  0  0
  1  2  1  0  0  0
  1  5  1  0  0  0
  2  3  1  0  0  0
  2  9  1  0  0  0
  3  4  1  0  0  0
  3  7  1  0  0  0
  4  5  1  0  0  0
  5  6  2  0  0  0
  7  8  1  0  0  0
  8  9  1  0  0  0
  8 10  1  0  0  0
 10 11  2  0  0  0
 10 12  1  0  0  0
 12 13  1  0  0  0
 12 16  2  0  0  0
 13 14  1  0  0  0
 13 17  1  0  0  0
 14 15  2  0  0  0
 15 16  1  0  0  0
M  END
> <minimizedAffinity>
-10.48199

$$$$
1612


 31 34  0  0  0  0  0  0  0  0999 V2000
   20.3944   78.0261   12.2911 N   0  0  0  0  0  0  0  0  0  0  0  0
   19.7946   76.9920   11.6661 C   0  0  0  0  0  0  0  0  0  0  0  0
   19.7413   75.9551   12.5673 C   0  0  0  0  0  0  0  0  0  0  0  0
   20.2966   76.3786   13.6856 N   0  0  0  0  0  0  0  0  0  0  0  0
   20.7080   77.6626   13.5380 C   0  0  0  0  0  0  0  0  0  0  0  0
   19.1693   74.7868   12.1609 N   0  0  0  0  0  0  0  0  0  0  0  0
   18.6709   74.6386   10.9281 C   0  0  0  0  0  0  0  0  0  0  0  0
   18.1500   73.5362   10.6001 O   0  0  0  0  0  0  0  0  0  0  0  0
   18.7020   75.6225   10.0202 N   0  0  0  0  0  0  0  0  0  0  0  0
   19.2646   76.7961   10.3953 C   0  0  0  0  0  0  0  0  0  0  0  0
   19.2953   77.7189    9.5519 O   0  0  0  0  0  0  0  0  0  0  0  0
   19.0980   73.6744   13.1056 C   0  0  0  0  0  0  0  0  0  0  0  0
   18.3009   75.4647    9.0689 H   0  0  0  0  0  0  0  0  0  0  0  0
   21.2932   78.4506   14.5859 N   0  0  0  0  0  0  0  0  0  0  0  0
   20.9836   78.0777   15.9812 C   0  0  0  0  0  0  0  0  0  0  0  0
   22.2230   77.8176   16.7751 C   0  0  0  0  0  0  0  0  0  0  0  0
   23.3641   78.4931   16.2017 N   0  0  0  0  0  0  0  0  0  0  0  0
   23.1249   79.7596   15.5418 C   0  0  0  0  0  0  0  0  0  0  0  0
   22.1572   79.5584   14.3888 C   0  0  0  0  0  0  0  0  0  0  0  0
   24.6663   77.9325   16.2949 C   0  0  0  0  0  0  0  0  0  0  0  0
   24.8467   76.8478   16.8899 O   0  0  0  0  0  0  0  0  0  0  0  0
   25.8405   78.6091   15.6946 C   0  0  0  0  0  0  0  0  0  0  0  0
   26.6787   79.1624   16.8441 C   0  0  0  0  0  0  0  0  0  0  0  0
   20.5791   79.3012   11.6752 C   0  0  0  0  0  0  0  0  0  0  0  0
   25.2659   77.6974   10.1209 Cl  0  0  0  0  0  0  0  0  0  0  0  0
   23.8895   78.7908    9.9864 C   0  0  0  0  0  0  0  0  0  0  0  0
   22.8205   78.5869   10.8495 C   0  0  0  0  0  0  0  0  0  0  0  0
   21.7411   79.4194   10.7626 C   0  0  0  0  0  0  0  0  0  0  0  0
   21.7506   80.4512    9.8037 C   0  0  0  0  0  0  0  0  0  0  0  0
   22.8157   80.6286    8.9681 C   0  0  0  0  0  0  0  0  0  0  0  0
   23.9170   79.7935    9.0424 C   0  0  0  0  0  0  0  0  0  0  0  0
 25 26  1  0  0  0
 26 27  2  0  0  0
 26 31  1  0  0  0
 27 28  1  0  0  0
 28 29  2  0  0  0
 28 24  1  0  0  0
 29 30  1  0  0  0
 30 31  2  0  0  0
 24  1  1  0  0  0
  1  2  1  0  0  0
  1  5  1  0  0  0
  2  3  2  0  0  0
  2 10  1  0  0  0
  3  4  1  0  0  0
  3  6  1  0  0  0
  4  5  2  0  0  0
  5 14  1  0  0  0
 14 15  1  0  0  0
 14 19  1  0  0  0
 15 16  1  0  0  0
 16 17  1  0  0  0
 17 18  1  0  0  0
 17 20  1  0  0  0
 18 19  1  0  0  0
 20 21  2  0  0  0
 20 22  1  0  0  0
 22 23  1  0  0  0
  6  7  1  0  0  0
  6 12  1  0  0  0
  7  8  2  0  0  0
  7  9  1  0  0  0
  9 10  1  0  0  0
 10 11  2  0  0  0
  9 13  1  0  0  0
M  END
> <minimizedAffinity>
-9.68869

$$$$
1622


 28 31  0  0  0  0  0  0  0  0999 V2000
   21.6018   77.5838   15.5273 C   0  0  0  0  0  0  0  0  0  0  0  0
   22.7850   77.9882   15.3916 O   0  0  0  0  0  0  0  0  0  0  0  0
   20.9621   77.5177   16.7945 N   0  0  0  0  0  0  0  0  0  0  0  0
   21.7001   77.9319   17.9676 C   0  0  0  0  0  0  0  0  0  0  0  0
   20.6787   78.3934   18.9906 C   0  0  0  0  0  0  0  0  0  0  0  0
   19.4982   79.0818   18.3410 C   0  0  0  0  0  0  0  0  0  0  0  0
   18.7116   79.6695   19.4010 N   0  0  0  0  0  0  0  0  0  0  0  0
   19.2374   80.9571   19.6850 C   0  0  0  0  0  0  0  0  0  0  0  0
   19.0815   81.6521   20.7380 O   0  0  0  0  0  0  0  0  0  0  0  0
   19.9951   81.3340   18.5314 N   0  0  0  0  0  0  0  0  0  0  0  0
   19.9200   80.2796   17.5709 C   0  0  0  0  0  0  0  0  0  0  0  0
   20.1684   80.3877   16.3394 O   0  0  0  0  0  0  0  0  0  0  0  0
   20.7397   82.5775   18.3198 C   0  0  0  0  0  0  0  0  0  0  0  0
   18.6998   78.1484   17.4796 C   0  0  0  0  0  0  0  0  0  0  0  0
   19.6058   77.0596   16.9920 C   0  0  0  0  0  0  0  0  0  0  0  0
   17.9046   79.2080   19.8611 H   0  0  0  0  0  0  0  0  0  0  0  0
   21.8339   79.5166   13.2665 Cl  0  0  0  0  0  0  0  0  0  0  0  0
   20.9474   77.9881   13.1810 C   0  0  0  0  0  0  0  0  0  0  0  0
   20.9144   77.1803   14.2968 C   0  0  0  0  0  0  0  0  0  0  0  0
   20.2272   75.9876   14.2432 C   0  0  0  0  0  0  0  0  0  0  0  0
   19.5754   75.5927   13.0943 C   0  0  0  0  0  0  0  0  0  0  0  0
   19.6349   76.4368   11.9971 C   0  0  0  0  0  0  0  0  0  0  0  0
   20.3096   77.6350   12.0095 C   0  0  0  0  0  0  0  0  0  0  0  0
   18.8575   74.3622   13.0146 N   0  0  0  0  0  0  0  0  0  0  0  0
   17.6498   74.1484   12.5533 N   0  0  0  0  0  0  0  0  0  0  0  0
   17.3457   72.8221   12.6612 C   0  0  0  0  0  0  0  0  0  0  0  0
   18.4288   72.1814   13.2211 C   0  0  0  0  0  0  0  0  0  0  0  0
   19.3708   73.1922   13.4323 C   0  0  0  0  0  0  0  0  0  0  0  0
 17 18  1  0  0  0
 18 19  2  0  0  0
 18 23  1  0  0  0
 19 20  1  0  0  0
 19  1  1  0  0  0
 20 21  2  0  0  0
 21 22  1  0  0  0
 21 24  1  0  0  0
 22 23  2  0  0  0
 24 25  1  0  0  0
 24 28  1  0  0  0
 25 26  2  0  0  0
 26 27  1  0  0  0
 27 28  2  0  0  0
  1  2  2  0  0  0
  1  3  1  0  0  0
  3  4  1  0  0  0
  3 15  1  0  0  0
  4  5  1  0  0  0
  5  6  1  0  0  0
  6  7  1  0  0  0
  6 11  1  0  0  0
  6 14  1  0  0  0
  7  8  1  0  0  0
  8  9  2  0  0  0
  8 10  1  0  0  0
 10 11  1  0  0  0
 10 13  1  0  0  0
 11 12  2  0  0  0
 14 15  1  0  0  0
  7 16  1  0  0  0
M  END
> <minimizedAffinity>
-9.77856

$$$$
1624


 32 35  0  0  0  0  0  0  0  0999 V2000
   20.7692   79.7577   17.1831 C   0  0  0  0  0  0  0  0  0  0  0  0
   20.1054   78.4609   17.4103 N   0  0  0  0  0  0  0  0  0  0  0  0
   20.1279   78.1892   18.8053 C   0  0  0  0  0  0  0  0  0  0  0  0
   20.0073   77.0930   19.3562 O   0  0  0  0  0  0  0  0  0  0  0  0
   20.3233   79.4775   19.4986 C   0  0  0  0  0  0  0  0  0  0  0  0
   20.4069   79.6868   20.7514 O   0  0  0  0  0  0  0  0  0  0  0  0
   20.4070   80.4784   18.4476 C   0  0  0  0  0  0  0  0  0  0  0  0
   20.2223   81.7613   18.6367 C   0  0  0  0  0  0  0  0  0  0  0  0
   20.3783   82.6110   17.5456 O   0  0  0  0  0  0  0  0  0  0  0  0
   26.6739   78.9777   16.4665 Cl  0  0  0  0  0  0  0  0  0  0  0  0
   24.9608   79.1862   16.7020 C   0  0  0  0  0  0  0  0  0  0  0  0
   24.2899   78.5268   17.6891 C   0  0  0  0  0  0  0  0  0  0  0  0
   22.9249   78.7279   17.8329 C   0  0  0  0  0  0  0  0  0  0  0  0
   22.2047   79.5562   17.0331 C   0  0  0  0  0  0  0  0  0  0  0  0
   22.8946   80.2289   16.0247 C   0  0  0  0  0  0  0  0  0  0  0  0
   24.2489   80.0458   15.8622 C   0  0  0  0  0  0  0  0  0  0  0  0
   19.8593   82.3970   19.8989 C   0  0  0  0  0  0  0  0  0  0  0  0
   20.8455   82.4223   20.8785 C   0  0  0  0  0  0  0  0  0  0  0  0
   20.5847   83.0245   22.0769 C   0  0  0  0  0  0  0  0  0  0  0  0
   19.3593   83.6081   22.3350 C   0  0  0  0  0  0  0  0  0  0  0  0
   18.3851   83.5803   21.3601 C   0  0  0  0  0  0  0  0  0  0  0  0
   18.6605   82.9699   20.1533 C   0  0  0  0  0  0  0  0  0  0  0  0
   19.0745   84.3596   23.8703 Cl  0  0  0  0  0  0  0  0  0  0  0  0
   19.5551   77.6972   16.3198 C   0  0  0  0  0  0  0  0  0  0  0  0
   20.1932   76.3860   16.0607 C   0  0  0  0  0  0  0  0  0  0  0  0
   20.3069   75.9319   14.7245 N   0  0  0  0  0  0  0  0  0  0  0  0
   20.8475   76.9159   13.8107 C   0  0  0  0  0  0  0  0  0  0  0  0
   19.9574   77.1949   12.6234 C   0  0  0  0  0  0  0  0  0  0  0  0
   19.4955   76.0789   11.9750 O   0  0  0  0  0  0  0  0  0  0  0  0
   18.9939   75.1112   12.8252 C   0  0  0  0  0  0  0  0  0  0  0  0
   18.9451   75.6541   14.2213 C   0  0  0  0  0  0  0  0  0  0  0  0
   20.7912   75.0236   14.6356 H   0  0  0  0  0  0  0  0  0  0  0  0
 10 11  1  0  0  0
 11 12  2  0  0  0
 11 16  1  0  0  0
 12 13  1  0  0  0
 13 14  2  0  0  0
 14 15  1  0  0  0
 14  1  1  0  0  0
 15 16  2  0  0  0
  1  2  1  0  0  0
  1  7  1  0  0  0
  2  3  1  0  0  0
  2 24  1  0  0  0
  3  4  2  0  0  0
  3  5  1  0  0  0
  5  6  2  0  0  0
  5  7  1  0  0  0
  7  8  2  0  0  0
  8  9  1  0  0  0
  8 17  1  0  0  0
 17 18  2  0  0  0
 17 22  1  0  0  0
 18 19  1  0  0  0
 19 20  2  0  0  0
 20 21  1  0  0  0
 20 23  1  0  0  0
 21 22  2  0  0  0
 24 25  1  0  0  0
 25 26  1  0  0  0
 26 27  1  0  0  0
 26 31  1  0  0  0
 27 28  1  0  0  0
 28 29  1  0  0  0
 29 30  1  0  0  0
 30 31  1  0  0  0
 26 32  1  0  0  0
M  CHG 1   9  -1
M  CHG 1  26   1
M  END
> <minimizedAffinity>
-10.34961

$$$$
1630


 39 43  0  0  0  0  0  0  0  0999 V2000
   18.5521   73.0588   13.3070 Cl  0  0  0  0  0  0  0  0  0  0  0  0
   18.9351   74.5637   12.4572 C   0  0  0  0  0  0  0  0  0  0  0  0
   18.8467   74.6220   11.0877 C   0  0  0  0  0  0  0  0  0  0  0  0
   19.1459   75.8014   10.4185 C   0  0  0  0  0  0  0  0  0  0  0  0
   19.5360   76.9476   11.0562 C   0  0  0  0  0  0  0  0  0  0  0  0
   19.6170   76.8592   12.4547 C   0  0  0  0  0  0  0  0  0  0  0  0
   19.3225   75.6944   13.1285 C   0  0  0  0  0  0  0  0  0  0  0  0
   19.7735   77.9926   10.0739 C   0  0  0  0  0  0  0  0  0  0  0  0
   18.8206   79.0697   10.3270 N   0  0  0  0  0  0  0  0  0  0  0  0
   19.6258   80.0732   10.9680 C   0  0  0  0  0  0  0  0  0  0  0  0
   20.8759   80.0614   10.1180 C   0  0  0  0  0  0  0  0  0  0  0  0
   21.1443   78.5736   10.0516 C   0  0  0  0  0  0  0  0  0  0  0  0
   22.0014   78.3062   11.1889 C   0  0  0  0  0  0  0  0  0  0  0  0
   22.2518   77.1888   11.6919 O   0  0  0  0  0  0  0  0  0  0  0  0
   22.5342   79.5332   11.6682 N   0  0  0  0  0  0  0  0  0  0  0  0
   22.0448   80.6023   10.8567 C   0  0  0  0  0  0  0  0  0  0  0  0
   22.4645   81.7783   10.7415 O   0  0  0  0  0  0  0  0  0  0  0  0
   19.4774   77.3644    8.7645 C   0  0  0  0  0  0  0  0  0  0  0  0
   19.5393   77.8959    7.6165 O   0  0  0  0  0  0  0  0  0  0  0  0
   19.1023   76.0285    9.0151 N   0  0  0  0  0  0  0  0  0  0  0  0
   18.4268   73.3999   10.3473 C   0  0  0  0  0  0  0  0  0  0  0  0
   18.0315   78.7111   10.9056 H   0  0  0  0  0  0  0  0  0  0  0  0
   18.8359   75.3287    8.2713 H   0  0  0  0  0  0  0  0  0  0  0  0
   23.4335   79.7598   12.7838 C   0  0  0  0  0  0  0  0  0  0  0  0
   22.8196   79.4032   14.0753 C   0  0  0  0  0  0  0  0  0  0  0  0
   23.3866   78.3742   14.7965 C   0  0  0  0  0  0  0  0  0  0  0  0
   22.8034   78.0430   16.0119 C   0  0  0  0  0  0  0  0  0  0  0  0
   21.7071   78.7079   16.4842 C   0  0  0  0  0  0  0  0  0  0  0  0
   21.1716   79.7292   15.7357 C   0  0  0  0  0  0  0  0  0  0  0  0
   21.7036   80.1049   14.5219 C   0  0  0  0  0  0  0  0  0  0  0  0
   24.4928   77.7176   14.2999 O   0  0  0  0  0  0  0  0  0  0  0  0
   25.2577   76.7938   15.0086 C   0  0  0  0  0  0  0  0  0  0  0  0
   18.9426   81.4224   10.9561 C   0  0  0  0  0  0  0  0  0  0  0  0
   17.4998   81.1773   10.5672 C   0  0  0  0  0  0  0  0  0  0  0  0
   16.5620   81.6030   11.6356 C   0  0  0  0  0  0  0  0  0  0  0  0
   15.4343   81.0406   11.7315 O   0  0  0  0  0  0  0  0  0  0  0  0
   16.9932   82.6387   12.5076 N   0  0  0  0  0  0  0  0  0  0  0  0
   17.9883   82.6598   12.7867 H   0  0  0  0  0  0  0  0  0  0  0  0
   16.2672   83.3306   12.8229 H   0  0  0  0  0  0  0  0  0  0  0  0
  1  2  1  0  0  0
  2  3  2  0  0  0
  2  7  1  0  0  0
  3  4  1  0  0  0
  3 21  1  0  0  0
  4  5  2  0  0  0
  4 20  1  0  0  0
  5  6  1  0  0  0
  5  8  1  0  0  0
  6  7  2  0  0  0
  8  9  1  0  0  0
  8 12  1  0  0  0
  8 18  1  0  0  0
  9 10  1  0  0  0
 10 11  1  0  0  0
 10 33  1  0  0  0
 11 12  1  0  0  0
 11 16  1  0  0  0
 12 13  1  0  0  0
 13 14  2  0  0  0
 13 15  1  0  0  0
 15 16  1  0  0  0
 15 24  1  0  0  0
 16 17  2  0  0  0
 24 25  1  0  0  0
 25 26  2  0  0  0
 25 30  1  0  0  0
 26 27  1  0  0  0
 26 31  1  0  0  0
 27 28  2  0  0  0
 28 29  1  0  0  0
 29 30  2  0  0  0
 31 32  1  0  0  0
 33 34  1  0  0  0
 34 35  1  0  0  0
 35 36  2  0  0  0
 35 37  1  0  0  0
 18 19  2  0  0  0
 18 20  1  0  0  0
  9 22  1  0  0  0
 37 38  1  0  0  0
 37 39  1  0  0  0
 20 23  1  0  0  0
M  END
> <minimizedAffinity>
-7.22349

$$$$
1631


 29 32  0  0  0  0  0  0  0  0999 V2000
   20.6826   79.7045   17.1200 C   0  0  0  0  0  0  0  0  0  0  0  0
   20.2308   78.3654   17.3693 N   0  0  0  0  0  0  0  0  0  0  0  0
   20.2731   78.0727   18.7623 C   0  0  0  0  0  0  0  0  0  0  0  0
   20.2159   76.9337   19.3103 O   0  0  0  0  0  0  0  0  0  0  0  0
   20.3988   79.3560   19.4845 C   0  0  0  0  0  0  0  0  0  0  0  0
   20.4682   79.4781   20.7283 O   0  0  0  0  0  0  0  0  0  0  0  0
   20.4236   80.3737   18.4421 C   0  0  0  0  0  0  0  0  0  0  0  0
   20.2761   81.6613   18.6708 C   0  0  0  0  0  0  0  0  0  0  0  0
   20.3764   82.5237   17.5598 O   0  0  0  0  0  0  0  0  0  0  0  0
   25.6746   78.4293   18.0975 Cl  0  0  0  0  0  0  0  0  0  0  0  0
   24.4444   79.2272   17.1425 C   0  0  0  0  0  0  0  0  0  0  0  0
   23.1103   79.1714   17.4695 C   0  0  0  0  0  0  0  0  0  0  0  0
   22.1121   79.7921   16.7292 C   0  0  0  0  0  0  0  0  0  0  0  0
   22.5169   80.5008   15.6024 C   0  0  0  0  0  0  0  0  0  0  0  0
   23.8461   80.5728   15.2518 C   0  0  0  0  0  0  0  0  0  0  0  0
   24.8017   79.9393   16.0186 C   0  0  0  0  0  0  0  0  0  0  0  0
   19.8036   77.4499   16.3832 C   0  0  0  0  0  0  0  0  0  0  0  0
   20.7157   77.1402   15.4240 N   0  0  0  0  0  0  0  0  0  0  0  0
   20.4353   76.2885   14.4387 C   0  0  0  0  0  0  0  0  0  0  0  0
   19.1840   75.7167   14.4120 C   0  0  0  0  0  0  0  0  0  0  0  0
   18.2754   76.0446   15.3960 C   0  0  0  0  0  0  0  0  0  0  0  0
   18.5664   76.9068   16.3860 N   0  0  0  0  0  0  0  0  0  0  0  0
   21.6805   77.5720   15.4386 H   0  0  0  0  0  0  0  0  0  0  0  0
   20.0144   82.2410   19.9810 C   0  0  0  0  0  0  0  0  0  0  0  0
   21.0326   82.2587   20.9449 C   0  0  0  0  0  0  0  0  0  0  0  0
   20.8228   82.8263   22.1824 C   0  0  0  0  0  0  0  0  0  0  0  0
   19.6195   83.4005   22.5354 C   0  0  0  0  0  0  0  0  0  0  0  0
   18.6072   83.3944   21.6028 C   0  0  0  0  0  0  0  0  0  0  0  0
   18.8215   82.8184   20.3499 C   0  0  0  0  0  0  0  0  0  0  0  0
 10 11  1  0  0  0
 11 12  2  0  0  0
 11 16  1  0  0  0
 12 13  1  0  0  0
 13 14  2  0  0  0
 13  1  1  0  0  0
 14 15  1  0  0  0
 15 16  2  0  0  0
  1  2  1  0  0  0
  1  7  1  0  0  0
  2  3  1  0  0  0
  2 17  1  0  0  0
  3  4  2  0  0  0
  3  5  1  0  0  0
  5  6  2  0  0  0
  5  7  1  0  0  0
  7  8  2  0  0  0
  8  9  1  0  0  0
  8 24  1  0  0  0
 24 25  2  0  0  0
 24 29  1  0  0  0
 25 26  1  0  0  0
 26 27  2  0  0  0
 27 28  1  0  0  0
 28 29  2  0  0  0
 17 18  2  0  0  0
 17 22  1  0  0  0
 18 19  1  0  0  0
 19 20  2  0  0  0
 20 21  1  0  0  0
 21 22  2  0  0  0
 18 23  1  0  0  0
M  CHG 1   9  -1
M  END
> <minimizedAffinity>
-9.65659

$$$$
1637


 29 32  0  0  0  0  0  0  0  0999 V2000
   21.8454   78.5506   13.3726 C   0  0  0  0  0  0  0  0  0  0  0  0
   22.5024   79.1409   14.3774 N   0  0  0  0  0  0  0  0  0  0  0  0
   22.4409   78.7500   15.6468 C   0  0  0  0  0  0  0  0  0  0  0  0
   21.6201   77.6482   15.9371 C   0  0  0  0  0  0  0  0  0  0  0  0
   20.9597   77.0563   14.9196 C   0  0  0  0  0  0  0  0  0  0  0  0
   21.0784   77.5096   13.6400 N   0  0  0  0  0  0  0  0  0  0  0  0
   20.1586   75.9597   15.2016 O   0  0  0  0  0  0  0  0  0  0  0  0
   21.4743   77.3450   17.3631 C   0  0  0  0  0  0  0  0  0  0  0  0
   21.1330   78.5860   17.9872 N   0  0  0  0  0  0  0  0  0  0  0  0
   22.4897   79.2826   18.1068 C   0  0  0  0  0  0  0  0  0  0  0  0
   23.1487   79.4049   16.7783 C   0  0  0  0  0  0  0  0  0  0  0  0
   20.3979   75.2394   15.8905 H   0  0  0  0  0  0  0  0  0  0  0  0
   21.9626   79.2668   11.7545 S   0  0  0  0  0  0  0  0  0  0  0  0
   22.8073   78.4956   10.8698 O   0  0  0  0  0  0  0  0  0  0  0  0
   22.4737   80.6632   11.9445 O   0  0  0  0  0  0  0  0  0  0  0  0
   20.2563   79.3964   11.1649 C   0  0  0  0  0  0  0  0  0  0  0  0
   20.3999   79.5976   17.1432 C   0  0  0  0  0  0  0  0  0  0  0  0
   19.9966   80.5811   18.2451 C   0  0  0  0  0  0  0  0  0  0  0  0
   20.3622   81.8682   18.3208 C   0  0  0  0  0  0  0  0  0  0  0  0
   19.9605   82.7470   19.3631 C   0  0  0  0  0  0  0  0  0  0  0  0
   19.1318   82.1613   20.3246 C   0  0  0  0  0  0  0  0  0  0  0  0
   18.7138   82.9571   21.3505 C   0  0  0  0  0  0  0  0  0  0  0  0
   19.0646   84.3175   21.4965 C   0  0  0  0  0  0  0  0  0  0  0  0
   19.8955   84.8628   20.5007 C   0  0  0  0  0  0  0  0  0  0  0  0
   20.3060   84.0502   19.4817 C   0  0  0  0  0  0  0  0  0  0  0  0
   18.7656   80.9280   20.2539 O   0  0  0  0  0  0  0  0  0  0  0  0
   19.1625   80.1183   19.2601 C   0  0  0  0  0  0  0  0  0  0  0  0
   18.7962   78.8819   19.2098 O   0  0  0  0  0  0  0  0  0  0  0  0
   21.3333   82.5200   17.0446 Cl  0  0  0  0  0  0  0  0  0  0  0  0
 13 14  2  0  0  0
 13 15  2  0  0  0
 13 16  1  0  0  0
 13  1  1  0  0  0
  1  2  2  0  0  0
  1  6  1  0  0  0
  2  3  1  0  0  0
  3  4  2  0  0  0
  3 11  1  0  0  0
  4  5  1  0  0  0
  4  8  1  0  0  0
  5  6  2  0  0  0
  5  7  1  0  0  0
  8  9  1  0  0  0
  9 10  1  0  0  0
  9 17  1  0  0  0
 10 11  1  0  0  0
 17 18  1  0  0  0
 18 19  2  0  0  0
 18 27  1  0  0  0
 19 20  1  0  0  0
 19 29  1  0  0  0
 20 21  2  0  0  0
 20 25  1  0  0  0
 21 22  1  0  0  0
 21 26  1  0  0  0
 22 23  2  0  0  0
 23 24  1  0  0  0
 24 25  2  0  0  0
 26 27  1  0  0  0
 27 28  2  0  0  0
  7 12  1  0  0  0
M  END
> <minimizedAffinity>
-9.35552

$$$$
1638


 38 41  0  0  0  0  0  0  0  0999 V2000
   22.0045   78.5795   15.0245 C   0  0  0  0  0  0  0  0  0  0  0  0
   22.1599   79.4825   13.9810 C   0  0  0  0  0  0  0  0  0  0  0  0
   21.7951   79.1246   12.7203 N   0  0  0  0  0  0  0  0  0  0  0  0
   21.2835   77.9213   12.4281 C   0  0  0  0  0  0  0  0  0  0  0  0
   21.1313   77.0421   13.4338 N   0  0  0  0  0  0  0  0  0  0  0  0
   21.4764   77.3495   14.6956 C   0  0  0  0  0  0  0  0  0  0  0  0
   22.6965   80.7447   14.2933 N   0  0  0  0  0  0  0  0  0  0  0  0
   23.5660   81.1239   13.8649 H   0  0  0  0  0  0  0  0  0  0  0  0
   22.2078   81.3442   14.9896 H   0  0  0  0  0  0  0  0  0  0  0  0
   20.8976   77.5494   11.1068 N   0  0  0  0  0  0  0  0  0  0  0  0
   19.9126   76.5266   10.8524 C   0  0  0  0  0  0  0  0  0  0  0  0
   18.7720   76.9685    9.9782 C   0  0  0  0  0  0  0  0  0  0  0  0
   19.1556   78.1311    9.0776 C   0  0  0  0  0  0  0  0  0  0  0  0
   20.6378   77.8668    8.7618 C   0  0  0  0  0  0  0  0  0  0  0  0
   21.4886   78.1882    9.9447 C   0  0  0  0  0  0  0  0  0  0  0  0
   19.0326   79.3858    9.6491 N   0  0  0  0  0  0  0  0  0  0  0  0
   17.8047   80.0805    9.6732 C   0  0  0  0  0  0  0  0  0  0  0  0
   17.7833   80.9231   10.9598 C   0  0  0  0  0  0  0  0  0  0  0  0
   19.2081   81.1617   11.3804 C   0  0  0  0  0  0  0  0  0  0  0  0
   20.1195   81.4282   10.2096 C   0  0  0  0  0  0  0  0  0  0  0  0
   20.0277   80.3119    9.1824 C   0  0  0  0  0  0  0  0  0  0  0  0
   18.4371   77.9641    7.7939 C   0  0  0  0  0  0  0  0  0  0  0  0
   18.8158   78.5921    6.7481 O   0  0  0  0  0  0  0  0  0  0  0  0
   17.3239   77.1312    7.6362 N   0  0  0  0  0  0  0  0  0  0  0  0
   16.3711   77.5813    7.5591 H   0  0  0  0  0  0  0  0  0  0  0  0
   17.3262   76.0933    7.5775 H   0  0  0  0  0  0  0  0  0  0  0  0
   22.4573   78.9952   16.6645 S   0  0  0  0  0  0  0  0  0  0  0  0
   22.7934   77.7829   17.4703 O   0  0  0  0  0  0  0  0  0  0  0  0
   23.6163   79.9560   16.5833 O   0  0  0  0  0  0  0  0  0  0  0  0
   21.0963   79.8591   17.3953 C   0  0  0  0  0  0  0  0  0  0  0  0
   19.9548   79.1719   17.7543 C   0  0  0  0  0  0  0  0  0  0  0  0
   18.9196   79.8854   18.3207 C   0  0  0  0  0  0  0  0  0  0  0  0
   19.0075   81.2579   18.5300 C   0  0  0  0  0  0  0  0  0  0  0  0
   20.1643   81.9082   18.1583 C   0  0  0  0  0  0  0  0  0  0  0  0
   21.2176   81.2220   17.5891 C   0  0  0  0  0  0  0  0  0  0  0  0
   20.2937   83.6534   18.4170 Cl  0  0  0  0  0  0  0  0  0  0  0  0
   19.9042   77.8237   17.5326 O   0  0  0  0  0  0  0  0  0  0  0  0
   18.8486   77.1411   16.9160 C   0  0  0  0  0  0  0  0  0  0  0  0
 27 28  2  0  0  0
 27 29  2  0  0  0
 27  1  1  0  0  0
 27 30  1  0  0  0
  1  2  2  0  0  0
  1  6  1  0  0  0
  2  3  1  0  0  0
  2  7  1  0  0  0
  3  4  2  0  0  0
  4  5  1  0  0  0
  4 10  1  0  0  0
  5  6  2  0  0  0
 10 11  1  0  0  0
 10 15  1  0  0  0
 11 12  1  0  0  0
 12 13  1  0  0  0
 13 14  1  0  0  0
 13 16  1  0  0  0
 13 22  1  0  0  0
 14 15  1  0  0  0
 16 17  1  0  0  0
 16 21  1  0  0  0
 17 18  1  0  0  0
 18 19  1  0  0  0
 19 20  1  0  0  0
 20 21  1  0  0  0
 22 23  2  0  0  0
 22 24  1  0  0  0
 30 31  2  0  0  0
 30 35  1  0  0  0
 31 32  1  0  0  0
 31 37  1  0  0  0
 32 33  2  0  0  0
 33 34  1  0  0  0
 34 35  2  0  0  0
 34 36  1  0  0  0
 37 38  1  0  0  0
 24 25  1  0  0  0
 24 26  1  0  0  0
  7  8  1  0  0  0
  7  9  1  0  0  0
M  END
> <minimizedAffinity>
-7.05176

$$$$
1651


 23 26  0  0  0  0  0  0  0  0999 V2000
   26.5588   79.3990   16.5888 Cl  0  0  0  0  0  0  0  0  0  0  0  0
   24.9486   78.7746   16.2200 C   0  0  0  0  0  0  0  0  0  0  0  0
   23.8877   78.9668   17.0705 C   0  0  0  0  0  0  0  0  0  0  0  0
   22.6173   78.4605   16.7550 C   0  0  0  0  0  0  0  0  0  0  0  0
   22.3940   77.7654   15.6005 C   0  0  0  0  0  0  0  0  0  0  0  0
   23.4758   77.5644   14.7238 C   0  0  0  0  0  0  0  0  0  0  0  0
   24.7053   78.0729   15.0635 C   0  0  0  0  0  0  0  0  0  0  0  0
   21.0444   77.3464   15.4793 N   0  0  0  0  0  0  0  0  0  0  0  0
   20.3754   77.8107   16.6388 C   0  0  0  0  0  0  0  0  0  0  0  0
   19.1458   77.6157   16.8678 O   0  0  0  0  0  0  0  0  0  0  0  0
   21.3361   78.5368   17.4983 C   0  0  0  0  0  0  0  0  0  0  0  0
   21.4083   77.7800   18.8077 C   0  0  0  0  0  0  0  0  0  0  0  0
   20.0931   78.0425   19.4835 C   0  0  0  0  0  0  0  0  0  0  0  0
   19.3437   77.1371   19.8930 O   0  0  0  0  0  0  0  0  0  0  0  0
   19.7275   79.4188   19.6398 N   0  0  0  0  0  0  0  0  0  0  0  0
   20.1911   80.3768   18.6973 C   0  0  0  0  0  0  0  0  0  0  0  0
   20.0240   81.7225   18.5856 N   0  0  0  0  0  0  0  0  0  0  0  0
   20.6768   82.1294   17.5242 N   0  0  0  0  0  0  0  0  0  0  0  0
   21.2840   81.1029   16.9084 C   0  0  0  0  0  0  0  0  0  0  0  0
   20.9792   79.9581   17.6554 C   0  0  0  0  0  0  0  0  0  0  0  0
   20.4748   76.5824   14.3649 C   0  0  0  0  0  0  0  0  0  0  0  0
   19.1266   79.7299   20.4345 H   0  0  0  0  0  0  0  0  0  0  0  0
   19.4585   82.2839   19.2638 H   0  0  0  0  0  0  0  0  0  0  0  0
  1  2  1  0  0  0
  2  3  2  0  0  0
  2  7  1  0  0  0
  3  4  1  0  0  0
  4  5  2  0  0  0
  4 11  1  0  0  0
  5  6  1  0  0  0
  5  8  1  0  0  0
  6  7  2  0  0  0
  8  9  1  0  0  0
  8 21  1  0  0  0
  9 10  2  0  0  0
  9 11  1  0  0  0
 11 12  1  0  0  0
 11 20  1  0  0  0
 12 13  1  0  0  0
 13 14  2  0  0  0
 13 15  1  0  0  0
 15 16  1  0  0  0
 16 17  1  0  0  0
 16 20  2  0  0  0
 17 18  1  0  0  0
 18 19  2  0  0  0
 19 20  1  0  0  0
 15 22  1  0  0  0
 17 23  1  0  0  0
M  END
> <minimizedAffinity>
-9.54779

$$$$
1657


 33 36  0  0  0  0  0  0  0  0999 V2000
   19.9054   80.0982   20.0589 Cl  0  0  0  0  0  0  0  0  0  0  0  0
   20.7962   79.9940   18.5350 C   0  0  0  0  0  0  0  0  0  0  0  0
   21.9981   79.3219   18.4789 C   0  0  0  0  0  0  0  0  0  0  0  0
   22.6779   79.2420   17.3071 C   0  0  0  0  0  0  0  0  0  0  0  0
   22.1669   79.8417   16.1481 C   0  0  0  0  0  0  0  0  0  0  0  0
   20.9671   80.5070   16.2276 C   0  0  0  0  0  0  0  0  0  0  0  0
   20.2580   80.5975   17.4183 C   0  0  0  0  0  0  0  0  0  0  0  0
   22.8739   79.7614   14.9148 N   0  0  0  0  0  0  0  0  0  0  0  0
   23.7723   78.6388   14.6904 C   0  0  0  0  0  0  0  0  0  0  0  0
   24.5896   78.5283   15.8760 N   0  0  0  0  0  0  0  0  0  0  0  0
   23.9567   78.5544   17.1450 C   0  0  0  0  0  0  0  0  0  0  0  0
   24.4435   78.0056   18.1672 O   0  0  0  0  0  0  0  0  0  0  0  0
   24.6231   78.9437   13.5035 C   0  0  0  0  0  0  0  0  0  0  0  0
   23.9876   78.5461   12.1911 C   0  0  0  0  0  0  0  0  0  0  0  0
   22.6144   78.9954   12.0946 N   0  0  0  0  0  0  0  0  0  0  0  0
   21.5769   78.5656   13.0105 C   0  0  0  0  0  0  0  0  0  0  0  0
   20.4771   79.1510   12.8824 O   0  0  0  0  0  0  0  0  0  0  0  0
   21.6130   77.5466   14.0723 C   0  0  0  0  0  0  0  0  0  0  0  0
   23.0073   77.3352   14.5817 C   0  0  0  0  0  0  0  0  0  0  0  0
   22.7094   80.5233   14.2245 H   0  0  0  0  0  0  0  0  0  0  0  0
   25.6234   78.4294   15.8481 H   0  0  0  0  0  0  0  0  0  0  0  0
   22.2164   79.9074   11.1013 C   0  0  0  0  0  0  0  0  0  0  0  0
   21.8720   79.4892    9.7613 C   0  0  0  0  0  0  0  0  0  0  0  0
   22.9219   79.5852    8.9445 O   0  0  0  0  0  0  0  0  0  0  0  0
   20.6874   79.0283    9.2329 N   0  0  0  0  0  0  0  0  0  0  0  0
   20.6452   78.6732    7.7907 C   0  0  0  0  0  0  0  0  0  0  0  0
   19.9016   77.3285    7.7605 C   0  0  0  0  0  0  0  0  0  0  0  0
   19.9637   76.6709    9.0227 N   0  0  0  0  0  0  0  0  0  0  0  0
   19.2387   77.2948   10.0890 C   0  0  0  0  0  0  0  0  0  0  0  0
   19.4686   78.8224    9.9111 C   0  0  0  0  0  0  0  0  0  0  0  0
   19.8801   75.2502    8.9950 C   0  0  0  0  0  0  0  0  0  0  0  0
   18.9460   74.6732   10.0388 C   0  0  0  0  0  0  0  0  0  0  0  0
   19.5149   74.6945    7.6455 C   0  0  0  0  0  0  0  0  0  0  0  0
  1  2  1  0  0  0
  2  3  2  0  0  0
  2  7  1  0  0  0
  3  4  1  0  0  0
  4  5  2  0  0  0
  4 11  1  0  0  0
  5  6  1  0  0  0
  5  8  1  0  0  0
  6  7  2  0  0  0
  8  9  1  0  0  0
  9 10  1  0  0  0
  9 13  1  0  0  0
  9 19  1  0  0  0
 10 11  1  0  0  0
 11 12  2  0  0  0
 13 14  1  0  0  0
 14 15  1  0  0  0
 15 16  1  0  0  0
 15 22  1  0  0  0
 16 17  2  0  0  0
 16 18  1  0  0  0
 18 19  1  0  0  0
 22 23  1  0  0  0
 23 24  2  0  0  0
 23 25  1  0  0  0
 25 26  1  0  0  0
 25 30  1  0  0  0
 26 27  1  0  0  0
 27 28  1  0  0  0
 28 29  1  0  0  0
 28 31  1  0  0  0
 29 30  1  0  0  0
 31 32  1  0  0  0
 31 33  1  0  0  0
  8 20  1  0  0  0
 10 21  1  0  0  0
M  END
> <minimizedAffinity>
-8.28146

$$$$
1660


 31 34  0  0  0  0  0  0  0  0999 V2000
   19.4353   76.3985   11.1634 N   0  0  0  0  0  0  0  0  0  0  0  0
   19.3044   76.9794   10.0014 N   0  0  0  0  0  0  0  0  0  0  0  0
   20.0108   78.1111    9.9089 C   0  0  0  0  0  0  0  0  0  0  0  0
   20.6589   78.2771   11.1254 C   0  0  0  0  0  0  0  0  0  0  0  0
   20.2705   77.1791   11.8863 C   0  0  0  0  0  0  0  0  0  0  0  0
   20.7675   77.1120   13.1243 N   0  0  0  0  0  0  0  0  0  0  0  0
   21.6018   78.0590   13.6066 C   0  0  0  0  0  0  0  0  0  0  0  0
   21.9941   79.1286   12.8968 N   0  0  0  0  0  0  0  0  0  0  0  0
   21.5085   79.2323   11.6325 C   0  0  0  0  0  0  0  0  0  0  0  0
   21.8470   80.2177   10.9304 O   0  0  0  0  0  0  0  0  0  0  0  0
   17.0559   71.1132   12.6161 Cl  0  0  0  0  0  0  0  0  0  0  0  0
   17.7306   72.6689   12.2521 C   0  0  0  0  0  0  0  0  0  0  0  0
   17.9484   73.6520   13.1902 C   0  0  0  0  0  0  0  0  0  0  0  0
   18.4910   74.8838   12.8803 C   0  0  0  0  0  0  0  0  0  0  0  0
   18.8428   75.1820   11.5895 C   0  0  0  0  0  0  0  0  0  0  0  0
   18.6180   74.1852   10.6550 C   0  0  0  0  0  0  0  0  0  0  0  0
   18.0784   72.9508   10.9439 C   0  0  0  0  0  0  0  0  0  0  0  0
   22.9106   80.1513   13.4103 C   0  0  0  0  0  0  0  0  0  0  0  0
   23.6305   79.6960   14.6127 C   0  0  0  0  0  0  0  0  0  0  0  0
   24.7414   79.1024   14.3768 O   0  0  0  0  0  0  0  0  0  0  0  0
   23.2315   79.8471   15.9385 N   0  0  0  0  0  0  0  0  0  0  0  0
   24.0271   79.2824   17.0399 C   0  0  0  0  0  0  0  0  0  0  0  0
   23.1138   78.2119   17.6518 C   0  0  0  0  0  0  0  0  0  0  0  0
   21.8247   78.7716   17.9622 N   0  0  0  0  0  0  0  0  0  0  0  0
   21.6375   80.1911   17.7271 C   0  0  0  0  0  0  0  0  0  0  0  0
   22.0481   80.5799   16.3303 C   0  0  0  0  0  0  0  0  0  0  0  0
   20.7722   77.9683   18.4530 C   0  0  0  0  0  0  0  0  0  0  0  0
   20.9986   76.7079   18.5803 O   0  0  0  0  0  0  0  0  0  0  0  0
   19.5169   78.4027   18.8146 O   0  0  0  0  0  0  0  0  0  0  0  0
   19.2894   79.0157   20.0983 C   0  0  0  0  0  0  0  0  0  0  0  0
   18.9306   80.4639   19.8177 C   0  0  0  0  0  0  0  0  0  0  0  0
 11 12  1  0  0  0
 12 13  2  0  0  0
 12 17  1  0  0  0
 13 14  1  0  0  0
 14 15  2  0  0  0
 15 16  1  0  0  0
 15  1  1  0  0  0
 16 17  2  0  0  0
  1  2  1  0  0  0
  1  5  1  0  0  0
  2  3  2  0  0  0
  3  4  1  0  0  0
  4  5  2  0  0  0
  4  9  1  0  0  0
  5  6  1  0  0  0
  6  7  2  0  0  0
  7  8  1  0  0  0
  8  9  1  0  0  0
  8 18  1  0  0  0
  9 10  2  0  0  0
 18 19  1  0  0  0
 19 20  2  0  0  0
 19 21  1  0  0  0
 21 22  1  0  0  0
 21 26  1  0  0  0
 22 23  1  0  0  0
 23 24  1  0  0  0
 24 25  1  0  0  0
 24 27  1  0  0  0
 25 26  1  0  0  0
 27 28  2  0  0  0
 27 29  1  0  0  0
 29 30  1  0  0  0
 30 31  1  0  0  0
M  END
> <minimizedAffinity>
-9.78360

$$$$
1666


 30 34  0  0  0  0  0  0  0  0999 V2000
   20.8803   79.2470    9.6242 N   0  0  0  0  0  0  0  0  0  0  0  0
   20.9876   80.6485    9.9335 C   0  0  0  0  0  0  0  0  0  0  0  0
   22.1525   80.9288   10.8549 C   0  0  0  0  0  0  0  0  0  0  0  0
   22.0506   80.0860   12.0727 N   0  0  0  0  0  0  0  0  0  0  0  0
   22.1779   78.6973   11.6547 C   0  0  0  0  0  0  0  0  0  0  0  0
   21.9775   78.5026   10.1619 C   0  0  0  0  0  0  0  0  0  0  0  0
   19.3483   78.5667    9.7228 S   0  0  0  0  0  0  0  0  0  0  0  0
   19.2192   77.8996   11.0862 O   0  0  0  0  0  0  0  0  0  0  0  0
   18.3363   79.7118    9.7810 O   0  0  0  0  0  0  0  0  0  0  0  0
   18.8626   77.5216    8.4496 C   0  0  0  0  0  0  0  0  0  0  0  0
   19.4879   76.3144    8.2527 C   0  0  0  0  0  0  0  0  0  0  0  0
   19.0627   75.4940    7.2231 C   0  0  0  0  0  0  0  0  0  0  0  0
   18.0263   75.8415    6.3759 C   0  0  0  0  0  0  0  0  0  0  0  0
   17.4015   77.0542    6.5776 C   0  0  0  0  0  0  0  0  0  0  0  0
   17.8295   77.8781    7.6126 C   0  0  0  0  0  0  0  0  0  0  0  0
   17.4405   74.7130    4.9551 Br  0  0  0  0  0  0  0  0  0  0  0  0
   23.2108   80.4653   12.8501 C   0  0  0  0  0  0  0  0  0  0  0  0
   23.6979   79.5209   13.8648 C   0  0  0  0  0  0  0  0  0  0  0  0
   22.8806   79.2016   14.9857 N   0  0  0  0  0  0  0  0  0  0  0  0
   22.0479   80.0258   15.7935 C   0  0  0  0  0  0  0  0  0  0  0  0
   22.1940   81.2451   15.9629 O   0  0  0  0  0  0  0  0  0  0  0  0
   20.9839   79.1865   16.3951 C   0  0  0  0  0  0  0  0  0  0  0  0
   21.7213   77.8314   16.4936 C   0  0  0  0  0  0  0  0  0  0  0  0
   22.1955   77.7371   17.8948 C   0  0  0  0  0  0  0  0  0  0  0  0
   22.2570   79.2150   18.3163 C   0  0  0  0  0  0  0  0  0  0  0  0
   20.8251   79.5116   17.8371 C   0  0  0  0  0  0  0  0  0  0  0  0
   20.1211   78.3451   18.4678 C   0  0  0  0  0  0  0  0  0  0  0  0
   20.9867   77.3653   18.7281 C   0  0  0  0  0  0  0  0  0  0  0  0
   22.7475   77.8437   15.4610 C   0  0  0  0  0  0  0  0  0  0  0  0
   23.3857   76.8322   15.0759 O   0  0  0  0  0  0  0  0  0  0  0  0
  7  8  2  0  0  0
  7  9  2  0  0  0
  7  1  1  0  0  0
  7 10  1  0  0  0
  1  2  1  0  0  0
  1  6  1  0  0  0
  2  3  1  0  0  0
  3  4  1  0  0  0
  4  5  1  0  0  0
  4 17  1  0  0  0
  5  6  1  0  0  0
 17 18  1  0  0  0
 18 19  1  0  0  0
 19 20  1  0  0  0
 19 29  1  0  0  0
 20 21  2  0  0  0
 20 22  1  0  0  0
 22 23  1  0  0  0
 22 26  1  0  0  0
 23 24  1  0  0  0
 23 29  1  0  0  0
 24 25  1  0  0  0
 24 28  1  0  0  0
 25 26  1  0  0  0
 26 27  1  0  0  0
 27 28  2  0  0  0
 29 30  2  0  0  0
 10 11  2  0  0  0
 10 15  1  0  0  0
 11 12  1  0  0  0
 12 13  2  0  0  0
 13 14  1  0  0  0
 13 16  1  0  0  0
 14 15  2  0  0  0
M  END
> <minimizedAffinity>
-10.25448

$$$$
1673


 35 38  0  0  0  0  0  0  0  0999 V2000
   22.4188   77.7266   15.0200 C   0  0  0  0  0  0  0  0  0  0  0  0
   21.2104   76.8849   15.3310 C   0  0  0  0  0  0  0  0  0  0  0  0
   20.6887   77.3474   16.5389 N   0  0  0  0  0  0  0  0  0  0  0  0
   21.9215   77.6121   17.3196 C   0  0  0  0  0  0  0  0  0  0  0  0
   22.0729   77.4901   18.5651 O   0  0  0  0  0  0  0  0  0  0  0  0
   22.9334   78.0465   16.3702 C   0  0  0  0  0  0  0  0  0  0  0  0
   24.0352   78.5898   16.6668 O   0  0  0  0  0  0  0  0  0  0  0  0
   20.4607   76.4145   14.1936 C   0  0  0  0  0  0  0  0  0  0  0  0
   20.2832   77.0886   13.0267 C   0  0  0  0  0  0  0  0  0  0  0  0
   19.5578   76.5383   11.9815 C   0  0  0  0  0  0  0  0  0  0  0  0
   18.9965   75.2618   12.1365 C   0  0  0  0  0  0  0  0  0  0  0  0
   19.1757   74.5860   13.3095 C   0  0  0  0  0  0  0  0  0  0  0  0
   19.8890   75.1264   14.3335 C   0  0  0  0  0  0  0  0  0  0  0  0
   18.2644   74.6683   11.1274 O   0  0  0  0  0  0  0  0  0  0  0  0
   19.3653   77.1855   10.8034 O   0  0  0  0  0  0  0  0  0  0  0  0
   20.3525   77.3731    9.8421 C   0  0  0  0  0  0  0  0  0  0  0  0
   19.9647   78.3563    8.7521 C   0  0  0  0  0  0  0  0  0  0  0  0
   22.1426   78.9433   14.2561 C   0  0  0  0  0  0  0  0  0  0  0  0
   21.5207   79.9111   14.8168 O   0  0  0  0  0  0  0  0  0  0  0  0
   23.6904   80.1490    8.3894 Br  0  0  0  0  0  0  0  0  0  0  0  0
   23.1995   79.7684   10.2144 C   0  0  0  0  0  0  0  0  0  0  0  0
   23.8375   78.7917   10.9343 C   0  0  0  0  0  0  0  0  0  0  0  0
   23.5225   78.4769   12.2521 C   0  0  0  0  0  0  0  0  0  0  0  0
   22.5162   79.1843   12.8697 C   0  0  0  0  0  0  0  0  0  0  0  0
   21.8786   80.1696   12.1313 C   0  0  0  0  0  0  0  0  0  0  0  0
   22.1902   80.4796   10.8284 C   0  0  0  0  0  0  0  0  0  0  0  0
   19.4553   77.5085   17.2433 C   0  0  0  0  0  0  0  0  0  0  0  0
   19.4529   78.4234   18.4088 C   0  0  0  0  0  0  0  0  0  0  0  0
   18.7132   79.6129   18.4293 N   0  0  0  0  0  0  0  0  0  0  0  0
   18.7976   80.3170   19.7155 C   0  0  0  0  0  0  0  0  0  0  0  0
   20.1817   80.7733   20.0345 C   0  0  0  0  0  0  0  0  0  0  0  0
   20.9989   80.5789   18.9445 O   0  0  0  0  0  0  0  0  0  0  0  0
   20.4191   81.2437   17.8512 C   0  0  0  0  0  0  0  0  0  0  0  0
   19.1871   80.5121   17.3620 C   0  0  0  0  0  0  0  0  0  0  0  0
   17.7235   79.4654   18.2477 H   0  0  0  0  0  0  0  0  0  0  0  0
 20 21  1  0  0  0
 21 22  2  0  0  0
 21 26  1  0  0  0
 22 23  1  0  0  0
 23 24  2  0  0  0
 24 25  1  0  0  0
 24 18  1  0  0  0
 25 26  2  0  0  0
 18 19  2  0  0  0
 18  1  1  0  0  0
  1  2  1  0  0  0
  1  6  1  0  0  0
  2  3  1  0  0  0
  2  8  1  0  0  0
  3  4  1  0  0  0
  3 27  1  0  0  0
  4  5  2  0  0  0
  4  6  1  0  0  0
  6  7  2  0  0  0
 27 28  1  0  0  0
 28 29  1  0  0  0
 29 30  1  0  0  0
 29 34  1  0  0  0
 30 31  1  0  0  0
 31 32  1  0  0  0
 32 33  1  0  0  0
 33 34  1  0  0  0
  8  9  2  0  0  0
  8 13  1  0  0  0
  9 10  1  0  0  0
 10 11  2  0  0  0
 10 15  1  0  0  0
 11 12  1  0  0  0
 11 14  1  0  0  0
 12 13  2  0  0  0
 15 16  1  0  0  0
 16 17  1  0  0  0
 29 35  1  0  0  0
M  CHG 1  14  -1
M  CHG 1  29   1
M  END
> <minimizedAffinity>
-8.76818

$$$$
1676


 25 28  0  0  0  0  0  0  0  0999 V2000
   20.4990   81.2688   17.6811 C   0  0  0  0  0  0  0  0  0  0  0  0
   19.4858   81.2985   16.9566 O   0  0  0  0  0  0  0  0  0  0  0  0
   20.8344   82.4219   18.4349 N   0  0  0  0  0  0  0  0  0  0  0  0
   21.6720   82.4111   19.0394 H   0  0  0  0  0  0  0  0  0  0  0  0
   25.1002   78.8189   16.6003 Br  0  0  0  0  0  0  0  0  0  0  0  0
   23.3128   78.8649   17.2769 C   0  0  0  0  0  0  0  0  0  0  0  0
   22.7389   77.7344   17.8178 C   0  0  0  0  0  0  0  0  0  0  0  0
   21.4546   77.7463   18.3103 C   0  0  0  0  0  0  0  0  0  0  0  0
   20.6541   76.8151   18.8827 N   0  0  0  0  0  0  0  0  0  0  0  0
   19.5032   77.3994   19.1614 N   0  0  0  0  0  0  0  0  0  0  0  0
   19.5042   78.6540   18.8056 N   0  0  0  0  0  0  0  0  0  0  0  0
   20.7249   78.9088   18.2621 C   0  0  0  0  0  0  0  0  0  0  0  0
   21.2953   80.0471   17.7194 C   0  0  0  0  0  0  0  0  0  0  0  0
   22.5911   80.0286   17.2252 C   0  0  0  0  0  0  0  0  0  0  0  0
   18.7770   79.3949   18.8768 H   0  0  0  0  0  0  0  0  0  0  0  0
   20.0284   83.6165   18.3766 C   0  0  0  0  0  0  0  0  0  0  0  0
   19.6293   84.0035   19.7746 C   0  0  0  0  0  0  0  0  0  0  0  0
   19.7947   83.2792   20.8930 N   0  0  0  0  0  0  0  0  0  0  0  0
   19.3164   83.9438   21.9668 C   0  0  0  0  0  0  0  0  0  0  0  0
   18.8447   85.1063   21.4999 N   0  0  0  0  0  0  0  0  0  0  0  0
   19.0325   85.1446   20.1718 N   0  0  0  0  0  0  0  0  0  0  0  0
   19.4368   83.2518   23.2794 C   0  0  0  0  0  0  0  0  0  0  0  0
   20.9256   82.8942   23.3954 C   0  0  0  0  0  0  0  0  0  0  0  0
   21.4228   82.1186   22.2198 C   0  0  0  0  0  0  0  0  0  0  0  0
   20.3658   81.9752   21.1463 C   0  0  0  0  0  0  0  0  0  0  0  0
  5  6  1  0  0  0
  6  7  2  0  0  0
  6 14  1  0  0  0
  7  8  1  0  0  0
  8  9  1  0  0  0
  8 12  2  0  0  0
  9 10  2  0  0  0
 10 11  1  0  0  0
 11 12  1  0  0  0
 12 13  1  0  0  0
 13 14  2  0  0  0
 13  1  1  0  0  0
  1  2  2  0  0  0
  1  3  1  0  0  0
  3 16  1  0  0  0
 16 17  1  0  0  0
 17 18  1  0  0  0
 17 21  2  0  0  0
 18 19  1  0  0  0
 18 25  1  0  0  0
 19 20  2  0  0  0
 19 22  1  0  0  0
 20 21  1  0  0  0
 22 23  1  0  0  0
 23 24  1  0  0  0
 24 25  1  0  0  0
 11 15  1  0  0  0
  3  4  1  0  0  0
M  END
> <minimizedAffinity>
-9.70533

$$$$
1687


 27 30  0  0  0  0  0  0  0  0999 V2000
   20.6269   76.8233   14.4566 N   0  0  0  0  0  0  0  0  0  0  0  0
   20.1667   76.8394   15.7278 C   0  0  0  0  0  0  0  0  0  0  0  0
   20.8983   77.3731   16.7658 C   0  0  0  0  0  0  0  0  0  0  0  0
   22.2132   77.9432   16.4995 C   0  0  0  0  0  0  0  0  0  0  0  0
   22.6798   78.3780   17.6787 N   0  0  0  0  0  0  0  0  0  0  0  0
   21.7868   78.1359   18.6511 N   0  0  0  0  0  0  0  0  0  0  0  0
   20.7107   77.5334   18.1217 C   0  0  0  0  0  0  0  0  0  0  0  0
   19.7072   77.1816   18.7824 O   0  0  0  0  0  0  0  0  0  0  0  0
   22.6535   77.9095   15.1869 C   0  0  0  0  0  0  0  0  0  0  0  0
   21.8388   77.3541   14.2394 C   0  0  0  0  0  0  0  0  0  0  0  0
   21.9611   78.4010   19.6535 H   0  0  0  0  0  0  0  0  0  0  0  0
   23.9647   78.4709   14.8818 C   0  0  0  0  0  0  0  0  0  0  0  0
   24.0327   79.5505   14.2414 O   0  0  0  0  0  0  0  0  0  0  0  0
   25.1222   77.8526   15.2736 O   0  0  0  0  0  0  0  0  0  0  0  0
   25.2337   76.4390   15.3130 C   0  0  0  0  0  0  0  0  0  0  0  0
   19.8252   76.2499   13.3813 C   0  0  0  0  0  0  0  0  0  0  0  0
   18.8233   75.3014   14.0025 C   0  0  0  0  0  0  0  0  0  0  0  0
   15.9638   69.4941   11.2974 Cl  0  0  0  0  0  0  0  0  0  0  0  0
   16.8670   70.8400   11.9915 C   0  0  0  0  0  0  0  0  0  0  0  0
   18.2002   70.7318   12.3264 C   0  0  0  0  0  0  0  0  0  0  0  0
   18.8574   71.8189   12.8669 C   0  0  0  0  0  0  0  0  0  0  0  0
   20.1356   72.0196   13.2888 N   0  0  0  0  0  0  0  0  0  0  0  0
   20.2547   73.2818   13.7367 C   0  0  0  0  0  0  0  0  0  0  0  0
   19.0754   73.9283   13.6209 N   0  0  0  0  0  0  0  0  0  0  0  0
   18.2293   73.0280   13.0894 C   0  0  0  0  0  0  0  0  0  0  0  0
   16.8997   73.1462   12.7579 C   0  0  0  0  0  0  0  0  0  0  0  0
   16.2494   72.0550   12.2185 C   0  0  0  0  0  0  0  0  0  0  0  0
 18 19  1  0  0  0
 19 20  2  0  0  0
 19 27  1  0  0  0
 20 21  1  0  0  0
 21 22  1  0  0  0
 21 25  2  0  0  0
 22 23  2  0  0  0
 23 24  1  0  0  0
 24 25  1  0  0  0
 24 17  1  0  0  0
 25 26  1  0  0  0
 26 27  2  0  0  0
 17 16  1  0  0  0
 16  1  1  0  0  0
  1  2  1  0  0  0
  1 10  1  0  0  0
  2  3  2  0  0  0
  3  4  1  0  0  0
  3  7  1  0  0  0
  4  5  2  0  0  0
  4  9  1  0  0  0
  5  6  1  0  0  0
  6  7  1  0  0  0
  7  8  2  0  0  0
  9 10  2  0  0  0
  9 12  1  0  0  0
 12 13  2  0  0  0
 12 14  1  0  0  0
 14 15  1  0  0  0
  6 11  1  0  0  0
M  END
> <minimizedAffinity>
-9.28998

$$$$
1689


 32 35  0  0  0  0  0  0  0  0999 V2000
   22.0087   78.9383   11.5432 C   0  0  0  0  0  0  0  0  0  0  0  0
   22.6090   78.3127   10.6353 O   0  0  0  0  0  0  0  0  0  0  0  0
   22.7489   79.3669   12.6652 N   0  0  0  0  0  0  0  0  0  0  0  0
   22.3350   80.0870   13.8518 C   0  0  0  0  0  0  0  0  0  0  0  0
   23.0890   79.4378   14.9244 C   0  0  0  0  0  0  0  0  0  0  0  0
   24.1408   78.5449   14.2624 C   0  0  0  0  0  0  0  0  0  0  0  0
   24.1614   79.1545   12.8447 C   0  0  0  0  0  0  0  0  0  0  0  0
   25.3761   78.6372   14.8531 O   0  0  0  0  0  0  0  0  0  0  0  0
   25.8820   79.3582   14.4011 H   0  0  0  0  0  0  0  0  0  0  0  0
   22.4419   78.7724   15.9872 N   0  0  0  0  0  0  0  0  0  0  0  0
   21.2640   78.1492   15.7129 C   0  0  0  0  0  0  0  0  0  0  0  0
   20.5579   77.4705   16.6804 C   0  0  0  0  0  0  0  0  0  0  0  0
   21.0351   77.4047   17.9684 C   0  0  0  0  0  0  0  0  0  0  0  0
   20.4052   76.7867   18.8786 O   0  0  0  0  0  0  0  0  0  0  0  0
   22.1970   78.0190   18.2389 N   0  0  0  0  0  0  0  0  0  0  0  0
   22.8373   78.6618   17.2593 C   0  0  0  0  0  0  0  0  0  0  0  0
   23.9138   79.2128   17.5670 O   0  0  0  0  0  0  0  0  0  0  0  0
   19.2612   76.7876   16.3621 C   0  0  0  0  0  0  0  0  0  0  0  0
   22.5885   77.9854   19.2306 H   0  0  0  0  0  0  0  0  0  0  0  0
   20.5609   79.1870   11.3833 C   0  0  0  0  0  0  0  0  0  0  0  0
   19.9833   78.2697   10.3487 C   0  0  0  0  0  0  0  0  0  0  0  0
   17.5277   71.1418   11.7369 Cl  0  0  0  0  0  0  0  0  0  0  0  0
   18.1295   72.7638   11.9812 C   0  0  0  0  0  0  0  0  0  0  0  0
   18.3517   73.5939   10.8905 C   0  0  0  0  0  0  0  0  0  0  0  0
   18.8262   74.8827   11.0667 C   0  0  0  0  0  0  0  0  0  0  0  0
   19.1344   75.8965   10.2431 N   0  0  0  0  0  0  0  0  0  0  0  0
   19.5727   76.9816   10.9389 C   0  0  0  0  0  0  0  0  0  0  0  0
   19.5227   76.5927   12.2408 N   0  0  0  0  0  0  0  0  0  0  0  0
   19.0770   75.3339   12.3400 C   0  0  0  0  0  0  0  0  0  0  0  0
   18.8546   74.5053   13.4189 C   0  0  0  0  0  0  0  0  0  0  0  0
   18.3791   73.2116   13.2601 C   0  0  0  0  0  0  0  0  0  0  0  0
   19.0310   75.8072    9.2018 H   0  0  0  0  0  0  0  0  0  0  0  0
 22 23  1  0  0  0
 23 24  2  0  0  0
 23 31  1  0  0  0
 24 25  1  0  0  0
 25 26  1  0  0  0
 25 29  2  0  0  0
 26 27  1  0  0  0
 27 28  2  0  0  0
 27 21  1  0  0  0
 28 29  1  0  0  0
 29 30  1  0  0  0
 30 31  2  0  0  0
 21 20  1  0  0  0
 20  1  1  0  0  0
  1  2  2  0  0  0
  1  3  1  0  0  0
  3  4  1  0  0  0
  3  7  1  0  0  0
  4  5  1  0  0  0
  5  6  1  0  0  0
  5 10  1  0  0  0
  6  7  1  0  0  0
  6  8  1  0  0  0
 10 11  1  0  0  0
 10 16  1  0  0  0
 11 12  2  0  0  0
 12 13  1  0  0  0
 12 18  1  0  0  0
 13 14  2  0  0  0
 13 15  1  0  0  0
 15 16  1  0  0  0
 16 17  2  0  0  0
 26 32  1  0  0  0
  8  9  1  0  0  0
 15 19  1  0  0  0
M  END
> <minimizedAffinity>
-10.27183

$$$$
1690


 34 37  0  0  0  0  0  0  0  0999 V2000
   21.1880   77.5290   13.9508 C   0  0  0  0  0  0  0  0  0  0  0  0
   20.8894   78.0911   12.8661 O   0  0  0  0  0  0  0  0  0  0  0  0
   21.8954   78.2335   14.9702 N   0  0  0  0  0  0  0  0  0  0  0  0
   22.2726   77.6529   16.2395 C   0  0  0  0  0  0  0  0  0  0  0  0
   22.1478   78.6959   17.3634 C   0  0  0  0  0  0  0  0  0  0  0  0
   21.1182   79.6757   16.9152 C   0  0  0  0  0  0  0  0  0  0  0  0
   21.6892   80.5238   15.8019 C   0  0  0  0  0  0  0  0  0  0  0  0
   22.2650   79.6133   14.7370 C   0  0  0  0  0  0  0  0  0  0  0  0
   21.7404   77.9700   18.4925 O   0  0  0  0  0  0  0  0  0  0  0  0
   23.5155   79.2591   17.5876 C   0  0  0  0  0  0  0  0  0  0  0  0
   22.5610   77.6574   18.9920 H   0  0  0  0  0  0  0  0  0  0  0  0
   20.4885   80.4336   17.9380 N   0  0  0  0  0  0  0  0  0  0  0  0
   20.8385   81.6882   18.2577 C   0  0  0  0  0  0  0  0  0  0  0  0
   20.1993   82.3995   19.2653 C   0  0  0  0  0  0  0  0  0  0  0  0
   19.1738   81.8000   19.9588 C   0  0  0  0  0  0  0  0  0  0  0  0
   18.5856   82.4465   20.8809 O   0  0  0  0  0  0  0  0  0  0  0  0
   18.8263   80.5459   19.6376 N   0  0  0  0  0  0  0  0  0  0  0  0
   19.4757   79.9002   18.6537 C   0  0  0  0  0  0  0  0  0  0  0  0
   19.1403   78.7013   18.3501 O   0  0  0  0  0  0  0  0  0  0  0  0
   20.6358   83.8040   19.5775 C   0  0  0  0  0  0  0  0  0  0  0  0
   18.0513   80.0813   20.1547 H   0  0  0  0  0  0  0  0  0  0  0  0
   20.8172   76.1249   14.1973 C   0  0  0  0  0  0  0  0  0  0  0  0
   19.3213   75.9982   14.2211 C   0  0  0  0  0  0  0  0  0  0  0  0
   15.6841   69.9391   11.2256 Cl  0  0  0  0  0  0  0  0  0  0  0  0
   16.9256   70.9601   11.9141 C   0  0  0  0  0  0  0  0  0  0  0  0
   16.6922   72.2797   12.2604 C   0  0  0  0  0  0  0  0  0  0  0  0
   17.6746   73.0746   12.8012 C   0  0  0  0  0  0  0  0  0  0  0  0
   17.7054   74.3491   13.2117 N   0  0  0  0  0  0  0  0  0  0  0  0
   18.9429   74.6717   13.6781 C   0  0  0  0  0  0  0  0  0  0  0  0
   19.6572   73.5648   13.5400 N   0  0  0  0  0  0  0  0  0  0  0  0
   18.9347   72.5718   13.0134 C   0  0  0  0  0  0  0  0  0  0  0  0
   19.1922   71.2615   12.6766 C   0  0  0  0  0  0  0  0  0  0  0  0
   18.1972   70.4599   12.1309 C   0  0  0  0  0  0  0  0  0  0  0  0
   16.9020   75.0353   13.1911 H   0  0  0  0  0  0  0  0  0  0  0  0
 24 25  1  0  0  0
 25 26  2  0  0  0
 25 33  1  0  0  0
 26 27  1  0  0  0
 27 28  1  0  0  0
 27 31  2  0  0  0
 28 29  1  0  0  0
 29 30  2  0  0  0
 29 23  1  0  0  0
 30 31  1  0  0  0
 31 32  1  0  0  0
 32 33  2  0  0  0
 23 22  1  0  0  0
 22  1  1  0  0  0
  1  2  2  0  0  0
  1  3  1  0  0  0
  3  4  1  0  0  0
  3  8  1  0  0  0
  4  5  1  0  0  0
  5  6  1  0  0  0
  5  9  1  0  0  0
  5 10  1  0  0  0
  6  7  1  0  0  0
  6 12  1  0  0  0
  7  8  1  0  0  0
 12 13  1  0  0  0
 12 18  1  0  0  0
 13 14  2  0  0  0
 14 15  1  0  0  0
 14 20  1  0  0  0
 15 16  2  0  0  0
 15 17  1  0  0  0
 17 18  1  0  0  0
 18 19  2  0  0  0
 28 34  1  0  0  0
 17 21  1  0  0  0
  9 11  1  0  0  0
M  END
> <minimizedAffinity>
-11.53455

$$$$
1691


 35 39  0  0  0  0  0  0  0  0999 V2000
   21.7995   78.4266   12.6066 C   0  0  0  0  0  0  0  0  0  0  0  0
   20.5803   78.5825   12.4024 O   0  0  0  0  0  0  0  0  0  0  0  0
   22.2463   77.8644   13.8133 N   0  0  0  0  0  0  0  0  0  0  0  0
   21.5399   77.3989   14.9643 C   0  0  0  0  0  0  0  0  0  0  0  0
   22.3856   77.8935   16.1624 C   0  0  0  0  0  0  0  0  0  0  0  0
   23.7475   77.7711   15.5761 C   0  0  0  0  0  0  0  0  0  0  0  0
   23.6480   77.6229   14.0955 C   0  0  0  0  0  0  0  0  0  0  0  0
   24.4546   76.6659   16.0482 O   0  0  0  0  0  0  0  0  0  0  0  0
   23.8771   76.0696   16.6027 H   0  0  0  0  0  0  0  0  0  0  0  0
   21.9920   79.2373   16.4774 N   0  0  0  0  0  0  0  0  0  0  0  0
   21.2039   79.6560   17.4815 C   0  0  0  0  0  0  0  0  0  0  0  0
   21.0900   81.0593   17.4090 C   0  0  0  0  0  0  0  0  0  0  0  0
   21.8227   81.4360   16.3486 N   0  0  0  0  0  0  0  0  0  0  0  0
   22.3674   80.3622   15.7818 C   0  0  0  0  0  0  0  0  0  0  0  0
   20.3355   81.7629   18.3207 C   0  0  0  0  0  0  0  0  0  0  0  0
   20.2530   83.0171   18.2300 O   0  0  0  0  0  0  0  0  0  0  0  0
   19.7146   81.0682   19.2809 N   0  0  0  0  0  0  0  0  0  0  0  0
   19.8277   79.7407   19.3425 C   0  0  0  0  0  0  0  0  0  0  0  0
   19.2360   79.1015   20.2521 O   0  0  0  0  0  0  0  0  0  0  0  0
   20.5624   78.9924   18.4638 N   0  0  0  0  0  0  0  0  0  0  0  0
   20.6379   77.5713   18.5893 C   0  0  0  0  0  0  0  0  0  0  0  0
   18.9048   81.7885   20.2662 C   0  0  0  0  0  0  0  0  0  0  0  0
   22.7626   78.8372   11.5733 C   0  0  0  0  0  0  0  0  0  0  0  0
   22.1214   79.8093   10.6084 C   0  0  0  0  0  0  0  0  0  0  0  0
   18.3476   74.6064    6.3858 Cl  0  0  0  0  0  0  0  0  0  0  0  0
   18.7958   76.0970    7.2064 C   0  0  0  0  0  0  0  0  0  0  0  0
   19.9484   76.1936    7.9504 C   0  0  0  0  0  0  0  0  0  0  0  0
   20.2681   77.3939    8.5861 C   0  0  0  0  0  0  0  0  0  0  0  0
   21.2955   77.7835    9.3588 N   0  0  0  0  0  0  0  0  0  0  0  0
   21.1514   79.0650    9.7397 C   0  0  0  0  0  0  0  0  0  0  0  0
   20.0096   79.4824    9.1922 N   0  0  0  0  0  0  0  0  0  0  0  0
   19.4394   78.4899    8.4781 C   0  0  0  0  0  0  0  0  0  0  0  0
   18.2835   78.3919    7.7332 C   0  0  0  0  0  0  0  0  0  0  0  0
   17.9760   77.1861    7.1027 C   0  0  0  0  0  0  0  0  0  0  0  0
   22.0934   77.1420    9.6147 H   0  0  0  0  0  0  0  0  0  0  0  0
 25 26  1  0  0  0
 26 27  2  0  0  0
 26 34  1  0  0  0
 27 28  1  0  0  0
 28 29  1  0  0  0
 28 32  2  0  0  0
 29 30  1  0  0  0
 30 31  2  0  0  0
 30 24  1  0  0  0
 31 32  1  0  0  0
 32 33  1  0  0  0
 33 34  2  0  0  0
 24 23  1  0  0  0
 23  1  1  0  0  0
  1  2  2  0  0  0
  1  3  1  0  0  0
  3  4  1  0  0  0
  3  7  1  0  0  0
  4  5  1  0  0  0
  5  6  1  0  0  0
  5 10  1  0  0  0
  6  7  1  0  0  0
  6  8  1  0  0  0
 10 11  1  0  0  0
 10 14  1  0  0  0
 11 12  2  0  0  0
 11 20  1  0  0  0
 12 13  1  0  0  0
 12 15  1  0  0  0
 13 14  2  0  0  0
 15 16  2  0  0  0
 15 17  1  0  0  0
 17 18  1  0  0  0
 17 22  1  0  0  0
 18 19  2  0  0  0
 18 20  1  0  0  0
 20 21  1  0  0  0
 29 35  1  0  0  0
  8  9  1  0  0  0
M  END
> <minimizedAffinity>
-10.41683

$$$$
1699


 31 34  0  0  0  0  0  0  0  0999 V2000
   20.4055   81.7449   20.8763 Cl  0  0  0  0  0  0  0  0  0  0  0  0
   20.2162   80.5303   19.6539 C   0  0  0  0  0  0  0  0  0  0  0  0
   21.2801   80.1650   18.8418 C   0  0  0  0  0  0  0  0  0  0  0  0
   21.1447   79.1998   17.8648 C   0  0  0  0  0  0  0  0  0  0  0  0
   19.9229   78.6054   17.7146 C   0  0  0  0  0  0  0  0  0  0  0  0
   18.8267   78.9447   18.5136 C   0  0  0  0  0  0  0  0  0  0  0  0
   18.9970   79.9118   19.4793 C   0  0  0  0  0  0  0  0  0  0  0  0
   19.9756   77.6611   16.6535 N   0  0  0  0  0  0  0  0  0  0  0  0
   21.2901   77.6720   16.1184 C   0  0  0  0  0  0  0  0  0  0  0  0
   21.6063   76.9384   15.1265 O   0  0  0  0  0  0  0  0  0  0  0  0
   22.0758   78.6173   16.9006 C   0  0  0  0  0  0  0  0  0  0  0  0
   23.2134   77.9731   17.5624 N   0  0  0  0  0  0  0  0  0  0  0  0
   24.1235   77.8056   16.4517 C   0  0  0  0  0  0  0  0  0  0  0  0
   24.0122   79.0464   15.6265 C   0  0  0  0  0  0  0  0  0  0  0  0
   22.7599   79.6946   16.1348 C   0  0  0  0  0  0  0  0  0  0  0  0
   22.0026   80.2000   14.9633 C   0  0  0  0  0  0  0  0  0  0  0  0
   20.9675   80.9016   15.1068 O   0  0  0  0  0  0  0  0  0  0  0  0
   22.6646   79.7455   13.7943 N   0  0  0  0  0  0  0  0  0  0  0  0
   23.6306   78.7705   14.2040 C   0  0  0  0  0  0  0  0  0  0  0  0
   24.1023   77.8429   13.5385 O   0  0  0  0  0  0  0  0  0  0  0  0
   19.1753   77.0481   16.3165 H   0  0  0  0  0  0  0  0  0  0  0  0
   23.6147   78.7033   18.1927 H   0  0  0  0  0  0  0  0  0  0  0  0
   25.5333   77.5177   16.9000 C   0  0  0  0  0  0  0  0  0  0  0  0
   26.1933   76.8950   15.8480 O   0  0  0  0  0  0  0  0  0  0  0  0
   26.2752   78.7621   17.3148 C   0  0  0  0  0  0  0  0  0  0  0  0
   26.8120   77.5046   15.3704 H   0  0  0  0  0  0  0  0  0  0  0  0
   22.4275   80.1736   12.4679 C   0  0  0  0  0  0  0  0  0  0  0  0
   21.4641   79.4291   11.6300 C   0  0  0  0  0  0  0  0  0  0  0  0
   21.9905   78.6865   10.4628 C   0  0  0  0  0  0  0  0  0  0  0  0
   23.3617   78.7494   10.2671 O   0  0  0  0  0  0  0  0  0  0  0  0
   23.5848   79.4855    9.0784 C   0  0  0  0  0  0  0  0  0  0  0  0
  1  2  1  0  0  0
  2  3  2  0  0  0
  2  7  1  0  0  0
  3  4  1  0  0  0
  4  5  2  0  0  0
  4 11  1  0  0  0
  5  6  1  0  0  0
  5  8  1  0  0  0
  6  7  2  0  0  0
  8  9  1  0  0  0
  9 10  2  0  0  0
  9 11  1  0  0  0
 11 12  1  0  0  0
 11 15  1  0  0  0
 12 13  1  0  0  0
 13 14  1  0  0  0
 13 23  1  0  0  0
 14 15  1  0  0  0
 14 19  1  0  0  0
 15 16  1  0  0  0
 16 17  2  0  0  0
 16 18  1  0  0  0
 18 19  1  0  0  0
 18 27  1  0  0  0
 19 20  2  0  0  0
 27 28  1  0  0  0
 28 29  1  0  0  0
 29 30  1  0  0  0
 30 31  1  0  0  0
 23 24  1  0  0  0
 23 25  1  0  0  0
  8 21  1  0  0  0
 12 22  1  0  0  0
 24 26  1  0  0  0
M  END
> <minimizedAffinity>
-7.73030

$$$$
1706


 25 28  0  0  0  0  0  0  0  0999 V2000
   25.1922   77.2568   14.4050 F   0  0  0  0  0  0  0  0  0  0  0  0
   24.5698   77.8218   15.4935 C   0  0  0  0  0  0  0  0  0  0  0  0
   23.1847   77.6653   15.6295 C   0  0  0  0  0  0  0  0  0  0  0  0
   22.5493   78.2169   16.7003 C   0  0  0  0  0  0  0  0  0  0  0  0
   23.2760   78.9359   17.6593 C   0  0  0  0  0  0  0  0  0  0  0  0
   24.6276   79.0731   17.5020 C   0  0  0  0  0  0  0  0  0  0  0  0
   25.2887   78.5253   16.4291 C   0  0  0  0  0  0  0  0  0  0  0  0
   27.0369   78.7056   16.2310 Cl  0  0  0  0  0  0  0  0  0  0  0  0
   21.0993   77.9045   16.6039 C   0  0  0  0  0  0  0  0  0  0  0  0
   20.3547   79.1235   16.5636 N   0  0  0  0  0  0  0  0  0  0  0  0
   19.9495   79.7692   17.7506 C   0  0  0  0  0  0  0  0  0  0  0  0
   19.5442   81.0656   17.7639 N   0  0  0  0  0  0  0  0  0  0  0  0
   19.1514   81.7238   18.8590 C   0  0  0  0  0  0  0  0  0  0  0  0
   19.1456   81.0610   20.0815 C   0  0  0  0  0  0  0  0  0  0  0  0
   19.5394   79.7544   20.1552 C   0  0  0  0  0  0  0  0  0  0  0  0
   19.9317   79.1383   18.9865 C   0  0  0  0  0  0  0  0  0  0  0  0
   20.3713   77.7400   18.9586 C   0  0  0  0  0  0  0  0  0  0  0  0
   20.3717   77.1188   20.0755 O   0  0  0  0  0  0  0  0  0  0  0  0
   20.7729   77.1032   17.7707 N   0  0  0  0  0  0  0  0  0  0  0  0
   20.9734   77.1218   15.3695 C   0  0  0  0  0  0  0  0  0  0  0  0
   19.8966   76.6273   14.8698 O   0  0  0  0  0  0  0  0  0  0  0  0
   22.2446   76.9827   14.7891 N   0  0  0  0  0  0  0  0  0  0  0  0
   20.0888   79.5703   15.6522 H   0  0  0  0  0  0  0  0  0  0  0  0
   20.8226   76.0584   17.7770 H   0  0  0  0  0  0  0  0  0  0  0  0
   22.5223   76.4833   13.9029 H   0  0  0  0  0  0  0  0  0  0  0  0
  1  2  1  0  0  0
  2  3  2  0  0  0
  2  7  1  0  0  0
  3  4  1  0  0  0
  3 22  1  0  0  0
  4  5  2  0  0  0
  4  9  1  0  0  0
  5  6  1  0  0  0
  6  7  2  0  0  0
  7  8  1  0  0  0
  9 10  1  0  0  0
  9 19  1  0  0  0
  9 20  1  0  0  0
 10 11  1  0  0  0
 11 12  2  0  0  0
 11 16  1  0  0  0
 12 13  1  0  0  0
 13 14  2  0  0  0
 14 15  1  0  0  0
 15 16  2  0  0  0
 16 17  1  0  0  0
 17 18  2  0  0  0
 17 19  1  0  0  0
 20 21  2  0  0  0
 20 22  1  0  0  0
 10 23  1  0  0  0
 19 24  1  0  0  0
 22 25  1  0  0  0
M  END
> <minimizedAffinity>
-10.06845

$$$$
1711


 30 33  0  0  0  0  0  0  0  0999 V2000
   22.7983   77.6286   14.0730 N   0  0  0  0  0  0  0  0  0  0  0  0
   23.7398   77.7069   15.1343 C   0  0  0  0  0  0  0  0  0  0  0  0
   23.1433   77.4064   16.4862 C   0  0  0  0  0  0  0  0  0  0  0  0
   21.7693   77.8238   16.5885 N   0  0  0  0  0  0  0  0  0  0  0  0
   20.8360   77.4405   15.5566 C   0  0  0  0  0  0  0  0  0  0  0  0
   21.6075   76.9254   14.3813 C   0  0  0  0  0  0  0  0  0  0  0  0
   21.2941   78.6025   17.6723 C   0  0  0  0  0  0  0  0  0  0  0  0
   22.0932   78.9378   18.5679 O   0  0  0  0  0  0  0  0  0  0  0  0
   22.6717   78.9713   13.0735 S   0  0  0  0  0  0  0  0  0  0  0  0
   22.0782   80.1202   13.8773 O   0  0  0  0  0  0  0  0  0  0  0  0
   24.0698   79.4303   12.7054 O   0  0  0  0  0  0  0  0  0  0  0  0
   21.7977   78.7365   11.6079 C   0  0  0  0  0  0  0  0  0  0  0  0
   20.4604   78.3789   11.6531 C   0  0  0  0  0  0  0  0  0  0  0  0
   19.7136   78.1789   10.5099 C   0  0  0  0  0  0  0  0  0  0  0  0
   20.3411   78.3476    9.2891 C   0  0  0  0  0  0  0  0  0  0  0  0
   21.6740   78.7034    9.2593 C   0  0  0  0  0  0  0  0  0  0  0  0
   22.4323   78.9068   10.3938 C   0  0  0  0  0  0  0  0  0  0  0  0
   19.3575   78.0847    7.6541 Br  0  0  0  0  0  0  0  0  0  0  0  0
   19.8799   79.0276   17.7708 C   0  0  0  0  0  0  0  0  0  0  0  0
   19.7659   80.3123   18.3974 N   0  0  0  0  0  0  0  0  0  0  0  0
   19.0512   80.6935   19.5652 C   0  0  0  0  0  0  0  0  0  0  0  0
   18.3730   79.9071   20.2620 O   0  0  0  0  0  0  0  0  0  0  0  0
   19.2548   82.1159   19.7840 C   0  0  0  0  0  0  0  0  0  0  0  0
   20.0668   82.6108   18.7911 C   0  0  0  0  0  0  0  0  0  0  0  0
   20.4018   83.9583   18.7926 C   0  0  0  0  0  0  0  0  0  0  0  0
   19.9436   84.8098   19.7595 C   0  0  0  0  0  0  0  0  0  0  0  0
   19.1194   84.3213   20.7727 C   0  0  0  0  0  0  0  0  0  0  0  0
   18.7971   82.9724   20.7530 C   0  0  0  0  0  0  0  0  0  0  0  0
   20.4008   81.4997   17.9093 C   0  0  0  0  0  0  0  0  0  0  0  0
   21.1372   81.6374   16.8976 O   0  0  0  0  0  0  0  0  0  0  0  0
  9 10  2  0  0  0
  9 11  2  0  0  0
  9  1  1  0  0  0
  9 12  1  0  0  0
  1  2  1  0  0  0
  1  6  1  0  0  0
  2  3  1  0  0  0
  3  4  1  0  0  0
  4  5  1  0  0  0
  4  7  1  0  0  0
  5  6  1  0  0  0
  7  8  2  0  0  0
  7 19  1  0  0  0
 19 20  1  0  0  0
 20 21  1  0  0  0
 20 29  1  0  0  0
 21 22  2  0  0  0
 21 23  1  0  0  0
 23 24  2  0  0  0
 23 28  1  0  0  0
 24 25  1  0  0  0
 24 29  1  0  0  0
 25 26  2  0  0  0
 26 27  1  0  0  0
 27 28  2  0  0  0
 29 30  2  0  0  0
 12 13  2  0  0  0
 12 17  1  0  0  0
 13 14  1  0  0  0
 14 15  2  0  0  0
 15 16  1  0  0  0
 15 18  1  0  0  0
 16 17  2  0  0  0
M  END
> <minimizedAffinity>
-10.82237

$$$$
1718


 34 38  0  0  0  0  0  0  0  0999 V2000
   18.2331   74.4934   13.6575 Cl  0  0  0  0  0  0  0  0  0  0  0  0
   19.3684   75.8141   13.4976 C   0  0  0  0  0  0  0  0  0  0  0  0
   19.9511   76.2983   14.6695 C   0  0  0  0  0  0  0  0  0  0  0  0
   20.8504   77.3378   14.5853 C   0  0  0  0  0  0  0  0  0  0  0  0
   21.1345   77.8583   13.3213 C   0  0  0  0  0  0  0  0  0  0  0  0
   20.5535   77.3739   12.1693 C   0  0  0  0  0  0  0  0  0  0  0  0
   19.6537   76.3322   12.2546 C   0  0  0  0  0  0  0  0  0  0  0  0
   21.3470   77.7038   15.9116 C   0  0  0  0  0  0  0  0  0  0  0  0
   22.7923   77.6294   16.0139 N   0  0  0  0  0  0  0  0  0  0  0  0
   23.1395   78.4873   17.1388 C   0  0  0  0  0  0  0  0  0  0  0  0
   22.1364   79.6078   17.1397 C   0  0  0  0  0  0  0  0  0  0  0  0
   20.9739   79.1127   16.3152 C   0  0  0  0  0  0  0  0  0  0  0  0
   19.7975   79.1296   17.2205 C   0  0  0  0  0  0  0  0  0  0  0  0
   18.6864   78.6432   16.8700 O   0  0  0  0  0  0  0  0  0  0  0  0
   20.1508   79.7494   18.4455 N   0  0  0  0  0  0  0  0  0  0  0  0
   21.5682   79.7417   18.5254 C   0  0  0  0  0  0  0  0  0  0  0  0
   22.2978   79.8288   19.5532 O   0  0  0  0  0  0  0  0  0  0  0  0
   20.6696   76.7763   16.8315 C   0  0  0  0  0  0  0  0  0  0  0  0
   20.7968   76.7115   18.1087 O   0  0  0  0  0  0  0  0  0  0  0  0
   19.8343   75.9473   16.0422 N   0  0  0  0  0  0  0  0  0  0  0  0
   23.2635   77.9416   15.1353 H   0  0  0  0  0  0  0  0  0  0  0  0
   19.2107   75.1775   16.4083 H   0  0  0  0  0  0  0  0  0  0  0  0
   19.2562   80.2814   19.4082 C   0  0  0  0  0  0  0  0  0  0  0  0
   19.3766   81.7188   19.7259 C   0  0  0  0  0  0  0  0  0  0  0  0
   19.9562   82.4976   18.7360 O   0  0  0  0  0  0  0  0  0  0  0  0
   19.8196   83.7728   19.2857 C   0  0  0  0  0  0  0  0  0  0  0  0
   20.2521   83.6153   20.7489 C   0  0  0  0  0  0  0  0  0  0  0  0
   20.1490   82.0922   20.9370 C   0  0  0  0  0  0  0  0  0  0  0  0
   24.5459   78.9789   16.9611 C   0  0  0  0  0  0  0  0  0  0  0  0
   25.0145   78.4962   15.6231 C   0  0  0  0  0  0  0  0  0  0  0  0
   25.7498   77.4757   15.6189 O   0  0  0  0  0  0  0  0  0  0  0  0
   24.6599   79.1409   14.4109 N   0  0  0  0  0  0  0  0  0  0  0  0
   23.6896   79.0212   14.0596 H   0  0  0  0  0  0  0  0  0  0  0  0
   25.3091   79.7273   13.8506 H   0  0  0  0  0  0  0  0  0  0  0  0
  1  2  1  0  0  0
  2  3  2  0  0  0
  2  7  1  0  0  0
  3  4  1  0  0  0
  3 20  1  0  0  0
  4  5  2  0  0  0
  4  8  1  0  0  0
  5  6  1  0  0  0
  6  7  2  0  0  0
  8  9  1  0  0  0
  8 12  1  0  0  0
  8 18  1  0  0  0
  9 10  1  0  0  0
 10 11  1  0  0  0
 10 29  1  0  0  0
 11 12  1  0  0  0
 11 16  1  0  0  0
 12 13  1  0  0  0
 13 14  2  0  0  0
 13 15  1  0  0  0
 15 16  1  0  0  0
 15 23  1  0  0  0
 16 17  2  0  0  0
 23 24  1  0  0  0
 24 25  1  0  0  0
 24 28  1  0  0  0
 25 26  1  0  0  0
 26 27  1  0  0  0
 27 28  1  0  0  0
 29 30  1  0  0  0
 30 31  2  0  0  0
 30 32  1  0  0  0
 18 19  2  0  0  0
 18 20  1  0  0  0
  9 21  1  0  0  0
 32 33  1  0  0  0
 32 34  1  0  0  0
 20 22  1  0  0  0
M  END
> <minimizedAffinity>
-8.45191

$$$$
1721


 28 31  0  0  0  0  0  0  0  0999 V2000
   22.9952   78.4000   17.5662 C   0  0  0  0  0  0  0  0  0  0  0  0
   21.6399   78.3793   18.0939 C   0  0  0  0  0  0  0  0  0  0  0  0
   21.4208   77.3190   18.9016 O   0  0  0  0  0  0  0  0  0  0  0  0
   20.5746   79.2187   17.9207 N   0  0  0  0  0  0  0  0  0  0  0  0
   20.4648   80.3421   17.0541 C   0  0  0  0  0  0  0  0  0  0  0  0
   20.2908   81.6442   17.8326 C   0  0  0  0  0  0  0  0  0  0  0  0
   19.5845   81.2833   19.0282 N   0  0  0  0  0  0  0  0  0  0  0  0
   18.5980   80.2468   18.9353 C   0  0  0  0  0  0  0  0  0  0  0  0
   19.3629   78.9283   18.7780 C   0  0  0  0  0  0  0  0  0  0  0  0
   19.8217   81.9050   20.2670 C   0  0  0  0  0  0  0  0  0  0  0  0
   18.9433   82.8023   20.8020 N   0  0  0  0  0  0  0  0  0  0  0  0
   19.1064   83.4212   21.9579 C   0  0  0  0  0  0  0  0  0  0  0  0
   20.2083   83.2054   22.7369 C   0  0  0  0  0  0  0  0  0  0  0  0
   21.1436   82.3032   22.2516 C   0  0  0  0  0  0  0  0  0  0  0  0
   20.9504   81.6651   21.0363 C   0  0  0  0  0  0  0  0  0  0  0  0
   23.2479   77.5597   16.4569 N   0  0  0  0  0  0  0  0  0  0  0  0
   24.0372   76.9077   16.4567 H   0  0  0  0  0  0  0  0  0  0  0  0
   19.4223   75.6202   13.6588 Cl  0  0  0  0  0  0  0  0  0  0  0  0
   20.6522   76.8162   13.9727 C   0  0  0  0  0  0  0  0  0  0  0  0
   20.8437   77.8487   13.1624 N   0  0  0  0  0  0  0  0  0  0  0  0
   21.7600   78.8083   13.3281 C   0  0  0  0  0  0  0  0  0  0  0  0
   22.1239   79.9134   12.6578 N   0  0  0  0  0  0  0  0  0  0  0  0
   23.1351   80.5127   13.3089 C   0  0  0  0  0  0  0  0  0  0  0  0
   23.3920   79.7600   14.3952 N   0  0  0  0  0  0  0  0  0  0  0  0
   22.5734   78.6992   14.4528 C   0  0  0  0  0  0  0  0  0  0  0  0
   22.3830   77.6335   15.2993 C   0  0  0  0  0  0  0  0  0  0  0  0
   21.4411   76.7098   15.0655 N   0  0  0  0  0  0  0  0  0  0  0  0
   24.1254   79.9317   15.1337 H   0  0  0  0  0  0  0  0  0  0  0  0
 18 19  1  0  0  0
 19 20  2  0  0  0
 19 27  1  0  0  0
 20 21  1  0  0  0
 21 22  1  0  0  0
 21 25  2  0  0  0
 22 23  2  0  0  0
 23 24  1  0  0  0
 24 25  1  0  0  0
 25 26  1  0  0  0
 26 27  2  0  0  0
 26 16  1  0  0  0
 16  1  1  0  0  0
  1  2  1  0  0  0
  2  3  2  0  0  0
  2  4  1  0  0  0
  4  5  1  0  0  0
  4  9  1  0  0  0
  5  6  1  0  0  0
  6  7  1  0  0  0
  7  8  1  0  0  0
  7 10  1  0  0  0
  8  9  1  0  0  0
 10 11  2  0  0  0
 10 15  1  0  0  0
 11 12  1  0  0  0
 12 13  2  0  0  0
 13 14  1  0  0  0
 14 15  2  0  0  0
 24 28  1  0  0  0
 16 17  1  0  0  0
M  END
> <minimizedAffinity>
-9.53851

$$$$
1726


 30 33  0  0  0  0  0  0  0  0999 V2000
   22.7994   78.9465   17.4452 C   0  0  0  0  0  0  0  0  0  0  0  0
   21.3977   79.2974   17.3251 N   0  0  0  0  0  0  0  0  0  0  0  0
   20.6932   78.5657   18.3240 C   0  0  0  0  0  0  0  0  0  0  0  0
   19.7763   79.3766   19.1841 C   0  0  0  0  0  0  0  0  0  0  0  0
   20.4663   80.2493   20.1716 C   0  0  0  0  0  0  0  0  0  0  0  0
   20.3247   81.6592   19.9383 N   0  0  0  0  0  0  0  0  0  0  0  0
   20.0322   82.2112   18.7457 C   0  0  0  0  0  0  0  0  0  0  0  0
   19.8982   83.5514   18.5231 C   0  0  0  0  0  0  0  0  0  0  0  0
   20.0697   84.4182   19.5832 C   0  0  0  0  0  0  0  0  0  0  0  0
   20.3683   83.8627   20.8046 C   0  0  0  0  0  0  0  0  0  0  0  0
   20.4967   82.5074   20.9928 C   0  0  0  0  0  0  0  0  0  0  0  0
   20.7714   82.0348   22.1263 O   0  0  0  0  0  0  0  0  0  0  0  0
   19.8582   81.2083   17.6276 C   0  0  0  0  0  0  0  0  0  0  0  0
   21.2028   80.6957   17.2939 C   0  0  0  0  0  0  0  0  0  0  0  0
   18.9145   80.1810   18.2035 C   0  0  0  0  0  0  0  0  0  0  0  0
   21.0980   78.9095   16.3791 H   0  0  0  0  0  0  0  0  0  0  0  0
   23.1247   77.5732   16.9522 C   0  0  0  0  0  0  0  0  0  0  0  0
   24.3340   77.1479   17.4993 O   0  0  0  0  0  0  0  0  0  0  0  0
   25.0488   77.6067   16.9730 H   0  0  0  0  0  0  0  0  0  0  0  0
   23.2048   77.6624   15.4287 C   0  0  0  0  0  0  0  0  0  0  0  0
   21.9438   78.0723   14.9851 O   0  0  0  0  0  0  0  0  0  0  0  0
   20.0795   75.9441   13.9578 Br  0  0  0  0  0  0  0  0  0  0  0  0
   20.7007   77.4999   13.0509 C   0  0  0  0  0  0  0  0  0  0  0  0
   21.5570   78.3479   13.7165 C   0  0  0  0  0  0  0  0  0  0  0  0
   21.9973   79.4681   13.0473 C   0  0  0  0  0  0  0  0  0  0  0  0
   21.5864   79.7323   11.7370 C   0  0  0  0  0  0  0  0  0  0  0  0
   20.7258   78.8617   11.0963 C   0  0  0  0  0  0  0  0  0  0  0  0
   20.2807   77.7480   11.7459 C   0  0  0  0  0  0  0  0  0  0  0  0
   20.2710   79.1218    9.6951 C   0  0  0  0  0  0  0  0  0  0  0  0
   23.1824   80.6606   13.9390 Br  0  0  0  0  0  0  0  0  0  0  0  0
 22 23  1  0  0  0
 23 24  2  0  0  0
 23 28  1  0  0  0
 24 25  1  0  0  0
 24 21  1  0  0  0
 25 26  2  0  0  0
 25 30  1  0  0  0
 26 27  1  0  0  0
 27 28  2  0  0  0
 27 29  1  0  0  0
 21 20  1  0  0  0
 20 17  1  0  0  0
 17 18  1  0  0  0
 17  1  1  0  0  0
  1  2  1  0  0  0
  2  3  1  0  0  0
  2 14  1  0  0  0
  3  4  1  0  0  0
  4  5  1  0  0  0
  4 15  1  0  0  0
  5  6  1  0  0  0
  6  7  1  0  0  0
  6 11  1  0  0  0
  7  8  2  0  0  0
  7 13  1  0  0  0
  8  9  1  0  0  0
  9 10  2  0  0  0
 10 11  1  0  0  0
 11 12  2  0  0  0
 13 14  1  0  0  0
 13 15  1  0  0  0
 18 19  1  0  0  0
  2 16  1  0  0  0
M  CHG 1   2   1
M  END
> <minimizedAffinity>
-9.59420

$$$$
1732


 28 31  0  0  0  0  0  0  0  0999 V2000
   20.3395   80.2600   17.3434 N   0  0  0  0  0  0  0  0  0  0  0  0
   20.8204   81.2982   16.6797 N   0  0  0  0  0  0  0  0  0  0  0  0
   22.0420   81.0246   16.2353 N   0  0  0  0  0  0  0  0  0  0  0  0
   22.3590   79.7717   16.6244 C   0  0  0  0  0  0  0  0  0  0  0  0
   21.2848   79.3363   17.3031 N   0  0  0  0  0  0  0  0  0  0  0  0
   23.5998   79.0588   16.3586 C   0  0  0  0  0  0  0  0  0  0  0  0
   23.5960   78.0982   15.3743 C   0  0  0  0  0  0  0  0  0  0  0  0
   24.7770   77.4199   15.1225 C   0  0  0  0  0  0  0  0  0  0  0  0
   25.9307   77.6776   15.8190 C   0  0  0  0  0  0  0  0  0  0  0  0
   25.9365   78.6410   16.8076 C   0  0  0  0  0  0  0  0  0  0  0  0
   24.7556   79.3179   17.0572 C   0  0  0  0  0  0  0  0  0  0  0  0
   22.4366   77.7743   14.6079 N   0  0  0  0  0  0  0  0  0  0  0  0
   21.5751   76.8186   14.9321 N   0  0  0  0  0  0  0  0  0  0  0  0
   20.6260   76.7783   14.0236 N   0  0  0  0  0  0  0  0  0  0  0  0
   20.8866   77.7149   13.1145 N   0  0  0  0  0  0  0  0  0  0  0  0
   22.0245   78.3401   13.4826 C   0  0  0  0  0  0  0  0  0  0  0  0
   19.0233   80.1516   17.9929 C   0  0  0  0  0  0  0  0  0  0  0  0
   19.8865   81.6459   19.8231 N   0  0  0  0  0  0  0  0  0  0  0  0
   19.1068   80.5620   19.4194 C   0  0  0  0  0  0  0  0  0  0  0  0
   18.4478   79.8902   20.2343 O   0  0  0  0  0  0  0  0  0  0  0  0
   20.4093   82.1500   19.0459 H   0  0  0  0  0  0  0  0  0  0  0  0
   18.2067   84.1305   20.3122 Br  0  0  0  0  0  0  0  0  0  0  0  0
   19.3900   83.3050   21.5380 C   0  0  0  0  0  0  0  0  0  0  0  0
   20.0765   82.1635   21.1218 C   0  0  0  0  0  0  0  0  0  0  0  0
   20.9216   81.6147   22.0682 C   0  0  0  0  0  0  0  0  0  0  0  0
   21.0809   82.1587   23.3449 C   0  0  0  0  0  0  0  0  0  0  0  0
   20.3779   83.2839   23.6955 C   0  0  0  0  0  0  0  0  0  0  0  0
   19.5232   83.8645   22.7851 C   0  0  0  0  0  0  0  0  0  0  0  0
 22 23  1  0  0  0
 23 24  2  0  0  0
 23 28  1  0  0  0
 24 25  1  0  0  0
 24 18  1  0  0  0
 25 26  2  0  0  0
 26 27  1  0  0  0
 27 28  2  0  0  0
 18 19  1  0  0  0
 19 20  2  0  0  0
 19 17  1  0  0  0
 17  1  1  0  0  0
  1  2  1  0  0  0
  1  5  1  0  0  0
  2  3  2  0  0  0
  3  4  1  0  0  0
  4  5  2  0  0  0
  4  6  1  0  0  0
  6  7  1  0  0  0
  6 11  2  0  0  0
  7  8  2  0  0  0
  7 12  1  0  0  0
  8  9  1  0  0  0
  9 10  2  0  0  0
 10 11  1  0  0  0
 12 13  1  0  0  0
 12 16  1  0  0  0
 13 14  2  0  0  0
 14 15  1  0  0  0
 15 16  2  0  0  0
 18 21  1  0  0  0
M  END
> <minimizedAffinity>
-10.35717

$$$$
1736


 35 39  0  0  0  0  0  0  0  0999 V2000
   18.6894   75.3443   13.8502 Cl  0  0  0  0  0  0  0  0  0  0  0  0
   19.3597   76.3140   15.1719 C   0  0  0  0  0  0  0  0  0  0  0  0
   20.6536   76.7699   15.1259 C   0  0  0  0  0  0  0  0  0  0  0  0
   21.1640   77.5193   16.1522 C   0  0  0  0  0  0  0  0  0  0  0  0
   20.3686   77.8114   17.2314 C   0  0  0  0  0  0  0  0  0  0  0  0
   19.0501   77.3626   17.3062 C   0  0  0  0  0  0  0  0  0  0  0  0
   18.5667   76.6116   16.2584 C   0  0  0  0  0  0  0  0  0  0  0  0
   21.0669   78.5884   18.1864 N   0  0  0  0  0  0  0  0  0  0  0  0
   22.3732   78.7887   17.6673 C   0  0  0  0  0  0  0  0  0  0  0  0
   23.2896   79.4265   18.2287 O   0  0  0  0  0  0  0  0  0  0  0  0
   22.4984   78.1284   16.3541 C   0  0  0  0  0  0  0  0  0  0  0  0
   23.5584   77.1505   16.3251 N   0  0  0  0  0  0  0  0  0  0  0  0
   24.1641   77.2023   15.0316 C   0  0  0  0  0  0  0  0  0  0  0  0
   24.0739   78.6355   14.5615 C   0  0  0  0  0  0  0  0  0  0  0  0
   22.8644   79.1257   15.3159 C   0  0  0  0  0  0  0  0  0  0  0  0
   21.8090   79.3727   14.3029 C   0  0  0  0  0  0  0  0  0  0  0  0
   20.5640   79.4480   14.4586 O   0  0  0  0  0  0  0  0  0  0  0  0
   22.4994   79.5202   13.0450 N   0  0  0  0  0  0  0  0  0  0  0  0
   23.7222   78.7592   13.1238 C   0  0  0  0  0  0  0  0  0  0  0  0
   24.3851   78.2803   12.1674 O   0  0  0  0  0  0  0  0  0  0  0  0
   20.7253   78.9677   19.1177 H   0  0  0  0  0  0  0  0  0  0  0  0
   23.1924   76.2207   16.5530 H   0  0  0  0  0  0  0  0  0  0  0  0
   25.5958   76.7116   15.0594 C   0  0  0  0  0  0  0  0  0  0  0  0
   25.5733   75.3711   15.4336 O   0  0  0  0  0  0  0  0  0  0  0  0
   26.2886   77.4619   16.1921 C   0  0  0  0  0  0  0  0  0  0  0  0
   25.4214   75.3020   16.4032 H   0  0  0  0  0  0  0  0  0  0  0  0
   22.0625   80.2880   11.8983 C   0  0  0  0  0  0  0  0  0  0  0  0
   21.3764   79.3960   10.9161 C   0  0  0  0  0  0  0  0  0  0  0  0
   21.7097   79.4299    9.5786 C   0  0  0  0  0  0  0  0  0  0  0  0
   21.0594   78.5928    8.6881 C   0  0  0  0  0  0  0  0  0  0  0  0
   20.0765   77.7125    9.0962 C   0  0  0  0  0  0  0  0  0  0  0  0
   19.7356   77.6709   10.4300 C   0  0  0  0  0  0  0  0  0  0  0  0
   20.3894   78.5077   11.3049 C   0  0  0  0  0  0  0  0  0  0  0  0
   22.7052   80.3219    9.1672 O   0  0  0  0  0  0  0  0  0  0  0  0
   23.9607   79.7858    8.7365 C   0  0  0  0  0  0  0  0  0  0  0  0
  1  2  1  0  0  0
  2  3  2  0  0  0
  2  7  1  0  0  0
  3  4  1  0  0  0
  4  5  2  0  0  0
  4 11  1  0  0  0
  5  6  1  0  0  0
  5  8  1  0  0  0
  6  7  2  0  0  0
  8  9  1  0  0  0
  9 10  2  0  0  0
  9 11  1  0  0  0
 11 12  1  0  0  0
 11 15  1  0  0  0
 12 13  1  0  0  0
 13 14  1  0  0  0
 13 23  1  0  0  0
 14 15  1  0  0  0
 14 19  1  0  0  0
 15 16  1  0  0  0
 16 17  2  0  0  0
 16 18  1  0  0  0
 18 19  1  0  0  0
 18 27  1  0  0  0
 19 20  2  0  0  0
 27 28  1  0  0  0
 28 29  2  0  0  0
 28 33  1  0  0  0
 29 30  1  0  0  0
 29 34  1  0  0  0
 30 31  2  0  0  0
 31 32  1  0  0  0
 32 33  2  0  0  0
 34 35  1  0  0  0
 23 24  1  0  0  0
 23 25  1  0  0  0
  8 21  1  0  0  0
 12 22  1  0  0  0
 24 26  1  0  0  0
M  END
> <minimizedAffinity>
-8.77813

$$$$
1741


 28 31  0  0  0  0  0  0  0  0999 V2000
   21.1315   77.5782   17.6494 C   0  0  0  0  0  0  0  0  0  0  0  0
   22.0600   77.1135   18.3397 O   0  0  0  0  0  0  0  0  0  0  0  0
   20.0286   78.1888   18.2636 N   0  0  0  0  0  0  0  0  0  0  0  0
   19.8920   78.3274   19.6968 C   0  0  0  0  0  0  0  0  0  0  0  0
   19.6036   79.7936   19.9732 C   0  0  0  0  0  0  0  0  0  0  0  0
   19.7192   80.5742   18.8128 N   0  0  0  0  0  0  0  0  0  0  0  0
   18.9588   80.2611   17.6735 C   0  0  0  0  0  0  0  0  0  0  0  0
   18.9109   78.7484   17.4886 C   0  0  0  0  0  0  0  0  0  0  0  0
   21.2217   77.4689   16.1535 C   0  0  0  0  0  0  0  0  0  0  0  0
   22.5470   80.5544    9.8647 Br  0  0  0  0  0  0  0  0  0  0  0  0
   22.2847   79.8817   11.6416 C   0  0  0  0  0  0  0  0  0  0  0  0
   22.7647   80.6051   12.7355 C   0  0  0  0  0  0  0  0  0  0  0  0
   22.5617   80.0972   14.0147 C   0  0  0  0  0  0  0  0  0  0  0  0
   21.9050   78.9083   14.2303 C   0  0  0  0  0  0  0  0  0  0  0  0
   21.8393   78.6388   15.5660 N   0  0  0  0  0  0  0  0  0  0  0  0
   22.4560   79.6622   16.1693 C   0  0  0  0  0  0  0  0  0  0  0  0
   22.9177   80.5855   15.2531 C   0  0  0  0  0  0  0  0  0  0  0  0
   21.4291   78.1907   13.1575 C   0  0  0  0  0  0  0  0  0  0  0  0
   21.6287   78.6923   11.8755 C   0  0  0  0  0  0  0  0  0  0  0  0
   20.7172   81.5583   18.7330 C   0  0  0  0  0  0  0  0  0  0  0  0
   20.2251   82.9495   18.9145 C   0  0  0  0  0  0  0  0  0  0  0  0
   19.9609   83.5925   17.8676 O   0  0  0  0  0  0  0  0  0  0  0  0
   20.0485   83.5593   20.1658 N   0  0  0  0  0  0  0  0  0  0  0  0
   19.5725   84.9255   20.2544 C   0  0  0  0  0  0  0  0  0  0  0  0
   18.3637   84.9178   21.1665 C   0  0  0  0  0  0  0  0  0  0  0  0
   18.8523   84.5597   22.4316 O   0  0  0  0  0  0  0  0  0  0  0  0
   19.2961   83.2591   22.4555 C   0  0  0  0  0  0  0  0  0  0  0  0
   20.3166   82.9048   21.4307 C   0  0  0  0  0  0  0  0  0  0  0  0
 10 11  1  0  0  0
 11 12  2  0  0  0
 11 19  1  0  0  0
 12 13  1  0  0  0
 13 14  2  0  0  0
 13 17  1  0  0  0
 14 15  1  0  0  0
 14 18  1  0  0  0
 15 16  1  0  0  0
 15  9  1  0  0  0
 16 17  2  0  0  0
  9  1  1  0  0  0
  1  2  2  0  0  0
  1  3  1  0  0  0
  3  4  1  0  0  0
  3  8  1  0  0  0
  4  5  1  0  0  0
  5  6  1  0  0  0
  6  7  1  0  0  0
  6 20  1  0  0  0
  7  8  1  0  0  0
 20 21  1  0  0  0
 21 22  2  0  0  0
 21 23  1  0  0  0
 23 24  1  0  0  0
 23 28  1  0  0  0
 24 25  1  0  0  0
 25 26  1  0  0  0
 26 27  1  0  0  0
 27 28  1  0  0  0
 18 19  2  0  0  0
M  END
> <minimizedAffinity>
-9.63002

$$$$
1744


 34 37  0  0  0  0  0  0  0  0999 V2000
   21.8958   78.0986   15.5151 N   0  0  0  0  0  0  0  0  0  0  0  0
   21.0473   76.9582   15.6379 C   0  0  0  0  0  0  0  0  0  0  0  0
   20.6749   76.2605   14.6631 O   0  0  0  0  0  0  0  0  0  0  0  0
   20.5985   76.5890   16.9401 N   0  0  0  0  0  0  0  0  0  0  0  0
   21.0092   77.3681   18.0741 C   0  0  0  0  0  0  0  0  0  0  0  0
   20.7736   76.8509   19.2170 O   0  0  0  0  0  0  0  0  0  0  0  0
   21.6619   78.6834   17.9409 C   0  0  0  0  0  0  0  0  0  0  0  0
   22.3180   78.8799   16.6250 C   0  0  0  0  0  0  0  0  0  0  0  0
   23.2300   79.7383   16.5367 O   0  0  0  0  0  0  0  0  0  0  0  0
   19.9708   75.7598   17.1029 H   0  0  0  0  0  0  0  0  0  0  0  0
   20.6713   80.0888   10.9126 Cl  0  0  0  0  0  0  0  0  0  0  0  0
   21.8159   79.3915   12.0273 C   0  0  0  0  0  0  0  0  0  0  0  0
   21.4388   79.0192   13.2937 C   0  0  0  0  0  0  0  0  0  0  0  0
   22.3175   78.4586   14.2046 C   0  0  0  0  0  0  0  0  0  0  0  0
   23.6093   78.2714   13.8170 C   0  0  0  0  0  0  0  0  0  0  0  0
   24.0432   78.6319   12.5449 C   0  0  0  0  0  0  0  0  0  0  0  0
   23.1359   79.1887   11.6665 C   0  0  0  0  0  0  0  0  0  0  0  0
   20.6709   79.7951   18.1930 C   0  0  0  0  0  0  0  0  0  0  0  0
   20.8849   81.0614   17.8856 C   0  0  0  0  0  0  0  0  0  0  0  0
   19.6614   81.7769   18.3113 C   0  0  0  0  0  0  0  0  0  0  0  0
   18.6512   80.7412   18.1895 N   0  0  0  0  0  0  0  0  0  0  0  0
   19.3684   79.6613   18.7610 N   0  0  0  0  0  0  0  0  0  0  0  0
   17.7606   80.9417   18.6517 H   0  0  0  0  0  0  0  0  0  0  0  0
   19.0995   78.9289   19.4180 H   0  0  0  0  0  0  0  0  0  0  0  0
   19.7811   82.2325   19.7245 C   0  0  0  0  0  0  0  0  0  0  0  0
   18.8186   82.9143   20.4129 C   0  0  0  0  0  0  0  0  0  0  0  0
   18.9640   83.2802   21.7364 C   0  0  0  0  0  0  0  0  0  0  0  0
   20.1192   82.9605   22.4261 C   0  0  0  0  0  0  0  0  0  0  0  0
   21.1052   82.2596   21.7128 C   0  0  0  0  0  0  0  0  0  0  0  0
   20.9440   81.9042   20.3943 C   0  0  0  0  0  0  0  0  0  0  0  0
   17.9427   83.9834   22.3993 O   0  0  0  0  0  0  0  0  0  0  0  0
   17.1022   84.2080   21.8771 H   0  0  0  0  0  0  0  0  0  0  0  0
   20.2971   83.3037   23.7446 O   0  0  0  0  0  0  0  0  0  0  0  0
   20.7513   82.3713   24.7035 C   0  0  0  0  0  0  0  0  0  0  0  0
 11 12  1  0  0  0
 12 13  2  0  0  0
 12 17  1  0  0  0
 13 14  1  0  0  0
 14 15  2  0  0  0
 14  1  1  0  0  0
 15 16  1  0  0  0
 16 17  2  0  0  0
  1  2  1  0  0  0
  1  8  1  0  0  0
  2  3  2  0  0  0
  2  4  1  0  0  0
  4  5  1  0  0  0
  5  6  2  0  0  0
  5  7  1  0  0  0
  7  8  1  0  0  0
  7 18  1  0  0  0
  8  9  2  0  0  0
 18 19  2  0  0  0
 18 22  1  0  0  0
 19 20  1  0  0  0
 20 21  1  0  0  0
 20 25  1  0  0  0
 21 22  1  0  0  0
 25 26  2  0  0  0
 25 30  1  0  0  0
 26 27  1  0  0  0
 27 28  2  0  0  0
 27 31  1  0  0  0
 28 29  1  0  0  0
 28 33  1  0  0  0
 29 30  2  0  0  0
 33 34  1  0  0  0
  4 10  1  0  0  0
 21 23  1  0  0  0
 22 24  1  0  0  0
 31 32  1  0  0  0
M  END
> <minimizedAffinity>
-10.34265

$$$$
1745


 34 37  0  0  0  0  0  0  0  0999 V2000
   23.0024   78.6696   14.2620 N   0  0  0  0  0  0  0  0  0  0  0  0
   23.5761   77.5695   14.9494 C   0  0  0  0  0  0  0  0  0  0  0  0
   23.5078   76.4182   14.4984 O   0  0  0  0  0  0  0  0  0  0  0  0
   24.2522   77.7783   16.1977 N   0  0  0  0  0  0  0  0  0  0  0  0
   24.3627   79.0830   16.7633 C   0  0  0  0  0  0  0  0  0  0  0  0
   25.2585   79.3838   17.5711 O   0  0  0  0  0  0  0  0  0  0  0  0
   23.3503   80.1222   16.3591 C   0  0  0  0  0  0  0  0  0  0  0  0
   23.1514   79.9547   14.9039 C   0  0  0  0  0  0  0  0  0  0  0  0
   23.1002   80.9726   14.1235 O   0  0  0  0  0  0  0  0  0  0  0  0
   24.6600   76.9672   16.6799 H   0  0  0  0  0  0  0  0  0  0  0  0
   23.5150   79.3171    9.2350 Cl  0  0  0  0  0  0  0  0  0  0  0  0
   22.5249   78.8793   10.6009 C   0  0  0  0  0  0  0  0  0  0  0  0
   23.0769   78.9170   11.8622 C   0  0  0  0  0  0  0  0  0  0  0  0
   22.3428   78.5830   13.0065 C   0  0  0  0  0  0  0  0  0  0  0  0
   21.0394   78.2146   12.8017 C   0  0  0  0  0  0  0  0  0  0  0  0
   20.4793   78.1733   11.5430 C   0  0  0  0  0  0  0  0  0  0  0  0
   21.2203   78.5103   10.4070 C   0  0  0  0  0  0  0  0  0  0  0  0
   22.0992   79.9218   17.1499 C   0  0  0  0  0  0  0  0  0  0  0  0
   21.9397   79.3283   18.3149 C   0  0  0  0  0  0  0  0  0  0  0  0
   20.4989   79.3870   18.6851 C   0  0  0  0  0  0  0  0  0  0  0  0
   19.8785   79.5330   17.3435 N   0  0  0  0  0  0  0  0  0  0  0  0
   20.8096   80.3593   16.7011 N   0  0  0  0  0  0  0  0  0  0  0  0
   19.7909   78.6003   16.8935 H   0  0  0  0  0  0  0  0  0  0  0  0
   20.6353   81.1165   16.0489 H   0  0  0  0  0  0  0  0  0  0  0  0
   20.2311   80.6705   19.3889 C   0  0  0  0  0  0  0  0  0  0  0  0
   20.9664   81.0513   20.5318 C   0  0  0  0  0  0  0  0  0  0  0  0
   20.7810   82.2289   21.1874 C   0  0  0  0  0  0  0  0  0  0  0  0
   19.8280   83.1192   20.7295 C   0  0  0  0  0  0  0  0  0  0  0  0
   19.0917   82.7804   19.6177 C   0  0  0  0  0  0  0  0  0  0  0  0
   19.2902   81.5843   18.9642 C   0  0  0  0  0  0  0  0  0  0  0  0
   19.6263   84.3287   21.3865 O   0  0  0  0  0  0  0  0  0  0  0  0
   20.1880   84.5445   22.1996 H   0  0  0  0  0  0  0  0  0  0  0  0
   21.5370   82.5562   22.3221 O   0  0  0  0  0  0  0  0  0  0  0  0
   21.0444   82.2256   23.6023 C   0  0  0  0  0  0  0  0  0  0  0  0
 11 12  1  0  0  0
 12 13  2  0  0  0
 12 17  1  0  0  0
 13 14  1  0  0  0
 14 15  2  0  0  0
 14  1  1  0  0  0
 15 16  1  0  0  0
 16 17  2  0  0  0
  1  2  1  0  0  0
  1  8  1  0  0  0
  2  3  2  0  0  0
  2  4  1  0  0  0
  4  5  1  0  0  0
  5  6  2  0  0  0
  5  7  1  0  0  0
  7  8  1  0  0  0
  7 18  1  0  0  0
  8  9  2  0  0  0
 18 19  2  0  0  0
 18 22  1  0  0  0
 19 20  1  0  0  0
 20 21  1  0  0  0
 20 25  1  0  0  0
 21 22  1  0  0  0
 25 26  2  0  0  0
 25 30  1  0  0  0
 26 27  1  0  0  0
 27 28  2  0  0  0
 27 33  1  0  0  0
 28 29  1  0  0  0
 28 31  1  0  0  0
 29 30  2  0  0  0
 33 34  1  0  0  0
  4 10  1  0  0  0
 21 23  1  0  0  0
 22 24  1  0  0  0
 31 32  1  0  0  0
M  END
> <minimizedAffinity>
-10.15560

$$$$
1750


 27 30  0  0  0  0  0  0  0  0999 V2000
   20.8815   79.4316   18.6991 N   0  0  0  0  0  0  0  0  0  0  0  0
   22.0848   79.4681   17.9258 C   0  0  0  0  0  0  0  0  0  0  0  0
   21.8922   78.9275   16.5218 C   0  0  0  0  0  0  0  0  0  0  0  0
   21.1955   77.6711   16.5962 N   0  0  0  0  0  0  0  0  0  0  0  0
   20.9366   77.1109   17.9076 C   0  0  0  0  0  0  0  0  0  0  0  0
   20.2211   78.1710   18.7161 C   0  0  0  0  0  0  0  0  0  0  0  0
   20.7538   76.9621   15.4423 C   0  0  0  0  0  0  0  0  0  0  0  0
   20.1475   75.8696   15.5339 O   0  0  0  0  0  0  0  0  0  0  0  0
   20.9991   77.4961   14.1006 C   0  0  0  0  0  0  0  0  0  0  0  0
   20.2176   77.3083   13.0018 N   0  0  0  0  0  0  0  0  0  0  0  0
   20.7678   77.9513   11.9602 C   0  0  0  0  0  0  0  0  0  0  0  0
   21.8818   78.5347   12.4014 N   0  0  0  0  0  0  0  0  0  0  0  0
   22.0462   78.2722   13.7050 C   0  0  0  0  0  0  0  0  0  0  0  0
   22.6253   79.2506   11.5358 C   0  0  0  0  0  0  0  0  0  0  0  0
   22.3105   79.4223   10.2161 C   0  0  0  0  0  0  0  0  0  0  0  0
   21.1522   78.8207    9.7372 C   0  0  0  0  0  0  0  0  0  0  0  0
   20.4005   78.0915   10.6309 C   0  0  0  0  0  0  0  0  0  0  0  0
   23.3068   80.3651    9.1127 Cl  0  0  0  0  0  0  0  0  0  0  0  0
   19.8663   80.7726   18.5347 S   0  0  0  0  0  0  0  0  0  0  0  0
   20.3663   81.6615   17.4428 O   0  0  0  0  0  0  0  0  0  0  0  0
   18.4920   80.2913   18.1629 O   0  0  0  0  0  0  0  0  0  0  0  0
   19.7109   81.7080   19.9674 N   0  0  0  0  0  0  0  0  0  0  0  0
   19.2288   83.0504   19.7007 C   0  0  0  0  0  0  0  0  0  0  0  0
   19.6696   83.9204   20.8537 C   0  0  0  0  0  0  0  0  0  0  0  0
   19.6845   83.2168   22.0533 O   0  0  0  0  0  0  0  0  0  0  0  0
   20.6708   82.2334   22.0868 C   0  0  0  0  0  0  0  0  0  0  0  0
   20.9818   81.8574   20.6520 C   0  0  0  0  0  0  0  0  0  0  0  0
 19 20  2  0  0  0
 19 21  2  0  0  0
 19  1  1  0  0  0
 19 22  1  0  0  0
  1  2  1  0  0  0
  1  6  1  0  0  0
  2  3  1  0  0  0
  3  4  1  0  0  0
  4  5  1  0  0  0
  4  7  1  0  0  0
  5  6  1  0  0  0
  7  8  2  0  0  0
  7  9  1  0  0  0
  9 10  1  0  0  0
  9 13  2  0  0  0
 10 11  2  0  0  0
 11 12  1  0  0  0
 11 17  1  0  0  0
 12 13  1  0  0  0
 12 14  1  0  0  0
 14 15  2  0  0  0
 15 16  1  0  0  0
 15 18  1  0  0  0
 16 17  2  0  0  0
 22 23  1  0  0  0
 22 27  1  0  0  0
 23 24  1  0  0  0
 24 25  1  0  0  0
 25 26  1  0  0  0
 26 27  1  0  0  0
M  END
> <minimizedAffinity>
-9.42988

$$$$
1758


 28 32  0  0  0  0  0  0  0  0999 V2000
   19.2627   75.5548   12.4289 N   0  0  0  0  0  0  0  0  0  0  0  0
   19.4585   76.5140   11.5428 N   0  0  0  0  0  0  0  0  0  0  0  0
   20.2399   77.4969   12.0341 C   0  0  0  0  0  0  0  0  0  0  0  0
   20.6473   78.6003   11.4535 C   0  0  0  0  0  0  0  0  0  0  0  0
   20.5604   77.1307   13.3265 C   0  0  0  0  0  0  0  0  0  0  0  0
   21.3251   77.8274   14.1808 C   0  0  0  0  0  0  0  0  0  0  0  0
   19.9356   75.9202   13.5332 C   0  0  0  0  0  0  0  0  0  0  0  0
   19.9825   75.2501   14.5958 O   0  0  0  0  0  0  0  0  0  0  0  0
   19.0655   76.5306   10.5720 H   0  0  0  0  0  0  0  0  0  0  0  0
   15.9886   70.2569   11.3054 I   0  0  0  0  0  0  0  0  0  0  0  0
   17.0611   72.0225   11.7122 C   0  0  0  0  0  0  0  0  0  0  0  0
   16.8934   72.7167   12.8930 C   0  0  0  0  0  0  0  0  0  0  0  0
   17.6025   73.8874   13.1656 C   0  0  0  0  0  0  0  0  0  0  0  0
   18.4827   74.3570   12.2437 C   0  0  0  0  0  0  0  0  0  0  0  0
   18.6422   73.6528   11.0637 C   0  0  0  0  0  0  0  0  0  0  0  0
   17.9519   72.4954   10.7758 C   0  0  0  0  0  0  0  0  0  0  0  0
   21.5206   77.2533   15.4666 N   0  0  0  0  0  0  0  0  0  0  0  0
   22.0331   76.3655   15.6362 H   0  0  0  0  0  0  0  0  0  0  0  0
   20.9756   77.9399   16.6266 C   0  0  0  0  0  0  0  0  0  0  0  0
   21.8753   77.7149   17.8324 C   0  0  0  0  0  0  0  0  0  0  0  0
   21.3539   78.4490   18.9520 N   0  0  0  0  0  0  0  0  0  0  0  0
   20.0167   77.9336   19.2260 C   0  0  0  0  0  0  0  0  0  0  0  0
   19.1250   78.1676   18.1250 N   0  0  0  0  0  0  0  0  0  0  0  0
   19.0849   79.5743   17.7923 C   0  0  0  0  0  0  0  0  0  0  0  0
   20.3915   80.0985   17.4971 N   0  0  0  0  0  0  0  0  0  0  0  0
   21.3104   79.8509   18.6036 C   0  0  0  0  0  0  0  0  0  0  0  0
   20.9199   79.4233   16.3343 C   0  0  0  0  0  0  0  0  0  0  0  0
   19.6083   77.4372   16.9806 C   0  0  0  0  0  0  0  0  0  0  0  0
 10 11  1  0  0  0
 11 12  2  0  0  0
 11 16  1  0  0  0
 12 13  1  0  0  0
 13 14  2  0  0  0
 14 15  1  0  0  0
 14  1  1  0  0  0
 15 16  2  0  0  0
  1  2  1  0  0  0
  1  7  1  0  0  0
  2  3  1  0  0  0
  3  4  2  0  0  0
  3  5  1  0  0  0
  5  6  2  0  0  0
  5  7  1  0  0  0
  6 17  1  0  0  0
 17 19  1  0  0  0
 19 20  1  0  0  0
 19 27  1  0  0  0
 19 28  1  0  0  0
 20 21  1  0  0  0
 21 22  1  0  0  0
 21 26  1  0  0  0
 22 23  1  0  0  0
 23 24  1  0  0  0
 23 28  1  0  0  0
 24 25  1  0  0  0
 25 26  1  0  0  0
 25 27  1  0  0  0
  7  8  2  0  0  0
  2  9  1  0  0  0
 17 18  1  0  0  0
M  END
> <minimizedAffinity>
-9.36335

$$$$
1764


 34 37  0  0  0  0  0  0  0  0999 V2000
   21.8267   78.7950   13.2124 N   0  0  0  0  0  0  0  0  0  0  0  0
   22.7873   77.9790   13.7780 C   0  0  0  0  0  0  0  0  0  0  0  0
   23.9983   78.8868   14.0349 C   0  0  0  0  0  0  0  0  0  0  0  0
   23.3267   80.1807   14.4393 C   0  0  0  0  0  0  0  0  0  0  0  0
   22.0044   80.1557   13.7109 C   0  0  0  0  0  0  0  0  0  0  0  0
   22.2711   77.4850   15.1188 C   0  0  0  0  0  0  0  0  0  0  0  0
   23.1329   77.2801   15.9838 O   0  0  0  0  0  0  0  0  0  0  0  0
   20.8907   77.2942   15.3025 N   0  0  0  0  0  0  0  0  0  0  0  0
   20.1939   77.4631   14.5490 H   0  0  0  0  0  0  0  0  0  0  0  0
   20.3833   76.8358   16.5726 C   0  0  0  0  0  0  0  0  0  0  0  0
   19.2824   77.6374   17.1536 C   0  0  0  0  0  0  0  0  0  0  0  0
   19.6095   78.9526   17.5770 N   0  0  0  0  0  0  0  0  0  0  0  0
   20.9071   79.1158   18.1471 C   0  0  0  0  0  0  0  0  0  0  0  0
   21.4629   80.4402   17.6637 C   0  0  0  0  0  0  0  0  0  0  0  0
   20.4440   81.5270   17.9388 C   0  0  0  0  0  0  0  0  0  0  0  0
   19.9461   81.3632   19.3497 C   0  0  0  0  0  0  0  0  0  0  0  0
   18.9158   80.3107   19.5234 C   0  0  0  0  0  0  0  0  0  0  0  0
   18.5414   79.5553   18.3042 C   0  0  0  0  0  0  0  0  0  0  0  0
   21.2889   78.7135   11.6439 S   0  0  0  0  0  0  0  0  0  0  0  0
   22.4217   78.8267   10.6255 O   0  0  0  0  0  0  0  0  0  0  0  0
   20.4323   79.9500   11.3634 O   0  0  0  0  0  0  0  0  0  0  0  0
   20.3177   77.3231   11.2608 C   0  0  0  0  0  0  0  0  0  0  0  0
   19.8566   76.5113   12.3108 C   0  0  0  0  0  0  0  0  0  0  0  0
   19.1396   75.3640   12.1256 C   0  0  0  0  0  0  0  0  0  0  0  0
   18.8615   74.9973   10.8213 C   0  0  0  0  0  0  0  0  0  0  0  0
   19.2768   75.7380    9.7559 C   0  0  0  0  0  0  0  0  0  0  0  0
   20.0029   76.8975   10.0014 C   0  0  0  0  0  0  0  0  0  0  0  0
   20.4090   77.8473    8.5893 Cl  0  0  0  0  0  0  0  0  0  0  0  0
   18.1034   73.7958   10.6123 N   0  0  0  0  0  0  0  0  0  0  0  0
   17.6693   73.0345   11.7367 C   0  0  0  0  0  0  0  0  0  0  0  0
   17.4261   71.8211   11.6119 O   0  0  0  0  0  0  0  0  0  0  0  0
   17.5268   73.7505   13.0290 C   0  0  0  0  0  0  0  0  0  0  0  0
   18.6868   74.5670   13.1657 O   0  0  0  0  0  0  0  0  0  0  0  0
   17.8848   73.5049    9.6275 H   0  0  0  0  0  0  0  0  0  0  0  0
 19 20  2  0  0  0
 19 21  2  0  0  0
 19  1  1  0  0  0
 19 22  1  0  0  0
  1  2  1  0  0  0
  1  5  1  0  0  0
  2  3  1  0  0  0
  2  6  1  0  0  0
  3  4  1  0  0  0
  4  5  1  0  0  0
  6  7  2  0  0  0
  6  8  1  0  0  0
  8 10  1  0  0  0
 10 11  1  0  0  0
 11 12  1  0  0  0
 12 13  1  0  0  0
 12 18  1  0  0  0
 13 14  1  0  0  0
 14 15  1  0  0  0
 15 16  1  0  0  0
 16 17  1  0  0  0
 17 18  1  0  0  0
 22 23  2  0  0  0
 22 27  1  0  0  0
 23 24  1  0  0  0
 24 25  2  0  0  0
 24 33  1  0  0  0
 25 26  1  0  0  0
 25 29  1  0  0  0
 26 27  2  0  0  0
 27 28  1  0  0  0
 29 30  1  0  0  0
 30 31  2  0  0  0
 30 32  1  0  0  0
 32 33  1  0  0  0
  8  9  1  0  0  0
 29 34  1  0  0  0
M  END
> <minimizedAffinity>
-10.17191

$$$$
1781


 24 27  0  0  0  0  0  0  0  0999 V2000
   23.2680   79.6251   13.6770 C   0  0  0  0  0  0  0  0  0  0  0  0
   23.2954   80.9343   13.7003 O   0  0  0  0  0  0  0  0  0  0  0  0
   23.9579   79.0110   14.7113 N   0  0  0  0  0  0  0  0  0  0  0  0
   24.2044   77.6364   14.9940 C   0  0  0  0  0  0  0  0  0  0  0  0
   23.1852   77.2664   16.0906 C   0  0  0  0  0  0  0  0  0  0  0  0
   23.1340   78.4007   17.0316 N   0  0  0  0  0  0  0  0  0  0  0  0
   24.2878   79.2486   17.1215 C   0  0  0  0  0  0  0  0  0  0  0  0
   24.5158   79.9111   15.7757 C   0  0  0  0  0  0  0  0  0  0  0  0
   21.9597   78.6106   17.8116 C   0  0  0  0  0  0  0  0  0  0  0  0
   21.5227   79.8574   18.0958 N   0  0  0  0  0  0  0  0  0  0  0  0
   20.4407   80.0900   18.8171 N   0  0  0  0  0  0  0  0  0  0  0  0
   19.6893   79.1027   19.3244 C   0  0  0  0  0  0  0  0  0  0  0  0
   18.6446   79.6170   20.0188 N   0  0  0  0  0  0  0  0  0  0  0  0
   18.7438   80.9314   19.9441 N   0  0  0  0  0  0  0  0  0  0  0  0
   19.8319   81.2420   19.2170 C   0  0  0  0  0  0  0  0  0  0  0  0
   20.0719   77.7955   19.0765 C   0  0  0  0  0  0  0  0  0  0  0  0
   21.2023   77.5809   18.3233 C   0  0  0  0  0  0  0  0  0  0  0  0
   20.3020   77.5249    8.8377 Cl  0  0  0  0  0  0  0  0  0  0  0  0
   21.1511   78.1225   10.2703 C   0  0  0  0  0  0  0  0  0  0  0  0
   22.4402   78.5871   10.1845 C   0  0  0  0  0  0  0  0  0  0  0  0
   23.0975   79.0501   11.3008 C   0  0  0  0  0  0  0  0  0  0  0  0
   22.5222   79.0842   12.5764 C   0  0  0  0  0  0  0  0  0  0  0  0
   21.2301   78.6134   12.6328 C   0  0  0  0  0  0  0  0  0  0  0  0
   20.5462   78.1367   11.4998 C   0  0  0  0  0  0  0  0  0  0  0  0
 18 19  1  0  0  0
 19 20  2  0  0  0
 19 24  1  0  0  0
 20 21  1  0  0  0
 21 22  2  0  0  0
 22 23  1  0  0  0
 22  1  1  0  0  0
 23 24  2  0  0  0
  1  2  2  0  0  0
  1  3  1  0  0  0
  3  4  1  0  0  0
  3  8  1  0  0  0
  4  5  1  0  0  0
  5  6  1  0  0  0
  6  7  1  0  0  0
  6  9  1  0  0  0
  7  8  1  0  0  0
  9 10  2  0  0  0
  9 17  1  0  0  0
 10 11  1  0  0  0
 11 12  1  0  0  0
 11 15  1  0  0  0
 12 13  2  0  0  0
 12 16  1  0  0  0
 13 14  1  0  0  0
 14 15  2  0  0  0
 16 17  2  0  0  0
M  END
> <minimizedAffinity>
-9.88273

$$$$
1788


 30 33  0  0  0  0  0  0  0  0999 V2000
   20.8333   80.3214   18.0893 N   0  0  0  0  0  0  0  0  0  0  0  0
   22.0827   80.0976   17.8845 N   0  0  0  0  0  0  0  0  0  0  0  0
   22.2784   78.9358   17.1550 C   0  0  0  0  0  0  0  0  0  0  0  0
   21.0752   78.4474   16.9192 N   0  0  0  0  0  0  0  0  0  0  0  0
   20.1805   79.3165   17.5010 C   0  0  0  0  0  0  0  0  0  0  0  0
   18.9426   79.1506   17.4621 O   0  0  0  0  0  0  0  0  0  0  0  0
   18.5800   85.0353   21.0595 Cl  0  0  0  0  0  0  0  0  0  0  0  0
   19.2381   83.6647   20.1863 C   0  0  0  0  0  0  0  0  0  0  0  0
   19.8631   83.7902   18.9599 C   0  0  0  0  0  0  0  0  0  0  0  0
   20.3813   82.7020   18.2790 C   0  0  0  0  0  0  0  0  0  0  0  0
   20.2936   81.4281   18.8047 C   0  0  0  0  0  0  0  0  0  0  0  0
   19.6722   81.2898   20.0280 C   0  0  0  0  0  0  0  0  0  0  0  0
   19.1517   82.3850   20.7124 C   0  0  0  0  0  0  0  0  0  0  0  0
   23.6329   78.4885   16.8372 C   0  0  0  0  0  0  0  0  0  0  0  0
   24.6854   79.3935   17.0247 C   0  0  0  0  0  0  0  0  0  0  0  0
   25.9890   79.1250   16.7103 C   0  0  0  0  0  0  0  0  0  0  0  0
   26.3450   77.8964   16.1699 C   0  0  0  0  0  0  0  0  0  0  0  0
   25.3259   77.0057   15.9805 C   0  0  0  0  0  0  0  0  0  0  0  0
   23.9950   77.2862   16.3032 C   0  0  0  0  0  0  0  0  0  0  0  0
   20.6997   77.2175   16.2961 C   0  0  0  0  0  0  0  0  0  0  0  0
   20.8584   77.1762   14.8300 C   0  0  0  0  0  0  0  0  0  0  0  0
   20.5051   76.0373   14.3097 O   0  0  0  0  0  0  0  0  0  0  0  0
   21.3089   78.1219   13.9362 N   0  0  0  0  0  0  0  0  0  0  0  0
   21.7928   79.4330   14.2768 C   0  0  0  0  0  0  0  0  0  0  0  0
   22.2698   80.2172   13.0414 C   0  0  0  0  0  0  0  0  0  0  0  0
   21.1971   80.2314   12.0422 N   0  0  0  0  0  0  0  0  0  0  0  0
   20.5985   78.9341   11.8313 C   0  0  0  0  0  0  0  0  0  0  0  0
   19.5649   78.8210   11.1337 O   0  0  0  0  0  0  0  0  0  0  0  0
   21.3002   77.8100   12.4964 C   0  0  0  0  0  0  0  0  0  0  0  0
   20.8982   81.0726   11.5419 H   0  0  0  0  0  0  0  0  0  0  0  0
  7  8  1  0  0  0
  8  9  2  0  0  0
  8 13  1  0  0  0
  9 10  1  0  0  0
 10 11  2  0  0  0
 11 12  1  0  0  0
 11  1  1  0  0  0
 12 13  2  0  0  0
  1  2  1  0  0  0
  1  5  1  0  0  0
  2  3  2  0  0  0
  3  4  1  0  0  0
  3 14  1  0  0  0
  4  5  1  0  0  0
  4 20  1  0  0  0
  5  6  2  0  0  0
 20 21  1  0  0  0
 21 22  2  0  0  0
 21 23  1  0  0  0
 23 24  1  0  0  0
 23 29  1  0  0  0
 24 25  1  0  0  0
 25 26  1  0  0  0
 26 27  1  0  0  0
 27 28  2  0  0  0
 27 29  1  0  0  0
 14 15  2  0  0  0
 14 19  1  0  0  0
 15 16  1  0  0  0
 16 17  2  0  0  0
 17 18  1  0  0  0
 18 19  2  0  0  0
 26 30  1  0  0  0
M  END
> <minimizedAffinity>
-10.84603

$$$$
1789


 29 32  0  0  0  0  0  0  0  0999 V2000
   21.1172   77.6744   15.1623 N   0  0  0  0  0  0  0  0  0  0  0  0
   20.7424   76.4497   15.4459 N   0  0  0  0  0  0  0  0  0  0  0  0
   20.2566   76.4763   16.6832 N   0  0  0  0  0  0  0  0  0  0  0  0
   20.3184   77.7202   17.1959 C   0  0  0  0  0  0  0  0  0  0  0  0
   20.8621   78.4602   16.2241 C   0  0  0  0  0  0  0  0  0  0  0  0
   20.9284   79.7429   16.7493 C   0  0  0  0  0  0  0  0  0  0  0  0
   21.3850   80.7286   16.1278 O   0  0  0  0  0  0  0  0  0  0  0  0
   20.4431   79.7975   17.9988 N   0  0  0  0  0  0  0  0  0  0  0  0
   20.0626   78.5371   18.2783 C   0  0  0  0  0  0  0  0  0  0  0  0
   19.5468   78.1565   19.3713 O   0  0  0  0  0  0  0  0  0  0  0  0
   20.8108   75.5966   14.8155 H   0  0  0  0  0  0  0  0  0  0  0  0
   19.8823   75.6250   17.1666 H   0  0  0  0  0  0  0  0  0  0  0  0
   23.4593   79.4245    9.9685 Cl  0  0  0  0  0  0  0  0  0  0  0  0
   22.7835   78.9103   11.5158 C   0  0  0  0  0  0  0  0  0  0  0  0
   23.5067   78.9150   12.6745 C   0  0  0  0  0  0  0  0  0  0  0  0
   23.0138   78.5209   13.9012 C   0  0  0  0  0  0  0  0  0  0  0  0
   21.6906   78.0926   13.9424 C   0  0  0  0  0  0  0  0  0  0  0  0
   20.9428   78.0846   12.7577 C   0  0  0  0  0  0  0  0  0  0  0  0
   21.4786   78.4855   11.5665 C   0  0  0  0  0  0  0  0  0  0  0  0
   20.3337   80.9164   18.8737 C   0  0  0  0  0  0  0  0  0  0  0  0
   19.9374   82.1685   18.4462 C   0  0  0  0  0  0  0  0  0  0  0  0
   19.8329   83.2467   19.3001 C   0  0  0  0  0  0  0  0  0  0  0  0
   20.1274   83.1196   20.6418 C   0  0  0  0  0  0  0  0  0  0  0  0
   20.5248   81.8752   21.0834 C   0  0  0  0  0  0  0  0  0  0  0  0
   20.6255   80.7997   20.2194 C   0  0  0  0  0  0  0  0  0  0  0  0
   20.0195   84.2141   21.4960 O   0  0  0  0  0  0  0  0  0  0  0  0
   18.9878   84.3762   22.4201 C   0  0  0  0  0  0  0  0  0  0  0  0
   19.4340   84.5079   18.8689 O   0  0  0  0  0  0  0  0  0  0  0  0
   20.3079   85.2045   18.0000 C   0  0  0  0  0  0  0  0  0  0  0  0
 13 14  1  0  0  0
 14 15  2  0  0  0
 14 19  1  0  0  0
 15 16  1  0  0  0
 16 17  2  0  0  0
 17 18  1  0  0  0
 17  1  1  0  0  0
 18 19  2  0  0  0
  1  2  1  0  0  0
  1  5  1  0  0  0
  2  3  1  0  0  0
  3  4  1  0  0  0
  4  5  2  0  0  0
  4  9  1  0  0  0
  5  6  1  0  0  0
  6  7  2  0  0  0
  6  8  1  0  0  0
  8  9  1  0  0  0
  8 20  1  0  0  0
  9 10  2  0  0  0
 20 21  2  0  0  0
 20 25  1  0  0  0
 21 22  1  0  0  0
 22 23  2  0  0  0
 22 28  1  0  0  0
 23 24  1  0  0  0
 23 26  1  0  0  0
 24 25  2  0  0  0
 26 27  1  0  0  0
 28 29  1  0  0  0
  2 11  1  0  0  0
  3 12  1  0  0  0
M  END
> <minimizedAffinity>
-9.61142

$$$$
1790


 29 32  0  0  0  0  0  0  0  0999 V2000
   20.9520   77.7420   15.8400 N   0  0  0  0  0  0  0  0  0  0  0  0
   20.5030   76.5518   16.1854 N   0  0  0  0  0  0  0  0  0  0  0  0
   20.0284   76.6834   17.4177 N   0  0  0  0  0  0  0  0  0  0  0  0
   20.1678   77.9425   17.8669 C   0  0  0  0  0  0  0  0  0  0  0  0
   20.7556   78.6053   16.8566 C   0  0  0  0  0  0  0  0  0  0  0  0
   20.8978   79.8991   17.3210 C   0  0  0  0  0  0  0  0  0  0  0  0
   21.4224   80.8165   16.6222 O   0  0  0  0  0  0  0  0  0  0  0  0
   20.4193   80.0399   18.5683 N   0  0  0  0  0  0  0  0  0  0  0  0
   19.9642   78.8225   18.9092 C   0  0  0  0  0  0  0  0  0  0  0  0
   19.4332   78.5493   20.0268 O   0  0  0  0  0  0  0  0  0  0  0  0
   20.5272   75.6900   15.5895 H   0  0  0  0  0  0  0  0  0  0  0  0
   19.6011   75.9098   17.9714 H   0  0  0  0  0  0  0  0  0  0  0  0
   23.4449   79.1357   10.5690 Cl  0  0  0  0  0  0  0  0  0  0  0  0
   22.6882   78.7186   12.1121 C   0  0  0  0  0  0  0  0  0  0  0  0
   23.4090   78.8244   13.2838 C   0  0  0  0  0  0  0  0  0  0  0  0
   22.8623   78.5126   14.5009 C   0  0  0  0  0  0  0  0  0  0  0  0
   21.5507   78.0739   14.5989 C   0  0  0  0  0  0  0  0  0  0  0  0
   20.8424   77.9739   13.4127 C   0  0  0  0  0  0  0  0  0  0  0  0
   21.3896   78.2871   12.1859 C   0  0  0  0  0  0  0  0  0  0  0  0
   20.4192   81.2503   19.3219 C   0  0  0  0  0  0  0  0  0  0  0  0
   19.9712   82.4453   18.7961 C   0  0  0  0  0  0  0  0  0  0  0  0
   19.9608   83.6287   19.5057 C   0  0  0  0  0  0  0  0  0  0  0  0
   20.4224   83.6162   20.8051 C   0  0  0  0  0  0  0  0  0  0  0  0
   20.8826   82.4504   21.3820 C   0  0  0  0  0  0  0  0  0  0  0  0
   20.8738   81.2820   20.6262 C   0  0  0  0  0  0  0  0  0  0  0  0
   21.3400   82.4772   22.6930 O   0  0  0  0  0  0  0  0  0  0  0  0
   20.4837   82.7299   23.7730 C   0  0  0  0  0  0  0  0  0  0  0  0
   19.4929   84.8220   18.9224 O   0  0  0  0  0  0  0  0  0  0  0  0
   20.1676   85.3448   17.8017 C   0  0  0  0  0  0  0  0  0  0  0  0
 13 14  1  0  0  0
 14 15  2  0  0  0
 14 19  1  0  0  0
 15 16  1  0  0  0
 16 17  2  0  0  0
 17 18  1  0  0  0
 17  1  1  0  0  0
 18 19  2  0  0  0
  1  2  1  0  0  0
  1  5  1  0  0  0
  2  3  1  0  0  0
  3  4  1  0  0  0
  4  5  2  0  0  0
  4  9  1  0  0  0
  5  6  1  0  0  0
  6  7  2  0  0  0
  6  8  1  0  0  0
  8  9  1  0  0  0
  8 20  1  0  0  0
  9 10  2  0  0  0
 20 21  2  0  0  0
 20 25  1  0  0  0
 21 22  1  0  0  0
 22 23  2  0  0  0
 22 28  1  0  0  0
 23 24  1  0  0  0
 24 25  2  0  0  0
 24 26  1  0  0  0
 26 27  1  0  0  0
 28 29  1  0  0  0
  2 11  1  0  0  0
  3 12  1  0  0  0
M  END
> <minimizedAffinity>
-10.02315

$$$$
1801


 26 29  0  0  0  0  0  0  0  0999 V2000
   20.4161   78.3853   11.2732 Cl  0  0  0  0  0  0  0  0  0  0  0  0
   21.6761   78.5219   12.4994 C   0  0  0  0  0  0  0  0  0  0  0  0
   21.3535   78.4577   13.8434 C   0  0  0  0  0  0  0  0  0  0  0  0
   22.3211   78.5617   14.8042 C   0  0  0  0  0  0  0  0  0  0  0  0
   23.6142   78.7321   14.3711 C   0  0  0  0  0  0  0  0  0  0  0  0
   23.9609   78.7983   13.0469 C   0  0  0  0  0  0  0  0  0  0  0  0
   22.9709   78.6913   12.0843 C   0  0  0  0  0  0  0  0  0  0  0  0
   24.6854   78.8485   15.3804 C   0  0  0  0  0  0  0  0  0  0  0  0
   25.9589   79.0097   15.2931 N   0  0  0  0  0  0  0  0  0  0  0  0
   26.5879   79.0662   16.5810 C   0  0  0  0  0  0  0  0  0  0  0  0
   25.4703   78.9085   17.5593 C   0  0  0  0  0  0  0  0  0  0  0  0
   24.2895   78.7750   16.7395 N   0  0  0  0  0  0  0  0  0  0  0  0
   22.9223   78.5961   17.1363 C   0  0  0  0  0  0  0  0  0  0  0  0
   22.3284   78.5009   18.3350 N   0  0  0  0  0  0  0  0  0  0  0  0
   21.0255   78.3400   18.1850 N   0  0  0  0  0  0  0  0  0  0  0  0
   20.8121   78.3370   16.8579 C   0  0  0  0  0  0  0  0  0  0  0  0
   19.6811   78.2040   16.3309 O   0  0  0  0  0  0  0  0  0  0  0  0
   21.9811   78.4956   16.1809 N   0  0  0  0  0  0  0  0  0  0  0  0
   20.0092   78.1946   19.2222 C   0  0  0  0  0  0  0  0  0  0  0  0
   19.5599   79.5419   19.6452 C   0  0  0  0  0  0  0  0  0  0  0  0
   18.3623   79.6938   20.0171 O   0  0  0  0  0  0  0  0  0  0  0  0
   20.4193   80.6717   19.6507 N   0  0  0  0  0  0  0  0  0  0  0  0
   21.4021   80.5283   19.3416 H   0  0  0  0  0  0  0  0  0  0  0  0
   19.9348   81.9671   20.0713 C   0  0  0  0  0  0  0  0  0  0  0  0
   20.7726   82.5014   21.2362 C   0  0  0  0  0  0  0  0  0  0  0  0
   20.1815   82.9226   18.9118 C   0  0  0  0  0  0  0  0  0  0  0  0
  1  2  1  0  0  0
  2  3  2  0  0  0
  2  7  1  0  0  0
  3  4  1  0  0  0
  4  5  2  0  0  0
  4 18  1  0  0  0
  5  6  1  0  0  0
  5  8  1  0  0  0
  6  7  2  0  0  0
  8  9  2  0  0  0
  8 12  1  0  0  0
  9 10  1  0  0  0
 10 11  1  0  0  0
 11 12  1  0  0  0
 12 13  1  0  0  0
 13 14  2  0  0  0
 13 18  1  0  0  0
 14 15  1  0  0  0
 15 16  1  0  0  0
 15 19  1  0  0  0
 16 17  2  0  0  0
 16 18  1  0  0  0
 19 20  1  0  0  0
 20 21  2  0  0  0
 20 22  1  0  0  0
 22 24  1  0  0  0
 24 25  1  0  0  0
 24 26  1  0  0  0
 22 23  1  0  0  0
M  END
> <minimizedAffinity>
-9.13472

$$$$
1802


 27 30  0  0  0  0  0  0  0  0999 V2000
   22.5948   81.3307   10.5849 Cl  0  0  0  0  0  0  0  0  0  0  0  0
   21.7149   79.8414   10.9391 C   0  0  0  0  0  0  0  0  0  0  0  0
   21.7134   79.3724   12.2553 C   0  0  0  0  0  0  0  0  0  0  0  0
   21.0392   78.2198   12.6038 C   0  0  0  0  0  0  0  0  0  0  0  0
   20.3739   77.5610   11.5889 C   0  0  0  0  0  0  0  0  0  0  0  0
   20.3503   77.9809   10.3002 C   0  0  0  0  0  0  0  0  0  0  0  0
   21.0383   79.1547    9.9563 C   0  0  0  0  0  0  0  0  0  0  0  0
   19.6508   76.3252   11.9831 C   0  0  0  0  0  0  0  0  0  0  0  0
   18.9423   75.4870   11.2892 N   0  0  0  0  0  0  0  0  0  0  0  0
   18.4375   74.4287   12.1333 C   0  0  0  0  0  0  0  0  0  0  0  0
   18.9255   74.7151   13.5318 C   0  0  0  0  0  0  0  0  0  0  0  0
   19.6995   75.9288   13.3292 N   0  0  0  0  0  0  0  0  0  0  0  0
   20.4120   76.6668   14.3203 C   0  0  0  0  0  0  0  0  0  0  0  0
   20.5768   76.4708   15.6451 N   0  0  0  0  0  0  0  0  0  0  0  0
   21.3270   77.4530   16.1399 N   0  0  0  0  0  0  0  0  0  0  0  0
   21.6083   78.2379   15.1024 C   0  0  0  0  0  0  0  0  0  0  0  0
   22.3040   79.2901   15.1590 O   0  0  0  0  0  0  0  0  0  0  0  0
   21.0519   77.7723   13.9497 N   0  0  0  0  0  0  0  0  0  0  0  0
   21.7301   77.6226   17.5387 C   0  0  0  0  0  0  0  0  0  0  0  0
   20.4085   78.0971   18.2187 C   0  0  0  0  0  0  0  0  0  0  0  0
   19.9695   77.1322   18.9384 O   0  0  0  0  0  0  0  0  0  0  0  0
   19.9245   79.3263   17.9945 N   0  0  0  0  0  0  0  0  0  0  0  0
   18.9339   79.1031   18.8956 H   0  0  0  0  0  0  0  0  0  0  0  0
   19.4266   80.5898   17.7640 C   0  0  0  0  0  0  0  0  0  0  0  0
   20.0889   81.6526   18.6489 C   0  0  0  0  0  0  0  0  0  0  0  0
   20.3707   82.7948   17.9384 O   0  0  0  0  0  0  0  0  0  0  0  0
   20.3964   83.9489   18.6666 C   0  0  0  0  0  0  0  0  0  0  0  0
  1  2  1  0  0  0
  2  3  2  0  0  0
  2  7  1  0  0  0
  3  4  1  0  0  0
  4  5  2  0  0  0
  4 18  1  0  0  0
  5  6  1  0  0  0
  5  8  1  0  0  0
  6  7  2  0  0  0
  8  9  2  0  0  0
  8 12  1  0  0  0
  9 10  1  0  0  0
 10 11  1  0  0  0
 11 12  1  0  0  0
 12 13  1  0  0  0
 13 14  2  0  0  0
 13 18  1  0  0  0
 14 15  1  0  0  0
 15 16  1  0  0  0
 15 19  1  0  0  0
 16 17  2  0  0  0
 16 18  1  0  0  0
 19 20  1  0  0  0
 20 21  2  0  0  0
 20 22  1  0  0  0
 22 24  1  0  0  0
 24 25  1  0  0  0
 25 26  1  0  0  0
 26 27  1  0  0  0
 22 23  1  0  0  0
M  END
> <minimizedAffinity>
-8.64245

$$$$
1804


 26 30  0  0  0  0  0  0  0  0999 V2000
   22.5000   81.2855   10.2350 Cl  0  0  0  0  0  0  0  0  0  0  0  0
   21.6842   79.8436   10.7995 C   0  0  0  0  0  0  0  0  0  0  0  0
   21.7680   79.3931   12.1064 C   0  0  0  0  0  0  0  0  0  0  0  0
   21.1214   78.2585   12.5376 C   0  0  0  0  0  0  0  0  0  0  0  0
   20.3773   77.5803   11.6029 C   0  0  0  0  0  0  0  0  0  0  0  0
   20.2588   77.9813   10.2931 C   0  0  0  0  0  0  0  0  0  0  0  0
   20.9282   79.1381    9.8869 C   0  0  0  0  0  0  0  0  0  0  0  0
   19.6700   76.3573   12.0291 C   0  0  0  0  0  0  0  0  0  0  0  0
   18.9185   75.5406   11.3853 N   0  0  0  0  0  0  0  0  0  0  0  0
   18.4385   74.4727   12.2209 C   0  0  0  0  0  0  0  0  0  0  0  0
   19.0341   74.7552   13.5632 C   0  0  0  0  0  0  0  0  0  0  0  0
   19.8018   75.9584   13.3777 N   0  0  0  0  0  0  0  0  0  0  0  0
   20.5975   76.7116   14.3160 C   0  0  0  0  0  0  0  0  0  0  0  0
   20.8667   76.5306   15.6234 N   0  0  0  0  0  0  0  0  0  0  0  0
   21.6575   77.5021   16.0463 N   0  0  0  0  0  0  0  0  0  0  0  0
   21.8709   78.2843   14.9755 C   0  0  0  0  0  0  0  0  0  0  0  0
   22.5929   79.3209   15.0188 O   0  0  0  0  0  0  0  0  0  0  0  0
   21.2253   77.8180   13.8849 N   0  0  0  0  0  0  0  0  0  0  0  0
   22.1970   77.6958   17.4005 C   0  0  0  0  0  0  0  0  0  0  0  0
   21.0518   77.8497   18.3358 C   0  0  0  0  0  0  0  0  0  0  0  0
   20.5635   76.7920   18.8075 O   0  0  0  0  0  0  0  0  0  0  0  0
   20.5282   79.1240   18.6827 N   0  0  0  0  0  0  0  0  0  0  0  0
   19.4140   79.3368   19.5867 C   0  0  0  0  0  0  0  0  0  0  0  0
   19.0797   80.8024   19.5103 C   0  0  0  0  0  0  0  0  0  0  0  0
   19.6775   81.1918   18.1741 C   0  0  0  0  0  0  0  0  0  0  0  0
   20.9942   80.4089   18.2171 C   0  0  0  0  0  0  0  0  0  0  0  0
  1  2  1  0  0  0
  2  3  2  0  0  0
  2  7  1  0  0  0
  3  4  1  0  0  0
  4  5  2  0  0  0
  4 18  1  0  0  0
  5  6  1  0  0  0
  5  8  1  0  0  0
  6  7  2  0  0  0
  8  9  2  0  0  0
  8 12  1  0  0  0
  9 10  1  0  0  0
 10 11  1  0  0  0
 11 12  1  0  0  0
 12 13  1  0  0  0
 13 14  2  0  0  0
 13 18  1  0  0  0
 14 15  1  0  0  0
 15 16  1  0  0  0
 15 19  1  0  0  0
 16 17  2  0  0  0
 16 18  1  0  0  0
 19 20  1  0  0  0
 20 21  2  0  0  0
 20 22  1  0  0  0
 22 23  1  0  0  0
 22 26  1  0  0  0
 23 24  1  0  0  0
 24 25  1  0  0  0
 25 26  1  0  0  0
M  END
> <minimizedAffinity>
-10.22380

$$$$
1806


 32 35  0  0  0  0  0  0  0  0999 V2000
   22.8979   79.2303   15.2489 N   0  0  0  0  0  0  0  0  0  0  0  0
   24.0818   78.5357   14.7865 C   0  0  0  0  0  0  0  0  0  0  0  0
   24.0866   78.6185   13.2515 C   0  0  0  0  0  0  0  0  0  0  0  0
   22.8815   79.1776   12.7425 N   0  0  0  0  0  0  0  0  0  0  0  0
   22.6297   80.5548   13.1635 C   0  0  0  0  0  0  0  0  0  0  0  0
   22.6146   80.5307   14.6732 C   0  0  0  0  0  0  0  0  0  0  0  0
   18.2944   83.9466   21.2489 Cl  0  0  0  0  0  0  0  0  0  0  0  0
   19.1871   82.9752   20.0799 C   0  0  0  0  0  0  0  0  0  0  0  0
   19.1114   81.6169   20.0453 C   0  0  0  0  0  0  0  0  0  0  0  0
   19.8293   80.8967   19.1109 C   0  0  0  0  0  0  0  0  0  0  0  0
   20.6308   81.5371   18.2006 C   0  0  0  0  0  0  0  0  0  0  0  0
   20.7058   82.9054   18.2376 C   0  0  0  0  0  0  0  0  0  0  0  0
   19.9877   83.6303   19.1722 C   0  0  0  0  0  0  0  0  0  0  0  0
   21.3975   80.8163   17.2091 N   0  0  0  0  0  0  0  0  0  0  0  0
   21.3501   79.4049   17.1350 C   0  0  0  0  0  0  0  0  0  0  0  0
   22.0304   78.7153   16.2498 C   0  0  0  0  0  0  0  0  0  0  0  0
   20.5113   78.7096   18.0846 N   0  0  0  0  0  0  0  0  0  0  0  0
   19.7731   79.4434   19.0450 C   0  0  0  0  0  0  0  0  0  0  0  0
   19.0245   78.8505   19.8952 O   0  0  0  0  0  0  0  0  0  0  0  0
   21.9850   81.3525   16.5472 H   0  0  0  0  0  0  0  0  0  0  0  0
   20.4527   77.6724   18.0600 H   0  0  0  0  0  0  0  0  0  0  0  0
   21.8995   78.5832   11.9113 C   0  0  0  0  0  0  0  0  0  0  0  0
   20.8563   77.9052   12.5186 N   0  0  0  0  0  0  0  0  0  0  0  0
   19.8800   77.2929   11.8516 C   0  0  0  0  0  0  0  0  0  0  0  0
   19.9065   77.3349   10.4855 C   0  0  0  0  0  0  0  0  0  0  0  0
   20.9204   77.9956    9.8513 C   0  0  0  0  0  0  0  0  0  0  0  0
   21.9561   78.6466   10.5512 C   0  0  0  0  0  0  0  0  0  0  0  0
   22.9860   79.3559    9.8550 C   0  0  0  0  0  0  0  0  0  0  0  0
   24.0785   78.8978    9.5281 O   0  0  0  0  0  0  0  0  0  0  0  0
   22.7512   80.7125    9.4983 N   0  0  0  0  0  0  0  0  0  0  0  0
   22.0396   80.9586    8.7739 H   0  0  0  0  0  0  0  0  0  0  0  0
   23.2596   81.5182    9.9250 H   0  0  0  0  0  0  0  0  0  0  0  0
  7  8  1  0  0  0
  8  9  2  0  0  0
  8 13  1  0  0  0
  9 10  1  0  0  0
 10 11  2  0  0  0
 10 18  1  0  0  0
 11 12  1  0  0  0
 11 14  1  0  0  0
 12 13  2  0  0  0
 14 15  1  0  0  0
 15 16  2  0  0  0
 15 17  1  0  0  0
 16  1  1  0  0  0
  1  2  1  0  0  0
  1  6  1  0  0  0
  2  3  1  0  0  0
  3  4  1  0  0  0
  4  5  1  0  0  0
  4 22  1  0  0  0
  5  6  1  0  0  0
 22 23  2  0  0  0
 22 27  1  0  0  0
 23 24  1  0  0  0
 24 25  2  0  0  0
 25 26  1  0  0  0
 26 27  2  0  0  0
 27 28  1  0  0  0
 28 29  2  0  0  0
 28 30  1  0  0  0
 17 18  1  0  0  0
 18 19  2  0  0  0
 14 20  1  0  0  0
 30 31  1  0  0  0
 30 32  1  0  0  0
 17 21  1  0  0  0
M  END
> <minimizedAffinity>
-10.02914

$$$$
1808


 24 28  0  0  0  0  0  0  0  0999 V2000
   20.7024   79.4680   17.0701 N   0  0  0  0  0  0  0  0  0  0  0  0
   20.7043   80.8826   17.1816 C   0  0  0  0  0  0  0  0  0  0  0  0
   21.5454   81.6317   16.6290 O   0  0  0  0  0  0  0  0  0  0  0  0
   19.5667   81.3041   18.0425 C   0  0  0  0  0  0  0  0  0  0  0  0
   19.9741   81.4797   19.4728 C   0  0  0  0  0  0  0  0  0  0  0  0
   18.7742   81.1203   20.1259 O   0  0  0  0  0  0  0  0  0  0  0  0
   18.6910   79.8006   19.6148 C   0  0  0  0  0  0  0  0  0  0  0  0
   18.6812   80.0617   18.1480 C   0  0  0  0  0  0  0  0  0  0  0  0
   19.4082   78.9831   17.4262 C   0  0  0  0  0  0  0  0  0  0  0  0
   18.9487   77.8633   17.1864 O   0  0  0  0  0  0  0  0  0  0  0  0
   20.0402   79.3081   19.9968 C   0  0  0  0  0  0  0  0  0  0  0  0
   20.8466   80.3539   19.8421 C   0  0  0  0  0  0  0  0  0  0  0  0
   25.5892   76.2937   15.2908 Br  0  0  0  0  0  0  0  0  0  0  0  0
   24.0709   77.2813   15.8544 C   0  0  0  0  0  0  0  0  0  0  0  0
   23.9719   77.6813   17.1650 C   0  0  0  0  0  0  0  0  0  0  0  0
   22.8591   78.3982   17.5462 C   0  0  0  0  0  0  0  0  0  0  0  0
   21.8541   78.7194   16.6609 C   0  0  0  0  0  0  0  0  0  0  0  0
   21.9532   78.3165   15.3361 C   0  0  0  0  0  0  0  0  0  0  0  0
   23.0832   77.5909   14.9533 C   0  0  0  0  0  0  0  0  0  0  0  0
   20.4456   82.8210   19.8389 C   0  0  0  0  0  0  0  0  0  0  0  0
   20.4011   83.0804   21.1814 O   0  0  0  0  0  0  0  0  0  0  0  0
   19.4223   84.0126   21.4188 C   0  0  0  0  0  0  0  0  0  0  0  0
   18.8296   84.3507   20.0905 C   0  0  0  0  0  0  0  0  0  0  0  0
   19.7372   83.8129   19.1850 O   0  0  0  0  0  0  0  0  0  0  0  0
 13 14  1  0  0  0
 14 15  2  0  0  0
 14 19  1  0  0  0
 15 16  1  0  0  0
 16 17  2  0  0  0
 17 18  1  0  0  0
 17  1  1  0  0  0
 18 19  2  0  0  0
  1  2  1  0  0  0
  1  9  1  0  0  0
  2  3  2  0  0  0
  2  4  1  0  0  0
  4  5  1  0  0  0
  4  8  1  0  0  0
  5  6  1  0  0  0
  5 12  1  0  0  0
  5 20  1  0  0  0
  6  7  1  0  0  0
  7  8  1  0  0  0
  7 11  1  0  0  0
  8  9  1  0  0  0
  9 10  2  0  0  0
 11 12  2  0  0  0
 20 21  1  0  0  0
 20 24  1  0  0  0
 21 22  1  0  0  0
 22 23  1  0  0  0
 23 24  1  0  0  0
M  END
> <minimizedAffinity>
-9.76248

$$$$
1810


 32 35  0  0  0  0  0  0  0  0999 V2000
   22.4272   78.5629   14.3042 N   0  0  0  0  0  0  0  0  0  0  0  0
   23.4025   77.9674   15.1824 C   0  0  0  0  0  0  0  0  0  0  0  0
   22.6849   77.5257   16.4363 C   0  0  0  0  0  0  0  0  0  0  0  0
   21.2623   77.5850   16.2192 N   0  0  0  0  0  0  0  0  0  0  0  0
   20.6599   77.1387   14.9683 C   0  0  0  0  0  0  0  0  0  0  0  0
   21.5808   77.5002   13.8006 C   0  0  0  0  0  0  0  0  0  0  0  0
   20.4219   78.0932   17.2259 C   0  0  0  0  0  0  0  0  0  0  0  0
   19.1569   78.1008   17.0320 O   0  0  0  0  0  0  0  0  0  0  0  0
   20.9935   78.6177   18.4960 C   0  0  0  0  0  0  0  0  0  0  0  0
   21.2892   80.0887   18.4364 C   0  0  0  0  0  0  0  0  0  0  0  0
   20.2169   80.7331   19.1882 N   0  0  0  0  0  0  0  0  0  0  0  0
   19.2828   79.7600   19.6173 C   0  0  0  0  0  0  0  0  0  0  0  0
   18.0875   80.0017   19.9117 O   0  0  0  0  0  0  0  0  0  0  0  0
   20.0188   78.4777   19.6325 C   0  0  0  0  0  0  0  0  0  0  0  0
   20.1320   82.1531   19.4427 C   0  0  0  0  0  0  0  0  0  0  0  0
   20.2308   82.4609   20.8892 C   0  0  0  0  0  0  0  0  0  0  0  0
   19.3166   83.3349   21.4586 C   0  0  0  0  0  0  0  0  0  0  0  0
   19.3468   83.6709   22.8014 C   0  0  0  0  0  0  0  0  0  0  0  0
   20.3371   83.0975   23.5727 C   0  0  0  0  0  0  0  0  0  0  0  0
   21.2651   82.2214   23.0370 C   0  0  0  0  0  0  0  0  0  0  0  0
   21.2104   81.9009   21.6812 C   0  0  0  0  0  0  0  0  0  0  0  0
   18.0905   84.0263   20.4314 Cl  0  0  0  0  0  0  0  0  0  0  0  0
   23.1819   79.4451   13.0364 S   0  0  0  0  0  0  0  0  0  0  0  0
   24.6662   79.2148   13.0083 O   0  0  0  0  0  0  0  0  0  0  0  0
   22.9980   80.9128   13.3587 O   0  0  0  0  0  0  0  0  0  0  0  0
   22.4468   79.1131   11.4976 C   0  0  0  0  0  0  0  0  0  0  0  0
   21.1524   79.2858   11.0614 C   0  0  0  0  0  0  0  0  0  0  0  0
   21.0935   78.8576    9.7632 N   0  0  0  0  0  0  0  0  0  0  0  0
   22.2625   78.4552    9.4337 O   0  0  0  0  0  0  0  0  0  0  0  0
   23.1215   78.5772   10.4174 C   0  0  0  0  0  0  0  0  0  0  0  0
   24.5450   78.1889   10.3120 C   0  0  0  0  0  0  0  0  0  0  0  0
   20.0495   79.8430   11.8674 C   0  0  0  0  0  0  0  0  0  0  0  0
 23 24  2  0  0  0
 23 25  2  0  0  0
 23  1  1  0  0  0
 23 26  1  0  0  0
  1  2  1  0  0  0
  1  6  1  0  0  0
  2  3  1  0  0  0
  3  4  1  0  0  0
  4  5  1  0  0  0
  4  7  1  0  0  0
  5  6  1  0  0  0
  7  8  2  0  0  0
  7  9  1  0  0  0
  9 10  1  0  0  0
  9 14  1  0  0  0
 10 11  1  0  0  0
 11 12  1  0  0  0
 11 15  1  0  0  0
 12 13  2  0  0  0
 12 14  1  0  0  0
 15 16  1  0  0  0
 16 17  2  0  0  0
 16 21  1  0  0  0
 17 18  1  0  0  0
 17 22  1  0  0  0
 18 19  2  0  0  0
 19 20  1  0  0  0
 20 21  2  0  0  0
 26 27  1  0  0  0
 26 30  2  0  0  0
 27 28  2  0  0  0
 27 32  1  0  0  0
 28 29  1  0  0  0
 29 30  1  0  0  0
 30 31  1  0  0  0
M  END
> <minimizedAffinity>
-10.47918

$$$$
1816


 36 39  0  0  0  0  0  0  0  0999 V2000
   20.3650   77.7246   11.7847 C   0  0  0  0  0  0  0  0  0  0  0  0
   19.3191   76.9884   11.8110 O   0  0  0  0  0  0  0  0  0  0  0  0
   21.1670   77.7414   12.9119 N   0  0  0  0  0  0  0  0  0  0  0  0
   20.8825   76.9838   14.0905 C   0  0  0  0  0  0  0  0  0  0  0  0
   20.7317   77.9652   15.2546 C   0  0  0  0  0  0  0  0  0  0  0  0
   21.9025   78.7695   15.3512 N   0  0  0  0  0  0  0  0  0  0  0  0
   22.9545   78.5293   14.3404 C   0  0  0  0  0  0  0  0  0  0  0  0
   22.3641   78.5497   12.9481 C   0  0  0  0  0  0  0  0  0  0  0  0
   22.1357   79.7707   16.3175 C   0  0  0  0  0  0  0  0  0  0  0  0
   23.3176   80.3644   16.1874 O   0  0  0  0  0  0  0  0  0  0  0  0
   21.3376   80.2580   17.4019 C   0  0  0  0  0  0  0  0  0  0  0  0
   21.0682   81.6469   17.4973 C   0  0  0  0  0  0  0  0  0  0  0  0
   20.3139   82.1533   18.5218 C   0  0  0  0  0  0  0  0  0  0  0  0
   20.0896   83.3907   18.5834 O   0  0  0  0  0  0  0  0  0  0  0  0
   19.7914   81.3824   19.4846 N   0  0  0  0  0  0  0  0  0  0  0  0
   20.0448   80.0762   19.3954 C   0  0  0  0  0  0  0  0  0  0  0  0
   19.5704   79.2993   20.2876 O   0  0  0  0  0  0  0  0  0  0  0  0
   20.7999   79.5338   18.3770 N   0  0  0  0  0  0  0  0  0  0  0  0
   18.9999   81.9361   20.5589 C   0  0  0  0  0  0  0  0  0  0  0  0
   20.9348   78.5040   18.3967 H   0  0  0  0  0  0  0  0  0  0  0  0
   20.6236   78.4987   10.5392 C   0  0  0  0  0  0  0  0  0  0  0  0
   17.6373   74.0860    4.9610 Cl  0  0  0  0  0  0  0  0  0  0  0  0
   17.6585   75.5088    5.9776 C   0  0  0  0  0  0  0  0  0  0  0  0
   18.6432   75.7168    6.9385 C   0  0  0  0  0  0  0  0  0  0  0  0
   18.6562   76.8347    7.7372 C   0  0  0  0  0  0  0  0  0  0  0  0
   17.6627   77.7719    7.5740 C   0  0  0  0  0  0  0  0  0  0  0  0
   16.6735   77.5592    6.6046 C   0  0  0  0  0  0  0  0  0  0  0  0
   16.6595   76.4391    5.8055 C   0  0  0  0  0  0  0  0  0  0  0  0
   17.6633   78.8440    8.3286 O   0  0  0  0  0  0  0  0  0  0  0  0
   18.5747   79.0685    9.2434 C   0  0  0  0  0  0  0  0  0  0  0  0
   18.5415   80.1252    9.9588 O   0  0  0  0  0  0  0  0  0  0  0  0
   19.6246   78.1861    9.4921 C   0  0  0  0  0  0  0  0  0  0  0  0
   19.6393   77.0556    8.7069 C   0  0  0  0  0  0  0  0  0  0  0  0
   20.6915   76.0574    8.8699 C   0  0  0  0  0  0  0  0  0  0  0  0
   15.6614   76.2338    4.8351 O   0  0  0  0  0  0  0  0  0  0  0  0
   14.5209   75.4531    5.0942 C   0  0  0  0  0  0  0  0  0  0  0  0
 22 23  1  0  0  0
 23 24  2  0  0  0
 23 28  1  0  0  0
 24 25  1  0  0  0
 25 26  2  0  0  0
 25 33  1  0  0  0
 26 27  1  0  0  0
 26 29  1  0  0  0
 27 28  2  0  0  0
 28 35  1  0  0  0
 35 36  1  0  0  0
 29 30  1  0  0  0
 30 31  2  0  0  0
 30 32  1  0  0  0
 32 33  2  0  0  0
 32 21  1  0  0  0
 33 34  1  0  0  0
 21  1  1  0  0  0
  1  2  2  0  0  0
  1  3  1  0  0  0
  3  4  1  0  0  0
  3  8  1  0  0  0
  4  5  1  0  0  0
  5  6  1  0  0  0
  6  7  1  0  0  0
  6  9  1  0  0  0
  7  8  1  0  0  0
  9 10  2  0  0  0
  9 11  1  0  0  0
 11 12  2  0  0  0
 11 18  1  0  0  0
 12 13  1  0  0  0
 13 14  2  0  0  0
 13 15  1  0  0  0
 15 16  1  0  0  0
 15 19  1  0  0  0
 16 17  2  0  0  0
 16 18  1  0  0  0
 18 20  1  0  0  0
M  END
> <minimizedAffinity>
-9.42467

$$$$
1822


 24 27  0  0  0  0  0  0  0  0999 V2000
   17.7307   72.7049   10.4284 Cl  0  0  0  0  0  0  0  0  0  0  0  0
   18.5289   73.4497   11.8096 C   0  0  0  0  0  0  0  0  0  0  0  0
   18.8452   72.6560   12.8892 C   0  0  0  0  0  0  0  0  0  0  0  0
   19.4539   73.2339   13.9368 N   0  0  0  0  0  0  0  0  0  0  0  0
   19.7649   74.5562   13.9672 C   0  0  0  0  0  0  0  0  0  0  0  0
   19.4616   75.3401   12.9190 N   0  0  0  0  0  0  0  0  0  0  0  0
   19.8606   76.5806   13.1838 N   0  0  0  0  0  0  0  0  0  0  0  0
   20.4311   76.6339   14.4043 C   0  0  0  0  0  0  0  0  0  0  0  0
   20.3575   75.3608   14.8676 N   0  0  0  0  0  0  0  0  0  0  0  0
   18.8458   74.7897   11.8441 C   0  0  0  0  0  0  0  0  0  0  0  0
   18.5581   75.5296   10.8506 O   0  0  0  0  0  0  0  0  0  0  0  0
   18.5081   71.1923   12.8716 C   0  0  0  0  0  0  0  0  0  0  0  0
   19.6965   72.6354   14.7616 H   0  0  0  0  0  0  0  0  0  0  0  0
   20.9854   77.7698   15.0625 N   0  0  0  0  0  0  0  0  0  0  0  0
   20.6531   78.2207   16.3683 C   0  0  0  0  0  0  0  0  0  0  0  0
   20.1069   77.5750   17.3000 O   0  0  0  0  0  0  0  0  0  0  0  0
   21.0618   79.6596   16.5103 C   0  0  0  0  0  0  0  0  0  0  0  0
   21.9260   79.9479   15.3351 C   0  0  0  0  0  0  0  0  0  0  0  0
   23.3667   80.2798   15.6810 C   0  0  0  0  0  0  0  0  0  0  0  0
   23.8358   79.2080   16.6169 C   0  0  0  0  0  0  0  0  0  0  0  0
   23.0601   78.9951   17.6645 C   0  0  0  0  0  0  0  0  0  0  0  0
   21.8365   79.8210   17.8004 C   0  0  0  0  0  0  0  0  0  0  0  0
   21.9619   78.6803   14.5815 C   0  0  0  0  0  0  0  0  0  0  0  0
   22.7579   78.4201   13.6213 O   0  0  0  0  0  0  0  0  0  0  0  0
  1  2  1  0  0  0
  2  3  2  0  0  0
  2 10  1  0  0  0
  3  4  1  0  0  0
  3 12  1  0  0  0
  4  5  1  0  0  0
  5  6  1  0  0  0
  5  9  2  0  0  0
  6  7  1  0  0  0
  6 10  1  0  0  0
  7  8  2  0  0  0
  8  9  1  0  0  0
  8 14  1  0  0  0
 14 15  1  0  0  0
 14 23  1  0  0  0
 15 16  2  0  0  0
 15 17  1  0  0  0
 17 18  1  0  0  0
 17 22  1  0  0  0
 18 19  1  0  0  0
 18 23  1  0  0  0
 19 20  1  0  0  0
 20 21  2  0  0  0
 21 22  1  0  0  0
 23 24  2  0  0  0
 10 11  2  0  0  0
  4 13  1  0  0  0
M  END
> <minimizedAffinity>
-9.70951

$$$$
1825


 29 32  0  0  0  0  0  0  0  0999 V2000
   20.2807   77.9186   18.1213 N   0  0  0  0  0  0  0  0  0  0  0  0
   21.4916   78.2948   17.6118 C   0  0  0  0  0  0  0  0  0  0  0  0
   21.5727   77.8973   16.3312 N   0  0  0  0  0  0  0  0  0  0  0  0
   20.4490   77.2670   15.9666 C   0  0  0  0  0  0  0  0  0  0  0  0
   19.6525   77.2976   17.1208 C   0  0  0  0  0  0  0  0  0  0  0  0
   22.8757   78.2963   15.7994 C   0  0  0  0  0  0  0  0  0  0  0  0
   23.7200   78.6177   17.0179 C   0  0  0  0  0  0  0  0  0  0  0  0
   22.7170   79.0150   18.0415 C   0  0  0  0  0  0  0  0  0  0  0  0
   20.0327   76.6487   14.7184 C   0  0  0  0  0  0  0  0  0  0  0  0
   19.2565   75.5237   14.6733 C   0  0  0  0  0  0  0  0  0  0  0  0
   18.8366   74.9361   13.4942 C   0  0  0  0  0  0  0  0  0  0  0  0
   19.1950   75.4740   12.2676 C   0  0  0  0  0  0  0  0  0  0  0  0
   19.9741   76.6048   12.3109 C   0  0  0  0  0  0  0  0  0  0  0  0
   20.3936   77.1918   13.4884 C   0  0  0  0  0  0  0  0  0  0  0  0
   18.7940   74.9127   11.0669 O   0  0  0  0  0  0  0  0  0  0  0  0
   19.2218   75.4030    9.8097 C   0  0  0  0  0  0  0  0  0  0  0  0
   19.8390   78.1620   19.5022 C   0  0  0  0  0  0  0  0  0  0  0  0
   20.2296   80.6062   20.0433 N   0  0  0  0  0  0  0  0  0  0  0  0
   19.3801   79.6017   19.6082 C   0  0  0  0  0  0  0  0  0  0  0  0
   18.2043   79.7990   19.2832 O   0  0  0  0  0  0  0  0  0  0  0  0
   21.2227   80.3114   20.2913 H   0  0  0  0  0  0  0  0  0  0  0  0
   20.1796   85.2656   17.8422 Cl  0  0  0  0  0  0  0  0  0  0  0  0
   19.8698   84.1790   19.1798 C   0  0  0  0  0  0  0  0  0  0  0  0
   20.1603   82.8358   19.1050 C   0  0  0  0  0  0  0  0  0  0  0  0
   19.9018   81.9686   20.1888 C   0  0  0  0  0  0  0  0  0  0  0  0
   19.3555   82.5443   21.2985 C   0  0  0  0  0  0  0  0  0  0  0  0
   19.0572   83.9193   21.3794 C   0  0  0  0  0  0  0  0  0  0  0  0
   19.3179   84.7365   20.3096 C   0  0  0  0  0  0  0  0  0  0  0  0
   20.7542   82.2986   17.8683 C   0  0  0  0  0  0  0  0  0  0  0  0
 22 23  1  0  0  0
 23 24  2  0  0  0
 23 28  1  0  0  0
 24 25  1  0  0  0
 24 29  1  0  0  0
 25 26  2  0  0  0
 25 18  1  0  0  0
 26 27  1  0  0  0
 27 28  2  0  0  0
 18 19  1  0  0  0
 19 20  2  0  0  0
 19 17  1  0  0  0
 17  1  1  0  0  0
  1  2  1  0  0  0
  1  5  1  0  0  0
  2  3  2  0  0  0
  2  8  1  0  0  0
  3  4  1  0  0  0
  3  6  1  0  0  0
  4  5  2  0  0  0
  4  9  1  0  0  0
  9 10  2  0  0  0
  9 14  1  0  0  0
 10 11  1  0  0  0
 11 12  2  0  0  0
 12 13  1  0  0  0
 12 15  1  0  0  0
 13 14  2  0  0  0
 15 16  1  0  0  0
  6  7  1  0  0  0
  7  8  1  0  0  0
 18 21  1  0  0  0
M  END
> <minimizedAffinity>
-10.38860

$$$$
1835


 36 39  0  0  0  0  0  0  0  0999 V2000
   19.7764   76.4990   12.9462 C   0  0  0  0  0  0  0  0  0  0  0  0
   19.2016   75.4373   12.3598 N   0  0  0  0  0  0  0  0  0  0  0  0
   19.2013   75.6970   11.0409 C   0  0  0  0  0  0  0  0  0  0  0  0
   18.7584   75.0033    9.9643 N   0  0  0  0  0  0  0  0  0  0  0  0
   18.8737   75.4858    8.7117 C   0  0  0  0  0  0  0  0  0  0  0  0
   19.4431   76.6921    8.5007 N   0  0  0  0  0  0  0  0  0  0  0  0
   19.9069   77.4412    9.5185 C   0  0  0  0  0  0  0  0  0  0  0  0
   19.7775   76.9247   10.7930 C   0  0  0  0  0  0  0  0  0  0  0  0
   20.1299   77.4081   12.0072 N   0  0  0  0  0  0  0  0  0  0  0  0
   20.4975   78.7005    9.2656 N   0  0  0  0  0  0  0  0  0  0  0  0
   21.3540   78.7975    8.6933 H   0  0  0  0  0  0  0  0  0  0  0  0
   20.0613   79.5501    9.6655 H   0  0  0  0  0  0  0  0  0  0  0  0
   18.6704   74.2363   12.9356 C   0  0  0  0  0  0  0  0  0  0  0  0
   17.4884   73.8250   12.3251 O   0  0  0  0  0  0  0  0  0  0  0  0
   17.3693   72.5220   12.8070 C   0  0  0  0  0  0  0  0  0  0  0  0
   18.7154   71.9410   12.4010 C   0  0  0  0  0  0  0  0  0  0  0  0
   19.6406   73.0779   12.7834 C   0  0  0  0  0  0  0  0  0  0  0  0
   20.2229   72.7373   14.0062 O   0  0  0  0  0  0  0  0  0  0  0  0
   19.0076   70.7775   13.0989 O   0  0  0  0  0  0  0  0  0  0  0  0
   19.7796   73.1747   14.7605 H   0  0  0  0  0  0  0  0  0  0  0  0
   18.3321   70.6888   13.8241 H   0  0  0  0  0  0  0  0  0  0  0  0
   16.2242   71.7734   12.1802 C   0  0  0  0  0  0  0  0  0  0  0  0
   16.2591   70.4243   12.4324 O   0  0  0  0  0  0  0  0  0  0  0  0
   17.1521   70.1227   12.7081 H   0  0  0  0  0  0  0  0  0  0  0  0
   19.9883   76.6575   14.3417 N   0  0  0  0  0  0  0  0  0  0  0  0
   19.1875   76.6448   15.0173 H   0  0  0  0  0  0  0  0  0  0  0  0
   21.6453   78.0316   15.1630 C   0  0  0  0  0  0  0  0  0  0  0  0
   21.2612   76.8399   14.8867 N   0  0  0  0  0  0  0  0  0  0  0  0
   21.8474   77.7916   18.1253 Cl  0  0  0  0  0  0  0  0  0  0  0  0
   23.1869   78.2380   17.0942 C   0  0  0  0  0  0  0  0  0  0  0  0
   22.9643   78.3146   15.7364 C   0  0  0  0  0  0  0  0  0  0  0  0
   24.0230   78.6672   14.9277 C   0  0  0  0  0  0  0  0  0  0  0  0
   25.2799   78.9381   15.4508 C   0  0  0  0  0  0  0  0  0  0  0  0
   25.5113   78.8642   16.8090 C   0  0  0  0  0  0  0  0  0  0  0  0
   24.4525   78.5115   17.6177 C   0  0  0  0  0  0  0  0  0  0  0  0
   23.7446   78.7664   13.1927 Cl  0  0  0  0  0  0  0  0  0  0  0  0
 29 30  1  0  0  0
 30 31  2  0  0  0
 30 35  1  0  0  0
 31 32  1  0  0  0
 31 27  1  0  0  0
 32 33  2  0  0  0
 32 36  1  0  0  0
 33 34  1  0  0  0
 34 35  2  0  0  0
 27 28  2  0  0  0
 28 25  1  0  0  0
 25  1  1  0  0  0
  1  2  1  0  0  0
  1  9  2  0  0  0
  2  3  1  0  0  0
  2 13  1  0  0  0
  3  4  2  0  0  0
  3  8  1  0  0  0
  4  5  1  0  0  0
  5  6  2  0  0  0
  6  7  1  0  0  0
  7  8  2  0  0  0
  7 10  1  0  0  0
  8  9  1  0  0  0
 13 14  1  0  0  0
 13 17  1  0  0  0
 14 15  1  0  0  0
 15 16  1  0  0  0
 15 22  1  0  0  0
 16 17  1  0  0  0
 16 19  1  0  0  0
 17 18  1  0  0  0
 22 23  1  0  0  0
 25 26  1  0  0  0
 10 11  1  0  0  0
 10 12  1  0  0  0
 18 20  1  0  0  0
 19 21  1  0  0  0
 23 24  1  0  0  0
M  END
> <minimizedAffinity>
-9.69679

$$$$
1837


 29 32  0  0  0  0  0  0  0  0999 V2000
   21.7036   78.0719   15.0409 N   0  0  0  0  0  0  0  0  0  0  0  0
   21.8884   79.4972   15.3851 C   0  0  0  0  0  0  0  0  0  0  0  0
   22.0025   80.1556   13.9945 C   0  0  0  0  0  0  0  0  0  0  0  0
   22.7337   79.1475   13.2120 N   0  0  0  0  0  0  0  0  0  0  0  0
   23.7773   78.4754   13.9197 C   0  0  0  0  0  0  0  0  0  0  0  0
   23.0779   77.5318   14.9115 C   0  0  0  0  0  0  0  0  0  0  0  0
   22.3519   78.9195   11.8822 C   0  0  0  0  0  0  0  0  0  0  0  0
   23.1251   79.3819   10.8523 N   0  0  0  0  0  0  0  0  0  0  0  0
   22.8231   79.2169    9.5651 C   0  0  0  0  0  0  0  0  0  0  0  0
   21.7041   78.5656    9.2300 N   0  0  0  0  0  0  0  0  0  0  0  0
   20.8729   78.0689   10.1402 C   0  0  0  0  0  0  0  0  0  0  0  0
   19.7085   77.3926   10.0787 N   0  0  0  0  0  0  0  0  0  0  0  0
   19.3421   77.1676   11.3150 N   0  0  0  0  0  0  0  0  0  0  0  0
   20.2248   77.6736   12.1623 N   0  0  0  0  0  0  0  0  0  0  0  0
   21.2016   78.2499   11.4874 C   0  0  0  0  0  0  0  0  0  0  0  0
   18.9659   76.9746    8.9048 C   0  0  0  0  0  0  0  0  0  0  0  0
   19.5918   75.7564    8.2616 C   0  0  0  0  0  0  0  0  0  0  0  0
   21.0276   77.3700   16.1167 C   0  0  0  0  0  0  0  0  0  0  0  0
   20.4508   75.4443   14.5572 N   0  0  0  0  0  0  0  0  0  0  0  0
   20.0427   76.4309   15.4596 C   0  0  0  0  0  0  0  0  0  0  0  0
   18.8241   76.5566   15.7419 O   0  0  0  0  0  0  0  0  0  0  0  0
   21.4941   75.4187   14.3303 H   0  0  0  0  0  0  0  0  0  0  0  0
   17.1546   71.3180   11.7354 Cl  0  0  0  0  0  0  0  0  0  0  0  0
   18.1226   72.5230   12.5577 C   0  0  0  0  0  0  0  0  0  0  0  0
   19.3524   72.2054   13.1160 C   0  0  0  0  0  0  0  0  0  0  0  0
   20.0899   73.1680   13.7551 C   0  0  0  0  0  0  0  0  0  0  0  0
   19.6557   74.4963   13.8796 C   0  0  0  0  0  0  0  0  0  0  0  0
   18.4410   74.7845   13.3232 C   0  0  0  0  0  0  0  0  0  0  0  0
   17.6831   73.8192   12.6717 C   0  0  0  0  0  0  0  0  0  0  0  0
 23 24  1  0  0  0
 24 25  2  0  0  0
 24 29  1  0  0  0
 25 26  1  0  0  0
 26 27  2  0  0  0
 27 28  1  0  0  0
 27 19  1  0  0  0
 28 29  2  0  0  0
 19 20  1  0  0  0
 20 21  2  0  0  0
 20 18  1  0  0  0
 18  1  1  0  0  0
  1  2  1  0  0  0
  1  6  1  0  0  0
  2  3  1  0  0  0
  3  4  1  0  0  0
  4  5  1  0  0  0
  4  7  1  0  0  0
  5  6  1  0  0  0
  7  8  2  0  0  0
  7 15  1  0  0  0
  8  9  1  0  0  0
  9 10  2  0  0  0
 10 11  1  0  0  0
 11 12  1  0  0  0
 11 15  2  0  0  0
 12 13  1  0  0  0
 12 16  1  0  0  0
 13 14  2  0  0  0
 14 15  1  0  0  0
 16 17  1  0  0  0
 19 22  1  0  0  0
M  END
> <minimizedAffinity>
-9.41029

$$$$
1846


 31 34  0  0  0  0  0  0  0  0999 V2000
   21.5291   77.8002   15.5464 N   0  0  0  0  0  0  0  0  0  0  0  0
   22.0823   78.8105   14.8400 C   0  0  0  0  0  0  0  0  0  0  0  0
   21.8244   78.9452   13.5221 N   0  0  0  0  0  0  0  0  0  0  0  0
   21.0247   78.1096   12.8493 C   0  0  0  0  0  0  0  0  0  0  0  0
   20.7616   78.2354   11.5382 N   0  0  0  0  0  0  0  0  0  0  0  0
   19.9635   77.4107   10.8391 C   0  0  0  0  0  0  0  0  0  0  0  0
   19.3960   76.3865   11.5326 N   0  0  0  0  0  0  0  0  0  0  0  0
   19.6319   76.2241   12.8441 C   0  0  0  0  0  0  0  0  0  0  0  0
   20.4530   77.0767   13.5517 C   0  0  0  0  0  0  0  0  0  0  0  0
   20.7081   76.9265   14.8995 C   0  0  0  0  0  0  0  0  0  0  0  0
   20.1563   75.9630   15.4861 O   0  0  0  0  0  0  0  0  0  0  0  0
   19.7124   77.5773    9.4566 N   0  0  0  0  0  0  0  0  0  0  0  0
   19.9765   76.4681    8.5699 C   0  0  0  0  0  0  0  0  0  0  0  0
   18.8686   76.4021    7.5204 C   0  0  0  0  0  0  0  0  0  0  0  0
   18.6356   77.6455    6.9369 O   0  0  0  0  0  0  0  0  0  0  0  0
   18.0695   78.4501    7.9261 C   0  0  0  0  0  0  0  0  0  0  0  0
   19.2045   78.8040    8.8875 C   0  0  0  0  0  0  0  0  0  0  0  0
   21.7506   77.5865   16.9417 C   0  0  0  0  0  0  0  0  0  0  0  0
   20.2765   79.4388   17.8423 N   0  0  0  0  0  0  0  0  0  0  0  0
   21.5403   78.8336   17.7545 C   0  0  0  0  0  0  0  0  0  0  0  0
   22.5422   79.2828   18.3326 O   0  0  0  0  0  0  0  0  0  0  0  0
   19.4591   78.9862   17.3104 H   0  0  0  0  0  0  0  0  0  0  0  0
   20.8902   84.5108   17.9900 Cl  0  0  0  0  0  0  0  0  0  0  0  0
   20.2722   83.0431   18.7187 C   0  0  0  0  0  0  0  0  0  0  0  0
   19.5918   83.0942   19.9114 C   0  0  0  0  0  0  0  0  0  0  0  0
   19.1422   81.8985   20.4144 C   0  0  0  0  0  0  0  0  0  0  0  0
   19.3447   80.6728   19.7765 C   0  0  0  0  0  0  0  0  0  0  0  0
   20.0221   80.6114   18.5863 C   0  0  0  0  0  0  0  0  0  0  0  0
   20.4775   81.8444   18.0832 C   0  0  0  0  0  0  0  0  0  0  0  0
   19.3694   84.3055   20.5808 O   0  0  0  0  0  0  0  0  0  0  0  0
   18.0787   84.6218   21.0491 C   0  0  0  0  0  0  0  0  0  0  0  0
 23 24  1  0  0  0
 24 25  2  0  0  0
 24 29  1  0  0  0
 25 26  1  0  0  0
 25 30  1  0  0  0
 26 27  2  0  0  0
 27 28  1  0  0  0
 28 29  2  0  0  0
 28 19  1  0  0  0
 19 20  1  0  0  0
 20 21  2  0  0  0
 20 18  1  0  0  0
 18  1  1  0  0  0
  1  2  1  0  0  0
  1 10  1  0  0  0
  2  3  2  0  0  0
  3  4  1  0  0  0
  4  5  2  0  0  0
  4  9  1  0  0  0
  5  6  1  0  0  0
  6  7  2  0  0  0
  6 12  1  0  0  0
  7  8  1  0  0  0
  8  9  2  0  0  0
  9 10  1  0  0  0
 10 11  2  0  0  0
 12 13  1  0  0  0
 12 17  1  0  0  0
 13 14  1  0  0  0
 14 15  1  0  0  0
 15 16  1  0  0  0
 16 17  1  0  0  0
 30 31  1  0  0  0
 19 22  1  0  0  0
M  END
> <minimizedAffinity>
-9.95239

$$$$
1850


 24 27  0  0  0  0  0  0  0  0999 V2000
   25.8423   79.1261   16.9585 Cl  0  0  0  0  0  0  0  0  0  0  0  0
   24.3114   79.6052   16.2388 C   0  0  0  0  0  0  0  0  0  0  0  0
   23.1262   79.0529   16.6817 C   0  0  0  0  0  0  0  0  0  0  0  0
   21.9358   79.4246   16.1230 C   0  0  0  0  0  0  0  0  0  0  0  0
   21.9510   80.3587   15.1121 C   0  0  0  0  0  0  0  0  0  0  0  0
   23.1221   80.9220   14.6546 C   0  0  0  0  0  0  0  0  0  0  0  0
   24.3190   80.5399   15.2260 C   0  0  0  0  0  0  0  0  0  0  0  0
   20.6235   78.8782   16.5435 C   0  0  0  0  0  0  0  0  0  0  0  0
   20.8520   78.0829   17.7252 N   0  0  0  0  0  0  0  0  0  0  0  0
   21.9724   77.1725   17.6893 C   0  0  0  0  0  0  0  0  0  0  0  0
   23.2264   78.0502   17.7811 C   0  0  0  0  0  0  0  0  0  0  0  0
   20.0357   78.1704   18.8770 C   0  0  0  0  0  0  0  0  0  0  0  0
   20.2898   77.4477   19.8762 O   0  0  0  0  0  0  0  0  0  0  0  0
   18.8716   79.0812   18.9825 C   0  0  0  0  0  0  0  0  0  0  0  0
   19.0139   80.0010   20.0200 O   0  0  0  0  0  0  0  0  0  0  0  0
   19.2635   81.3543   19.8330 C   0  0  0  0  0  0  0  0  0  0  0  0
   18.7522   82.2440   20.7054 N   0  0  0  0  0  0  0  0  0  0  0  0
   18.9546   83.5531   20.5816 N   0  0  0  0  0  0  0  0  0  0  0  0
   19.6800   84.0743   19.5833 C   0  0  0  0  0  0  0  0  0  0  0  0
   19.7126   85.4149   19.7139 N   0  0  0  0  0  0  0  0  0  0  0  0
   19.0126   85.7078   20.7827 N   0  0  0  0  0  0  0  0  0  0  0  0
   18.5336   84.5825   21.3386 C   0  0  0  0  0  0  0  0  0  0  0  0
   20.2239   83.1853   18.6629 C   0  0  0  0  0  0  0  0  0  0  0  0
   20.0158   81.8331   18.7895 C   0  0  0  0  0  0  0  0  0  0  0  0
  1  2  1  0  0  0
  2  3  2  0  0  0
  2  7  1  0  0  0
  3  4  1  0  0  0
  3 11  1  0  0  0
  4  5  2  0  0  0
  4  8  1  0  0  0
  5  6  1  0  0  0
  6  7  2  0  0  0
  8  9  1  0  0  0
  9 10  1  0  0  0
  9 12  1  0  0  0
 10 11  1  0  0  0
 12 13  2  0  0  0
 12 14  1  0  0  0
 14 15  1  0  0  0
 15 16  1  0  0  0
 16 17  2  0  0  0
 16 24  1  0  0  0
 17 18  1  0  0  0
 18 19  1  0  0  0
 18 22  1  0  0  0
 19 20  2  0  0  0
 19 23  1  0  0  0
 20 21  1  0  0  0
 21 22  2  0  0  0
 23 24  2  0  0  0
M  END
> <minimizedAffinity>
-9.49940

$$$$
1852


 26 29  0  0  0  0  0  0  0  0999 V2000
   20.9375   78.0268   17.5850 S   0  0  0  0  0  0  0  0  0  0  0  0
   22.4270   77.9806   17.6362 O   0  0  0  0  0  0  0  0  0  0  0  0
   20.3902   76.8020   18.2697 O   0  0  0  0  0  0  0  0  0  0  0  0
   20.3600   79.4469   18.4253 C   0  0  0  0  0  0  0  0  0  0  0  0
   20.6011   80.7073   17.9158 C   0  0  0  0  0  0  0  0  0  0  0  0
   20.1664   81.8630   18.5418 C   0  0  0  0  0  0  0  0  0  0  0  0
   19.4584   81.7776   19.7266 C   0  0  0  0  0  0  0  0  0  0  0  0
   19.2221   80.5226   20.2260 C   0  0  0  0  0  0  0  0  0  0  0  0
   19.6533   79.3698   19.6056 C   0  0  0  0  0  0  0  0  0  0  0  0
   19.0408   82.9590   20.3187 O   0  0  0  0  0  0  0  0  0  0  0  0
   19.6835   84.2048   20.1136 C   0  0  0  0  0  0  0  0  0  0  0  0
   20.3293   84.3224   18.7586 C   0  0  0  0  0  0  0  0  0  0  0  0
   20.4006   83.1237   18.0437 O   0  0  0  0  0  0  0  0  0  0  0  0
   20.4000   77.9906   15.9501 N   0  0  0  0  0  0  0  0  0  0  0  0
   19.7130   76.7808   15.6238 C   0  0  0  0  0  0  0  0  0  0  0  0
   20.3125   76.2460   14.3347 C   0  0  0  0  0  0  0  0  0  0  0  0
   21.7200   76.8025   14.3955 C   0  0  0  0  0  0  0  0  0  0  0  0
   21.4561   78.1832   15.0077 C   0  0  0  0  0  0  0  0  0  0  0  0
   20.3876   74.8350   14.4489 O   0  0  0  0  0  0  0  0  0  0  0  0
   19.5628   73.9936   13.7198 C   0  0  0  0  0  0  0  0  0  0  0  0
   19.9863   72.7021   13.5996 N   0  0  0  0  0  0  0  0  0  0  0  0
   19.2067   71.8626   12.8986 C   0  0  0  0  0  0  0  0  0  0  0  0
   18.0225   72.2632   12.3131 C   0  0  0  0  0  0  0  0  0  0  0  0
   17.6441   73.5831   12.4680 C   0  0  0  0  0  0  0  0  0  0  0  0
   18.4278   74.4263   13.1737 N   0  0  0  0  0  0  0  0  0  0  0  0
   17.0162   71.1573   11.4007 Cl  0  0  0  0  0  0  0  0  0  0  0  0
  1  2  2  0  0  0
  1  3  2  0  0  0
  1 14  1  0  0  0
  1  4  1  0  0  0
 14 15  1  0  0  0
 14 18  1  0  0  0
 15 16  1  0  0  0
 16 17  1  0  0  0
 16 19  1  0  0  0
 17 18  1  0  0  0
 19 20  1  0  0  0
 20 21  2  0  0  0
 20 25  1  0  0  0
 21 22  1  0  0  0
 22 23  2  0  0  0
 23 24  1  0  0  0
 23 26  1  0  0  0
 24 25  2  0  0  0
  4  5  2  0  0  0
  4  9  1  0  0  0
  5  6  1  0  0  0
  6  7  2  0  0  0
  6 13  1  0  0  0
  7  8  1  0  0  0
  7 10  1  0  0  0
  8  9  2  0  0  0
 10 11  1  0  0  0
 11 12  1  0  0  0
 12 13  1  0  0  0
M  END
> <minimizedAffinity>
-9.90256

$$$$
1856


 31 34  0  0  0  0  0  0  0  0999 V2000
   20.2965   76.3142   14.3170 C   0  0  0  0  0  0  0  0  0  0  0  0
   20.3161   77.1421   13.2611 N   0  0  0  0  0  0  0  0  0  0  0  0
   19.7485   76.8529   12.0604 C   0  0  0  0  0  0  0  0  0  0  0  0
   19.1414   75.6385   11.9900 N   0  0  0  0  0  0  0  0  0  0  0  0
   19.0902   74.7691   13.0110 C   0  0  0  0  0  0  0  0  0  0  0  0
   19.6674   75.1253   14.1513 N   0  0  0  0  0  0  0  0  0  0  0  0
   18.4405   73.5212   12.8668 N   0  0  0  0  0  0  0  0  0  0  0  0
   19.1449   72.2901   12.5720 C   0  0  0  0  0  0  0  0  0  0  0  0
   18.4035   71.1187   13.1790 C   0  0  0  0  0  0  0  0  0  0  0  0
   17.1003   71.0198   12.7710 O   0  0  0  0  0  0  0  0  0  0  0  0
   16.6132   72.1718   12.1668 C   0  0  0  0  0  0  0  0  0  0  0  0
   16.9871   73.3884   13.0087 C   0  0  0  0  0  0  0  0  0  0  0  0
   19.7865   77.7450   10.9722 N   0  0  0  0  0  0  0  0  0  0  0  0
   20.3861   79.0382   11.1108 C   0  0  0  0  0  0  0  0  0  0  0  0
   21.4146   79.1760   10.0008 C   0  0  0  0  0  0  0  0  0  0  0  0
   20.7271   79.0173    8.7879 O   0  0  0  0  0  0  0  0  0  0  0  0
   20.2960   77.6979    8.6484 C   0  0  0  0  0  0  0  0  0  0  0  0
   19.2286   77.3845    9.7040 C   0  0  0  0  0  0  0  0  0  0  0  0
   20.9048   76.6630   15.5520 N   0  0  0  0  0  0  0  0  0  0  0  0
   21.8372   76.2886   15.8171 H   0  0  0  0  0  0  0  0  0  0  0  0
   21.0281   78.3640   17.1232 C   0  0  0  0  0  0  0  0  0  0  0  0
   20.2733   77.5207   16.4528 N   0  0  0  0  0  0  0  0  0  0  0  0
   20.3019   83.4081   18.6167 Br  0  0  0  0  0  0  0  0  0  0  0  0
   20.0372   81.5288   18.8085 C   0  0  0  0  0  0  0  0  0  0  0  0
   20.6075   80.6586   17.9280 C   0  0  0  0  0  0  0  0  0  0  0  0
   20.4110   79.2765   18.0729 C   0  0  0  0  0  0  0  0  0  0  0  0
   19.6383   78.8288   19.1098 C   0  0  0  0  0  0  0  0  0  0  0  0
   19.0532   79.7310   20.0131 C   0  0  0  0  0  0  0  0  0  0  0  0
   19.2598   81.0772   19.8516 C   0  0  0  0  0  0  0  0  0  0  0  0
   19.4107   77.4803   19.3010 O   0  0  0  0  0  0  0  0  0  0  0  0
   19.7765   76.7538   18.7204 H   0  0  0  0  0  0  0  0  0  0  0  0
 23 24  1  0  0  0
 24 25  2  0  0  0
 24 29  1  0  0  0
 25 26  1  0  0  0
 26 27  2  0  0  0
 26 21  1  0  0  0
 27 28  1  0  0  0
 27 30  1  0  0  0
 28 29  2  0  0  0
 21 22  2  0  0  0
 22 19  1  0  0  0
 19  1  1  0  0  0
  1  2  2  0  0  0
  1  6  1  0  0  0
  2  3  1  0  0  0
  3  4  2  0  0  0
  3 13  1  0  0  0
  4  5  1  0  0  0
  5  6  2  0  0  0
  5  7  1  0  0  0
  7  8  1  0  0  0
  7 12  1  0  0  0
  8  9  1  0  0  0
  9 10  1  0  0  0
 10 11  1  0  0  0
 11 12  1  0  0  0
 13 14  1  0  0  0
 13 18  1  0  0  0
 14 15  1  0  0  0
 15 16  1  0  0  0
 16 17  1  0  0  0
 17 18  1  0  0  0
 30 31  1  0  0  0
 19 20  1  0  0  0
M  END
> <minimizedAffinity>
-10.42776

$$$$
1863


 33 36  0  0  0  0  0  0  0  0999 V2000
   19.9971   76.7406   13.6760 N   0  0  0  0  0  0  0  0  0  0  0  0
   20.2836   77.1408   12.4067 C   0  0  0  0  0  0  0  0  0  0  0  0
   21.3520   77.9958   12.4732 C   0  0  0  0  0  0  0  0  0  0  0  0
   21.6739   78.0853   13.7630 N   0  0  0  0  0  0  0  0  0  0  0  0
   20.8491   77.3192   14.5260 C   0  0  0  0  0  0  0  0  0  0  0  0
   21.8100   78.5382   11.3316 N   0  0  0  0  0  0  0  0  0  0  0  0
   21.2383   78.2594   10.1292 C   0  0  0  0  0  0  0  0  0  0  0  0
   21.6643   78.7676    9.0444 O   0  0  0  0  0  0  0  0  0  0  0  0
   20.1889   77.4258   10.0329 N   0  0  0  0  0  0  0  0  0  0  0  0
   19.7197   76.8750   11.1609 C   0  0  0  0  0  0  0  0  0  0  0  0
   18.7410   76.1052   11.0377 O   0  0  0  0  0  0  0  0  0  0  0  0
   22.9270   79.4458   11.3499 C   0  0  0  0  0  0  0  0  0  0  0  0
   19.7449   77.2096    9.0898 H   0  0  0  0  0  0  0  0  0  0  0  0
   20.9139   77.2368   15.9650 N   0  0  0  0  0  0  0  0  0  0  0  0
   22.1910   77.5822   16.5454 C   0  0  0  0  0  0  0  0  0  0  0  0
   22.1957   77.5680   18.0527 C   0  0  0  0  0  0  0  0  0  0  0  0
   21.0429   78.2613   18.4992 N   0  0  0  0  0  0  0  0  0  0  0  0
   19.8374   77.5963   18.1324 C   0  0  0  0  0  0  0  0  0  0  0  0
   19.8534   76.8501   16.8309 C   0  0  0  0  0  0  0  0  0  0  0  0
   21.0961   79.6386   18.1219 C   0  0  0  0  0  0  0  0  0  0  0  0
   19.8212   80.3806   18.3476 C   0  0  0  0  0  0  0  0  0  0  0  0
   19.0118   80.6677   17.4517 O   0  0  0  0  0  0  0  0  0  0  0  0
   19.5737   80.7601   19.7089 N   0  0  0  0  0  0  0  0  0  0  0  0
   19.9993   81.6182   20.1265 H   0  0  0  0  0  0  0  0  0  0  0  0
   18.9664   80.1724   20.2759 H   0  0  0  0  0  0  0  0  0  0  0  0
   18.9555   75.8203   13.9885 C   0  0  0  0  0  0  0  0  0  0  0  0
   17.3127   71.5834   11.4042 Cl  0  0  0  0  0  0  0  0  0  0  0  0
   18.4543   72.4262   12.4480 C   0  0  0  0  0  0  0  0  0  0  0  0
   18.3099   73.7327   12.8211 C   0  0  0  0  0  0  0  0  0  0  0  0
   19.2278   74.3993   13.6470 C   0  0  0  0  0  0  0  0  0  0  0  0
   20.3034   73.6892   14.0865 C   0  0  0  0  0  0  0  0  0  0  0  0
   20.4540   72.3624   13.7111 C   0  0  0  0  0  0  0  0  0  0  0  0
   19.5458   71.7150   12.8980 C   0  0  0  0  0  0  0  0  0  0  0  0
 27 28  1  0  0  0
 28 29  2  0  0  0
 28 33  1  0  0  0
 29 30  1  0  0  0
 30 31  2  0  0  0
 30 26  1  0  0  0
 31 32  1  0  0  0
 32 33  2  0  0  0
 26  1  1  0  0  0
  1  2  1  0  0  0
  1  5  1  0  0  0
  2  3  2  0  0  0
  2 10  1  0  0  0
  3  4  1  0  0  0
  3  6  1  0  0  0
  4  5  2  0  0  0
  5 14  1  0  0  0
 14 15  1  0  0  0
 14 19  1  0  0  0
 15 16  1  0  0  0
 16 17  1  0  0  0
 17 18  1  0  0  0
 17 20  1  0  0  0
 18 19  1  0  0  0
 20 21  1  0  0  0
 21 22  2  0  0  0
 21 23  1  0  0  0
  6  7  1  0  0  0
  6 12  1  0  0  0
  7  8  2  0  0  0
  7  9  1  0  0  0
  9 10  1  0  0  0
 10 11  2  0  0  0
 23 24  1  0  0  0
 23 25  1  0  0  0
  9 13  1  0  0  0
M  END
> <minimizedAffinity>
-9.01671

$$$$
1865


 29 32  0  0  0  0  0  0  0  0999 V2000
   21.3737   78.3517   16.4881 N   0  0  0  0  0  0  0  0  0  0  0  0
   20.5585   77.1819   16.3209 C   0  0  0  0  0  0  0  0  0  0  0  0
   20.4536   76.5183   15.2369 O   0  0  0  0  0  0  0  0  0  0  0  0
   19.9005   76.8941   17.5519 N   0  0  0  0  0  0  0  0  0  0  0  0
   19.9078   78.1337   18.2962 C   0  0  0  0  0  0  0  0  0  0  0  0
   18.7895   78.9922   17.7354 C   0  0  0  0  0  0  0  0  0  0  0  0
   19.0793   80.4165   18.1950 C   0  0  0  0  0  0  0  0  0  0  0  0
   19.3734   80.4298   19.6154 N   0  0  0  0  0  0  0  0  0  0  0  0
   19.2265   79.2231   20.3856 C   0  0  0  0  0  0  0  0  0  0  0  0
   19.7764   77.9878   19.7514 C   0  0  0  0  0  0  0  0  0  0  0  0
   19.7982   81.6331   20.2361 C   0  0  0  0  0  0  0  0  0  0  0  0
   20.0592   81.6372   21.4817 O   0  0  0  0  0  0  0  0  0  0  0  0
   21.1815   78.7467   17.8438 C   0  0  0  0  0  0  0  0  0  0  0  0
   21.9904   79.4830   18.4702 O   0  0  0  0  0  0  0  0  0  0  0  0
   19.4979   75.9874   17.8546 H   0  0  0  0  0  0  0  0  0  0  0  0
   19.9570   82.8901   19.5251 C   0  0  0  0  0  0  0  0  0  0  0  0
   20.7941   83.0330   18.4788 N   0  0  0  0  0  0  0  0  0  0  0  0
   20.8917   84.2261   17.8669 C   0  0  0  0  0  0  0  0  0  0  0  0
   20.1628   85.3253   18.2682 C   0  0  0  0  0  0  0  0  0  0  0  0
   19.3285   85.1871   19.3096 N   0  0  0  0  0  0  0  0  0  0  0  0
   19.2260   83.9816   19.9319 C   0  0  0  0  0  0  0  0  0  0  0  0
   22.2134   79.0022   15.5095 C   0  0  0  0  0  0  0  0  0  0  0  0
   26.1160   75.5442   14.9909 Cl  0  0  0  0  0  0  0  0  0  0  0  0
   25.4798   77.1096   15.4556 C   0  0  0  0  0  0  0  0  0  0  0  0
   24.1506   77.4499   15.3136 C   0  0  0  0  0  0  0  0  0  0  0  0
   23.6458   78.6774   15.6768 C   0  0  0  0  0  0  0  0  0  0  0  0
   24.4880   79.6268   16.2084 C   0  0  0  0  0  0  0  0  0  0  0  0
   25.8253   79.3032   16.3576 C   0  0  0  0  0  0  0  0  0  0  0  0
   26.3180   78.0683   15.9892 C   0  0  0  0  0  0  0  0  0  0  0  0
 23 24  1  0  0  0
 24 25  2  0  0  0
 24 29  1  0  0  0
 25 26  1  0  0  0
 26 27  2  0  0  0
 26 22  1  0  0  0
 27 28  1  0  0  0
 28 29  2  0  0  0
 22  1  1  0  0  0
  1  2  1  0  0  0
  1 13  1  0  0  0
  2  3  2  0  0  0
  2  4  1  0  0  0
  4  5  1  0  0  0
  5  6  1  0  0  0
  5 10  1  0  0  0
  5 13  1  0  0  0
  6  7  1  0  0  0
  7  8  1  0  0  0
  8  9  1  0  0  0
  8 11  1  0  0  0
  9 10  1  0  0  0
 11 12  2  0  0  0
 11 16  1  0  0  0
 16 17  2  0  0  0
 16 21  1  0  0  0
 17 18  1  0  0  0
 18 19  2  0  0  0
 19 20  1  0  0  0
 20 21  2  0  0  0
 13 14  2  0  0  0
  4 15  1  0  0  0
M  END
> <minimizedAffinity>
-10.68141

$$$$
1871


 28 31  0  0  0  0  0  0  0  0999 V2000
   22.4071   77.5049   14.8004 C   0  0  0  0  0  0  0  0  0  0  0  0
   21.1621   76.9738   15.1976 N   0  0  0  0  0  0  0  0  0  0  0  0
   20.5510   77.8046   16.1470 C   0  0  0  0  0  0  0  0  0  0  0  0
   19.5127   77.8590   16.9445 C   0  0  0  0  0  0  0  0  0  0  0  0
   19.2692   79.0153   17.8143 C   0  0  0  0  0  0  0  0  0  0  0  0
   19.9605   80.2759   17.5743 C   0  0  0  0  0  0  0  0  0  0  0  0
   21.0060   80.2440   16.4874 C   0  0  0  0  0  0  0  0  0  0  0  0
   21.4749   78.9238   16.2601 N   0  0  0  0  0  0  0  0  0  0  0  0
   22.7678   78.2752   16.0823 C   0  0  0  0  0  0  0  0  0  0  0  0
   23.8444   79.2690   15.9503 C   0  0  0  0  0  0  0  0  0  0  0  0
   23.3392   76.4972   14.7058 O   0  0  0  0  0  0  0  0  0  0  0  0
   21.4857   76.1370   15.8654 H   0  0  0  0  0  0  0  0  0  0  0  0
   24.0653   76.6243   14.0680 H   0  0  0  0  0  0  0  0  0  0  0  0
   22.5598   81.1896   10.0761 Cl  0  0  0  0  0  0  0  0  0  0  0  0
   22.4804   80.1310   11.4718 C   0  0  0  0  0  0  0  0  0  0  0  0
   21.3722   80.1029   12.3067 C   0  0  0  0  0  0  0  0  0  0  0  0
   21.3857   79.2322   13.3947 C   0  0  0  0  0  0  0  0  0  0  0  0
   22.4530   78.4142   13.6577 C   0  0  0  0  0  0  0  0  0  0  0  0
   23.5608   78.4390   12.8284 C   0  0  0  0  0  0  0  0  0  0  0  0
   23.5487   79.3010   11.7505 C   0  0  0  0  0  0  0  0  0  0  0  0
   20.4291   76.2545   14.2593 C   0  0  0  0  0  0  0  0  0  0  0  0
   20.1116   74.9437   14.5754 C   0  0  0  0  0  0  0  0  0  0  0  0
   19.4030   74.1232   13.7315 C   0  0  0  0  0  0  0  0  0  0  0  0
   18.9493   74.5629   12.4837 C   0  0  0  0  0  0  0  0  0  0  0  0
   19.2788   75.8642   12.1961 C   0  0  0  0  0  0  0  0  0  0  0  0
   19.9873   76.6782   13.0449 C   0  0  0  0  0  0  0  0  0  0  0  0
   18.2340   73.7302   11.6450 O   0  0  0  0  0  0  0  0  0  0  0  0
   17.9063   72.4316   12.0709 C   0  0  0  0  0  0  0  0  0  0  0  0
 14 15  1  0  0  0
 15 16  2  0  0  0
 15 20  1  0  0  0
 16 17  1  0  0  0
 17 18  2  0  0  0
 18 19  1  0  0  0
 18  1  1  0  0  0
 19 20  2  0  0  0
  1  2  1  0  0  0
  1  9  1  0  0  0
  1 11  1  0  0  0
  2  3  1  0  0  0
  2 21  1  0  0  0
  3  4  2  0  0  0
  3  8  1  0  0  0
  4  5  1  0  0  0
  5  6  1  0  0  0
  6  7  1  0  0  0
  7  8  1  0  0  0
  8  9  1  0  0  0
  9 10  1  0  0  0
 21 22  2  0  0  0
 21 26  1  0  0  0
 22 23  1  0  0  0
 23 24  2  0  0  0
 24 25  1  0  0  0
 24 27  1  0  0  0
 25 26  2  0  0  0
 27 28  1  0  0  0
  2 12  1  0  0  0
 11 13  1  0  0  0
M  CHG 1   2   1
M  END
> <minimizedAffinity>
-8.56005

$$$$
1893


 28 31  0  0  0  0  0  0  0  0999 V2000
   20.8252   79.8655   17.3942 N   0  0  0  0  0  0  0  0  0  0  0  0
   21.6053   79.9505   16.2912 C   0  0  0  0  0  0  0  0  0  0  0  0
   22.2234   80.9915   15.9461 O   0  0  0  0  0  0  0  0  0  0  0  0
   21.6269   78.7476   15.6053 C   0  0  0  0  0  0  0  0  0  0  0  0
   20.8542   77.9221   16.2932 C   0  0  0  0  0  0  0  0  0  0  0  0
   20.8775   76.7511   15.6220 N   0  0  0  0  0  0  0  0  0  0  0  0
   21.6597   76.8873   14.5425 N   0  0  0  0  0  0  0  0  0  0  0  0
   22.1293   78.1240   14.5245 N   0  0  0  0  0  0  0  0  0  0  0  0
   20.3631   78.6033   17.3874 C   0  0  0  0  0  0  0  0  0  0  0  0
   19.5990   78.0920   18.2355 O   0  0  0  0  0  0  0  0  0  0  0  0
   20.3692   75.8922   15.9021 H   0  0  0  0  0  0  0  0  0  0  0  0
   21.8874   76.1740   13.8178 H   0  0  0  0  0  0  0  0  0  0  0  0
   19.7457   84.1578   21.3881 Cl  0  0  0  0  0  0  0  0  0  0  0  0
   20.0593   82.9064   20.1798 C   0  0  0  0  0  0  0  0  0  0  0  0
   19.9652   83.1840   18.8322 C   0  0  0  0  0  0  0  0  0  0  0  0
   20.2222   82.1641   17.9343 C   0  0  0  0  0  0  0  0  0  0  0  0
   20.5669   80.8890   18.3310 C   0  0  0  0  0  0  0  0  0  0  0  0
   20.6515   80.6504   19.6881 C   0  0  0  0  0  0  0  0  0  0  0  0
   20.4012   81.6466   20.6276 C   0  0  0  0  0  0  0  0  0  0  0  0
   23.0154   78.7018   13.5364 C   0  0  0  0  0  0  0  0  0  0  0  0
   22.3866   78.8340   12.1987 C   0  0  0  0  0  0  0  0  0  0  0  0
   21.0326   78.9743   11.9916 C   0  0  0  0  0  0  0  0  0  0  0  0
   20.4518   79.0981   10.7452 C   0  0  0  0  0  0  0  0  0  0  0  0
   21.2602   79.0809    9.6345 C   0  0  0  0  0  0  0  0  0  0  0  0
   22.6190   78.9429    9.7947 C   0  0  0  0  0  0  0  0  0  0  0  0
   23.1755   78.8205   11.0571 C   0  0  0  0  0  0  0  0  0  0  0  0
   19.0615   79.2354   10.6464 O   0  0  0  0  0  0  0  0  0  0  0  0
   18.4487   80.5067   10.5720 C   0  0  0  0  0  0  0  0  0  0  0  0
 13 14  1  0  0  0
 14 15  2  0  0  0
 14 19  1  0  0  0
 15 16  1  0  0  0
 16 17  2  0  0  0
 17 18  1  0  0  0
 17  1  1  0  0  0
 18 19  2  0  0  0
  1  2  1  0  0  0
  1  9  1  0  0  0
  2  3  2  0  0  0
  2  4  1  0  0  0
  4  5  2  0  0  0
  4  8  1  0  0  0
  5  6  1  0  0  0
  5  9  1  0  0  0
  6  7  1  0  0  0
  7  8  1  0  0  0
  8 20  1  0  0  0
 20 21  1  0  0  0
 21 22  2  0  0  0
 21 26  1  0  0  0
 22 23  1  0  0  0
 23 24  2  0  0  0
 23 27  1  0  0  0
 24 25  1  0  0  0
 25 26  2  0  0  0
 27 28  1  0  0  0
  9 10  2  0  0  0
  6 11  1  0  0  0
  7 12  1  0  0  0
M  END
> <minimizedAffinity>
-9.99302

$$$$
1894


 26 29  0  0  0  0  0  0  0  0999 V2000
   20.0420   80.5830   18.6204 N   0  0  0  0  0  0  0  0  0  0  0  0
   20.7761   80.3087   17.5186 C   0  0  0  0  0  0  0  0  0  0  0  0
   21.3840   81.1709   16.8502 O   0  0  0  0  0  0  0  0  0  0  0  0
   20.7602   78.9531   17.2369 C   0  0  0  0  0  0  0  0  0  0  0  0
   20.0004   78.3913   18.1883 C   0  0  0  0  0  0  0  0  0  0  0  0
   19.9935   77.0764   17.9069 N   0  0  0  0  0  0  0  0  0  0  0  0
   20.7200   76.8501   16.8275 N   0  0  0  0  0  0  0  0  0  0  0  0
   21.2004   77.9983   16.4011 N   0  0  0  0  0  0  0  0  0  0  0  0
   19.5690   79.3980   19.0258 C   0  0  0  0  0  0  0  0  0  0  0  0
   18.8305   79.2247   20.0338 O   0  0  0  0  0  0  0  0  0  0  0  0
   19.5035   76.3253   18.4352 H   0  0  0  0  0  0  0  0  0  0  0  0
   20.8929   75.9053   16.3730 H   0  0  0  0  0  0  0  0  0  0  0  0
   19.1136   85.9656   21.1292 Cl  0  0  0  0  0  0  0  0  0  0  0  0
   19.3830   84.3850   20.3994 C   0  0  0  0  0  0  0  0  0  0  0  0
   19.9606   84.2644   19.1532 C   0  0  0  0  0  0  0  0  0  0  0  0
   20.1729   83.0254   18.5788 C   0  0  0  0  0  0  0  0  0  0  0  0
   19.8195   81.8575   19.2208 C   0  0  0  0  0  0  0  0  0  0  0  0
   19.2417   81.9886   20.4704 C   0  0  0  0  0  0  0  0  0  0  0  0
   19.0255   83.2230   21.0519 C   0  0  0  0  0  0  0  0  0  0  0  0
   22.0421   78.2161   15.2480 C   0  0  0  0  0  0  0  0  0  0  0  0
   23.4863   78.2552   15.5634 C   0  0  0  0  0  0  0  0  0  0  0  0
   24.2862   77.1928   15.2205 C   0  0  0  0  0  0  0  0  0  0  0  0
   25.6263   77.2484   15.5264 C   0  0  0  0  0  0  0  0  0  0  0  0
   26.1764   78.3443   16.1666 C   0  0  0  0  0  0  0  0  0  0  0  0
   25.3755   79.4094   16.5114 C   0  0  0  0  0  0  0  0  0  0  0  0
   24.0459   79.3388   16.1999 C   0  0  0  0  0  0  0  0  0  0  0  0
 13 14  1  0  0  0
 14 15  2  0  0  0
 14 19  1  0  0  0
 15 16  1  0  0  0
 16 17  2  0  0  0
 17 18  1  0  0  0
 17  1  1  0  0  0
 18 19  2  0  0  0
  1  2  1  0  0  0
  1  9  1  0  0  0
  2  3  2  0  0  0
  2  4  1  0  0  0
  4  5  2  0  0  0
  4  8  1  0  0  0
  5  6  1  0  0  0
  5  9  1  0  0  0
  6  7  1  0  0  0
  7  8  1  0  0  0
  8 20  1  0  0  0
 20 21  1  0  0  0
 21 22  2  0  0  0
 21 26  1  0  0  0
 22 23  1  0  0  0
 23 24  2  0  0  0
 24 25  1  0  0  0
 25 26  2  0  0  0
  9 10  2  0  0  0
  6 11  1  0  0  0
  7 12  1  0  0  0
M  END
> <minimizedAffinity>
-11.27433

$$$$
1895


 32 35  0  0  0  0  0  0  0  0999 V2000
   21.1795   78.9900    9.4863 N   0  0  0  0  0  0  0  0  0  0  0  0
   21.7983   78.0143   10.2965 C   0  0  0  0  0  0  0  0  0  0  0  0
   23.1754   78.5707   10.7149 C   0  0  0  0  0  0  0  0  0  0  0  0
   22.8400   79.6444   11.6148 N   0  0  0  0  0  0  0  0  0  0  0  0
   22.1535   80.7590   10.9256 C   0  0  0  0  0  0  0  0  0  0  0  0
   21.1913   80.3314    9.8952 C   0  0  0  0  0  0  0  0  0  0  0  0
   23.0704   79.7571   12.9846 C   0  0  0  0  0  0  0  0  0  0  0  0
   22.6150   80.8867   13.4910 O   0  0  0  0  0  0  0  0  0  0  0  0
   19.7510   78.4733    8.7067 S   0  0  0  0  0  0  0  0  0  0  0  0
   18.5740   79.3322    8.9521 O   0  0  0  0  0  0  0  0  0  0  0  0
   20.0177   78.4322    7.2210 O   0  0  0  0  0  0  0  0  0  0  0  0
   19.4183   76.8229    9.2598 C   0  0  0  0  0  0  0  0  0  0  0  0
   19.0922   76.2418   10.8271 S   0  0  0  0  0  0  0  0  0  0  0  0
   18.8983   74.5884   10.4715 C   0  0  0  0  0  0  0  0  0  0  0  0
   19.0968   74.5342    9.1167 C   0  0  0  0  0  0  0  0  0  0  0  0
   19.3660   75.6955    8.4946 C   0  0  0  0  0  0  0  0  0  0  0  0
   18.5300   73.2598   11.5823 Cl  0  0  0  0  0  0  0  0  0  0  0  0
   23.6904   78.9213   13.9801 C   0  0  0  0  0  0  0  0  0  0  0  0
   23.1532   78.9278   15.3066 N   0  0  0  0  0  0  0  0  0  0  0  0
   23.8537   79.3253   16.4865 C   0  0  0  0  0  0  0  0  0  0  0  0
   25.0721   79.7104   16.4888 O   0  0  0  0  0  0  0  0  0  0  0  0
   22.9716   79.2107   17.5826 N   0  0  0  0  0  0  0  0  0  0  0  0
   21.6143   79.1277   17.0659 C   0  0  0  0  0  0  0  0  0  0  0  0
   20.7240   78.2122   17.8306 C   0  0  0  0  0  0  0  0  0  0  0  0
   19.3070   78.7934   17.7761 C   0  0  0  0  0  0  0  0  0  0  0  0
   19.3145   79.9992   18.6959 C   0  0  0  0  0  0  0  0  0  0  0  0
   20.5158   80.8561   18.3798 C   0  0  0  0  0  0  0  0  0  0  0  0
   21.0822   80.5415   17.0028 C   0  0  0  0  0  0  0  0  0  0  0  0
   20.6277   76.8190   17.2532 C   0  0  0  0  0  0  0  0  0  0  0  0
   21.8268   78.5665   15.6981 C   0  0  0  0  0  0  0  0  0  0  0  0
   21.0094   77.9109   15.0236 O   0  0  0  0  0  0  0  0  0  0  0  0
   23.2204   79.1880   18.5833 H   0  0  0  0  0  0  0  0  0  0  0  0
  9 10  2  0  0  0
  9 11  2  0  0  0
  9  1  1  0  0  0
  9 12  1  0  0  0
  1  2  1  0  0  0
  1  6  1  0  0  0
  2  3  1  0  0  0
  3  4  1  0  0  0
  4  5  1  0  0  0
  4  7  1  0  0  0
  5  6  1  0  0  0
  7  8  2  0  0  0
  7 18  1  0  0  0
 18 19  1  0  0  0
 19 20  1  0  0  0
 19 30  1  0  0  0
 20 21  2  0  0  0
 20 22  1  0  0  0
 22 23  1  0  0  0
 23 24  1  0  0  0
 23 28  1  0  0  0
 23 30  1  0  0  0
 24 25  1  0  0  0
 24 29  1  0  0  0
 25 26  1  0  0  0
 26 27  1  0  0  0
 27 28  1  0  0  0
 30 31  2  0  0  0
 12 13  1  0  0  0
 12 16  2  0  0  0
 13 14  1  0  0  0
 14 15  2  0  0  0
 14 17  1  0  0  0
 15 16  1  0  0  0
 22 32  1  0  0  0
M  END
> <minimizedAffinity>
-10.02398

$$$$
1906


 33 36  0  0  0  0  0  0  0  0999 V2000
   19.4136   76.5940    8.1440 C   0  0  0  0  0  0  0  0  0  0  0  0
   20.1542   75.8594    7.2066 O   0  0  0  0  0  0  0  0  0  0  0  0
   19.5878   74.6694    6.8401 C   0  0  0  0  0  0  0  0  0  0  0  0
   18.3433   74.8128    5.9874 C   0  0  0  0  0  0  0  0  0  0  0  0
   17.6394   75.9796    6.5795 N   0  0  0  0  0  0  0  0  0  0  0  0
   17.9349   76.2158    7.9397 C   0  0  0  0  0  0  0  0  0  0  0  0
   16.7868   76.7030    5.7719 C   0  0  0  0  0  0  0  0  0  0  0  0
   16.6127   76.3603    4.5300 O   0  0  0  0  0  0  0  0  0  0  0  0
   16.0374   77.8497    6.1859 C   0  0  0  0  0  0  0  0  0  0  0  0
   16.5349   79.0859    6.2263 N   0  0  0  0  0  0  0  0  0  0  0  0
   15.8351   80.1703    6.6144 C   0  0  0  0  0  0  0  0  0  0  0  0
   14.5126   80.0227    7.0014 C   0  0  0  0  0  0  0  0  0  0  0  0
   13.9842   78.8102    6.9734 N   0  0  0  0  0  0  0  0  0  0  0  0
   14.7003   77.7428    6.5833 C   0  0  0  0  0  0  0  0  0  0  0  0
   13.7908   81.2499    7.4190 C   0  0  0  0  0  0  0  0  0  0  0  0
   19.7928   76.0420    9.4885 C   0  0  0  0  0  0  0  0  0  0  0  0
   18.9505   75.3182   10.1902 O   0  0  0  0  0  0  0  0  0  0  0  0
   17.1590   70.8102   11.7175 Cl  0  0  0  0  0  0  0  0  0  0  0  0
   17.8775   72.3957   12.0012 C   0  0  0  0  0  0  0  0  0  0  0  0
   18.1231   73.2229   10.9391 C   0  0  0  0  0  0  0  0  0  0  0  0
   18.6813   74.4608   11.1305 C   0  0  0  0  0  0  0  0  0  0  0  0
   18.9891   74.8369   12.4528 C   0  0  0  0  0  0  0  0  0  0  0  0
   18.7388   74.0042   13.4927 C   0  0  0  0  0  0  0  0  0  0  0  0
   18.1795   72.7684   13.2978 C   0  0  0  0  0  0  0  0  0  0  0  0
   19.6635   78.0146    7.9179 C   0  0  0  0  0  0  0  0  0  0  0  0
   19.5513   78.9353    9.0507 C   0  0  0  0  0  0  0  0  0  0  0  0
   18.4385   79.3207    9.4561 O   0  0  0  0  0  0  0  0  0  0  0  0
   20.7055   79.4229    9.7280 N   0  0  0  0  0  0  0  0  0  0  0  0
   22.0502   79.0280    9.3228 C   0  0  0  0  0  0  0  0  0  0  0  0
   22.7949   78.6328   10.5805 C   0  0  0  0  0  0  0  0  0  0  0  0
   22.7926   79.7156   11.4651 O   0  0  0  0  0  0  0  0  0  0  0  0
   21.4984   79.8854   11.9553 C   0  0  0  0  0  0  0  0  0  0  0  0
   20.6014   80.3348   10.8480 C   0  0  0  0  0  0  0  0  0  0  0  0
 18 19  1  0  0  0
 19 20  2  0  0  0
 19 24  1  0  0  0
 20 21  1  0  0  0
 21 22  2  0  0  0
 21 17  1  0  0  0
 22 23  1  0  0  0
 23 24  2  0  0  0
 17 16  1  0  0  0
 16  1  1  0  0  0
  1  2  1  0  0  0
  1  6  1  0  0  0
  1 25  1  0  0  0
  2  3  1  0  0  0
  3  4  1  0  0  0
  4  5  1  0  0  0
  5  6  1  0  0  0
  5  7  1  0  0  0
  7  8  2  0  0  0
  7  9  1  0  0  0
  9 10  2  0  0  0
  9 14  1  0  0  0
 10 11  1  0  0  0
 11 12  2  0  0  0
 12 13  1  0  0  0
 12 15  1  0  0  0
 13 14  2  0  0  0
 25 26  1  0  0  0
 26 27  2  0  0  0
 26 28  1  0  0  0
 28 29  1  0  0  0
 28 33  1  0  0  0
 29 30  1  0  0  0
 30 31  1  0  0  0
 31 32  1  0  0  0
 32 33  1  0  0  0
M  END
> <minimizedAffinity>
-9.63695

$$$$
1913


 29 32  0  0  0  0  0  0  0  0999 V2000
   21.7346   77.6799   16.6886 N   0  0  0  0  0  0  0  0  0  0  0  0
   21.8914   77.6816   18.1249 C   0  0  0  0  0  0  0  0  0  0  0  0
   20.7207   77.0797   18.8546 C   0  0  0  0  0  0  0  0  0  0  0  0
   19.4522   77.6047   18.2775 C   0  0  0  0  0  0  0  0  0  0  0  0
   19.3194   77.1617   16.8611 C   0  0  0  0  0  0  0  0  0  0  0  0
   20.5404   77.2604   16.0221 C   0  0  0  0  0  0  0  0  0  0  0  0
   26.6237   79.0358   16.4582 Cl  0  0  0  0  0  0  0  0  0  0  0  0
   25.0783   78.7716   15.7192 C   0  0  0  0  0  0  0  0  0  0  0  0
   24.9148   79.0030   14.4152 N   0  0  0  0  0  0  0  0  0  0  0  0
   23.7458   78.8166   13.7957 C   0  0  0  0  0  0  0  0  0  0  0  0
   23.3590   78.9704   12.5354 N   0  0  0  0  0  0  0  0  0  0  0  0
   22.0669   78.6188   12.5140 C   0  0  0  0  0  0  0  0  0  0  0  0
   21.6289   78.2464   13.7238 N   0  0  0  0  0  0  0  0  0  0  0  0
   22.6676   78.3598   14.5672 C   0  0  0  0  0  0  0  0  0  0  0  0
   22.8228   78.1186   15.9063 C   0  0  0  0  0  0  0  0  0  0  0  0
   24.0529   78.3368   16.4574 N   0  0  0  0  0  0  0  0  0  0  0  0
   20.6747   77.9187   14.0038 H   0  0  0  0  0  0  0  0  0  0  0  0
   19.2825   79.0425   18.4936 C   0  0  0  0  0  0  0  0  0  0  0  0
   19.0064   79.7673   17.5066 O   0  0  0  0  0  0  0  0  0  0  0  0
   19.4149   79.6544   19.7570 N   0  0  0  0  0  0  0  0  0  0  0  0
   19.6474   79.0419   20.5920 H   0  0  0  0  0  0  0  0  0  0  0  0
   19.2504   81.0715   19.9847 C   0  0  0  0  0  0  0  0  0  0  0  0
   20.3465   81.6806   20.8109 C   0  0  0  0  0  0  0  0  0  0  0  0
   20.5759   83.0642   20.4354 N   0  0  0  0  0  0  0  0  0  0  0  0
   19.9521   83.9925   21.3170 C   0  0  0  0  0  0  0  0  0  0  0  0
   18.7802   84.6678   20.6333 C   0  0  0  0  0  0  0  0  0  0  0  0
   19.2721   85.3943   19.5777 O   0  0  0  0  0  0  0  0  0  0  0  0
   20.0463   84.7083   18.6801 C   0  0  0  0  0  0  0  0  0  0  0  0
   20.3975   83.3089   19.0493 C   0  0  0  0  0  0  0  0  0  0  0  0
  7  8  1  0  0  0
  8  9  2  0  0  0
  8 16  1  0  0  0
  9 10  1  0  0  0
 10 11  1  0  0  0
 10 14  2  0  0  0
 11 12  2  0  0  0
 12 13  1  0  0  0
 13 14  1  0  0  0
 14 15  1  0  0  0
 15 16  2  0  0  0
 15  1  1  0  0  0
  1  2  1  0  0  0
  1  6  1  0  0  0
  2  3  1  0  0  0
  3  4  1  0  0  0
  4  5  1  0  0  0
  4 18  1  0  0  0
  5  6  1  0  0  0
 18 19  2  0  0  0
 18 20  1  0  0  0
 20 22  1  0  0  0
 22 23  1  0  0  0
 23 24  1  0  0  0
 24 25  1  0  0  0
 24 29  1  0  0  0
 25 26  1  0  0  0
 26 27  1  0  0  0
 27 28  1  0  0  0
 28 29  1  0  0  0
 13 17  1  0  0  0
 20 21  1  0  0  0
M  END
> <minimizedAffinity>
-9.74557

$$$$
1927


 36 39  0  0  0  0  0  0  0  0999 V2000
   19.2206   76.8825    8.6579 C   0  0  0  0  0  0  0  0  0  0  0  0
   22.3538   79.2597   12.0997 C   0  0  0  0  0  0  0  0  0  0  0  0
   21.1009   78.3879   12.1361 C   0  0  0  0  0  0  0  0  0  0  0  0
   20.2962   78.8615   10.9432 C   0  0  0  0  0  0  0  0  0  0  0  0
   20.9512   78.5059    9.7340 N   0  0  0  0  0  0  0  0  0  0  0  0
   22.3361   79.0208    9.5719 C   0  0  0  0  0  0  0  0  0  0  0  0
   23.1155   79.0661   10.8421 C   0  0  0  0  0  0  0  0  0  0  0  0
   20.4270   77.7217    8.7148 C   0  0  0  0  0  0  0  0  0  0  0  0
   21.1004   77.7168    7.5932 O   0  0  0  0  0  0  0  0  0  0  0  0
   21.8237   80.5888   12.0575 O   0  0  0  0  0  0  0  0  0  0  0  0
   22.4218   81.1069   11.4639 H   0  0  0  0  0  0  0  0  0  0  0  0
   25.4167   79.1123   17.3431 Cl  0  0  0  0  0  0  0  0  0  0  0  0
   24.5147   79.1214   15.8049 C   0  0  0  0  0  0  0  0  0  0  0  0
   23.6821   80.1646   15.4791 C   0  0  0  0  0  0  0  0  0  0  0  0
   22.9839   80.1727   14.2717 C   0  0  0  0  0  0  0  0  0  0  0  0
   23.0962   79.1316   13.3407 C   0  0  0  0  0  0  0  0  0  0  0  0
   23.9380   78.1067   13.7008 C   0  0  0  0  0  0  0  0  0  0  0  0
   24.6350   78.0852   14.8935 C   0  0  0  0  0  0  0  0  0  0  0  0
   17.9994   77.5078    8.3963 N   0  0  0  0  0  0  0  0  0  0  0  0
   17.3522   77.5446    7.1229 C   0  0  0  0  0  0  0  0  0  0  0  0
   17.9803   76.9755    6.1915 O   0  0  0  0  0  0  0  0  0  0  0  0
   17.4291   77.9438    9.1693 H   0  0  0  0  0  0  0  0  0  0  0  0
   16.0779   78.1870    6.9531 C   0  0  0  0  0  0  0  0  0  0  0  0
   14.9306   77.7174    6.5887 C   0  0  0  0  0  0  0  0  0  0  0  0
   14.7153   76.3453    6.2505 N   0  0  0  0  0  0  0  0  0  0  0  0
   13.4463   75.8549    5.8779 N   0  0  0  0  0  0  0  0  0  0  0  0
   12.3255   76.7077    5.8245 C   0  0  0  0  0  0  0  0  0  0  0  0
   11.2045   76.2262    5.4877 O   0  0  0  0  0  0  0  0  0  0  0  0
   12.4987   78.1074    6.1607 C   0  0  0  0  0  0  0  0  0  0  0  0
   13.7335   78.5932    6.5250 C   0  0  0  0  0  0  0  0  0  0  0  0
   13.8092   79.9165    6.8533 C   0  0  0  0  0  0  0  0  0  0  0  0
   12.6995   80.7695    6.8330 C   0  0  0  0  0  0  0  0  0  0  0  0
   11.4942   80.2383    6.4641 C   0  0  0  0  0  0  0  0  0  0  0  0
   11.3666   78.8951    6.1194 C   0  0  0  0  0  0  0  0  0  0  0  0
   15.5047   75.6561    6.2686 H   0  0  0  0  0  0  0  0  0  0  0  0
   13.3200   74.8432    5.6409 H   0  0  0  0  0  0  0  0  0  0  0  0
 12 13  1  0  0  0
 13 14  2  0  0  0
 13 18  1  0  0  0
 14 15  1  0  0  0
 15 16  2  0  0  0
 16 17  1  0  0  0
 16  2  1  0  0  0
 17 18  2  0  0  0
  2  3  1  0  0  0
  2  7  1  0  0  0
  2 10  1  0  0  0
  3  4  1  0  0  0
  4  5  1  0  0  0
  5  6  1  0  0  0
  5  8  1  0  0  0
  6  7  1  0  0  0
  8  9  2  0  0  0
  8  1  1  0  0  0
  1 19  1  0  0  0
 19 20  1  0  0  0
 20 21  2  0  0  0
 20 23  1  0  0  0
 23 24  2  0  0  0
 24 25  1  0  0  0
 24 30  1  0  0  0
 25 26  1  0  0  0
 26 27  1  0  0  0
 27 28  2  0  0  0
 27 29  1  0  0  0
 29 30  2  0  0  0
 29 34  1  0  0  0
 30 31  1  0  0  0
 31 32  2  0  0  0
 32 33  1  0  0  0
 33 34  2  0  0  0
 19 22  1  0  0  0
 25 35  1  0  0  0
 26 36  1  0  0  0
 10 11  1  0  0  0
M  END
> <minimizedAffinity>
-11.34932

$$$$
1928


 28 31  0  0  0  0  0  0  0  0999 V2000
   21.1353   77.7479   16.8602 N   0  0  0  0  0  0  0  0  0  0  0  0
   21.7496   78.7941   16.2701 C   0  0  0  0  0  0  0  0  0  0  0  0
   21.8001   78.9007   14.9035 C   0  0  0  0  0  0  0  0  0  0  0  0
   21.1751   77.8594   14.0803 C   0  0  0  0  0  0  0  0  0  0  0  0
   21.3745   78.2176   12.7934 N   0  0  0  0  0  0  0  0  0  0  0  0
   22.0463   79.3501   12.7541 N   0  0  0  0  0  0  0  0  0  0  0  0
   22.3275   79.8055   13.9838 C   0  0  0  0  0  0  0  0  0  0  0  0
   22.9498   80.8495   14.2942 O   0  0  0  0  0  0  0  0  0  0  0  0
   20.5587   76.8099   14.7283 C   0  0  0  0  0  0  0  0  0  0  0  0
   20.5743   76.8135   16.0952 C   0  0  0  0  0  0  0  0  0  0  0  0
   22.3214   79.8298   11.8775 H   0  0  0  0  0  0  0  0  0  0  0  0
   19.9249   75.7527   13.9408 C   0  0  0  0  0  0  0  0  0  0  0  0
   19.1940   76.0302   12.9798 O   0  0  0  0  0  0  0  0  0  0  0  0
   20.1230   74.4170   14.2479 O   0  0  0  0  0  0  0  0  0  0  0  0
   19.5038   73.3571   13.5584 C   0  0  0  0  0  0  0  0  0  0  0  0
   21.1128   77.6856   18.3227 C   0  0  0  0  0  0  0  0  0  0  0  0
   19.6501   80.7655   19.5673 C   0  0  0  0  0  0  0  0  0  0  0  0
   18.6572   79.8679   19.6577 N   0  0  0  0  0  0  0  0  0  0  0  0
   19.0610   78.7075   19.2352 O   0  0  0  0  0  0  0  0  0  0  0  0
   20.3131   78.8036   18.8604 C   0  0  0  0  0  0  0  0  0  0  0  0
   20.6949   80.0927   19.0642 N   0  0  0  0  0  0  0  0  0  0  0  0
   19.2774   86.5635   21.1655 Cl  0  0  0  0  0  0  0  0  0  0  0  0
   19.3895   84.8761   20.6945 C   0  0  0  0  0  0  0  0  0  0  0  0
   19.9496   84.5048   19.4856 C   0  0  0  0  0  0  0  0  0  0  0  0
   20.0283   83.1709   19.1326 C   0  0  0  0  0  0  0  0  0  0  0  0
   19.5621   82.1678   19.9497 C   0  0  0  0  0  0  0  0  0  0  0  0
   19.0014   82.5323   21.1567 C   0  0  0  0  0  0  0  0  0  0  0  0
   18.9177   83.8667   21.5214 C   0  0  0  0  0  0  0  0  0  0  0  0
 22 23  1  0  0  0
 23 24  2  0  0  0
 23 28  1  0  0  0
 24 25  1  0  0  0
 25 26  2  0  0  0
 26 27  1  0  0  0
 26 17  1  0  0  0
 27 28  2  0  0  0
 17 18  2  0  0  0
 17 21  1  0  0  0
 18 19  1  0  0  0
 19 20  1  0  0  0
 20 21  2  0  0  0
 20 16  1  0  0  0
 16  1  1  0  0  0
  1  2  1  0  0  0
  1 10  1  0  0  0
  2  3  2  0  0  0
  3  4  1  0  0  0
  3  7  1  0  0  0
  4  5  2  0  0  0
  4  9  1  0  0  0
  5  6  1  0  0  0
  6  7  1  0  0  0
  7  8  2  0  0  0
  9 10  2  0  0  0
  9 12  1  0  0  0
 12 13  2  0  0  0
 12 14  1  0  0  0
 14 15  1  0  0  0
  6 11  1  0  0  0
M  END
> <minimizedAffinity>
-9.90361

$$$$
1930


 34 37  0  0  0  0  0  0  0  0999 V2000
   21.5015   77.8746   14.2423 C   0  0  0  0  0  0  0  0  0  0  0  0
   20.5863   77.0291   14.4145 O   0  0  0  0  0  0  0  0  0  0  0  0
   21.4852   78.6934   13.0983 N   0  0  0  0  0  0  0  0  0  0  0  0
   20.4346   78.6052   12.0835 C   0  0  0  0  0  0  0  0  0  0  0  0
   21.1318   78.1304   10.8242 C   0  0  0  0  0  0  0  0  0  0  0  0
   22.2770   79.0471   10.4629 C   0  0  0  0  0  0  0  0  0  0  0  0
   22.3318   80.2380   11.4270 C   0  0  0  0  0  0  0  0  0  0  0  0
   22.5071   79.6914   12.8338 C   0  0  0  0  0  0  0  0  0  0  0  0
   23.5343   78.4146   10.6218 O   0  0  0  0  0  0  0  0  0  0  0  0
   22.2362   79.5376    9.0473 C   0  0  0  0  0  0  0  0  0  0  0  0
   24.1929   79.0159   10.1955 H   0  0  0  0  0  0  0  0  0  0  0  0
   20.2590   77.8185    9.7480 N   0  0  0  0  0  0  0  0  0  0  0  0
   20.3502   76.6351    9.0728 C   0  0  0  0  0  0  0  0  0  0  0  0
   19.5045   76.3310    8.0272 C   0  0  0  0  0  0  0  0  0  0  0  0
   18.5404   77.2387    7.6485 C   0  0  0  0  0  0  0  0  0  0  0  0
   17.7374   76.9948    6.6848 O   0  0  0  0  0  0  0  0  0  0  0  0
   18.4572   78.4016    8.3177 N   0  0  0  0  0  0  0  0  0  0  0  0
   19.3166   78.6581    9.3460 C   0  0  0  0  0  0  0  0  0  0  0  0
   19.1916   79.7567    9.9319 O   0  0  0  0  0  0  0  0  0  0  0  0
   19.5763   75.0547    7.2732 C   0  0  0  0  0  0  0  0  0  0  0  0
   17.7325   79.0878    8.0364 H   0  0  0  0  0  0  0  0  0  0  0  0
   22.5779   77.9823   15.2567 C   0  0  0  0  0  0  0  0  0  0  0  0
   22.1278   77.6570   16.6435 C   0  0  0  0  0  0  0  0  0  0  0  0
   19.3777   84.3187   19.4021 Cl  0  0  0  0  0  0  0  0  0  0  0  0
   19.7733   82.6221   19.1738 C   0  0  0  0  0  0  0  0  0  0  0  0
   20.5197   82.1654   18.1175 C   0  0  0  0  0  0  0  0  0  0  0  0
   20.8273   80.8247   17.9448 C   0  0  0  0  0  0  0  0  0  0  0  0
   21.5131   80.1051   17.0410 N   0  0  0  0  0  0  0  0  0  0  0  0
   21.5023   78.7985   17.3557 C   0  0  0  0  0  0  0  0  0  0  0  0
   20.7742   78.7186   18.5068 N   0  0  0  0  0  0  0  0  0  0  0  0
   20.3545   79.9320   18.8839 C   0  0  0  0  0  0  0  0  0  0  0  0
   19.6009   80.3485   19.9610 C   0  0  0  0  0  0  0  0  0  0  0  0
   19.3158   81.7031   20.0944 C   0  0  0  0  0  0  0  0  0  0  0  0
   20.5289   77.4442   19.1793 C   0  0  0  0  0  0  0  0  0  0  0  0
 24 25  1  0  0  0
 25 26  2  0  0  0
 25 33  1  0  0  0
 26 27  1  0  0  0
 27 28  1  0  0  0
 27 31  2  0  0  0
 28 29  2  0  0  0
 29 30  1  0  0  0
 29 23  1  0  0  0
 30 31  1  0  0  0
 30 34  1  0  0  0
 31 32  1  0  0  0
 32 33  2  0  0  0
 23 22  1  0  0  0
 22  1  1  0  0  0
  1  2  2  0  0  0
  1  3  1  0  0  0
  3  4  1  0  0  0
  3  8  1  0  0  0
  4  5  1  0  0  0
  5  6  1  0  0  0
  5 12  1  0  0  0
  6  7  1  0  0  0
  6  9  1  0  0  0
  6 10  1  0  0  0
  7  8  1  0  0  0
 12 13  1  0  0  0
 12 18  1  0  0  0
 13 14  2  0  0  0
 14 15  1  0  0  0
 14 20  1  0  0  0
 15 16  2  0  0  0
 15 17  1  0  0  0
 17 18  1  0  0  0
 18 19  2  0  0  0
  9 11  1  0  0  0
 17 21  1  0  0  0
M  END
> <minimizedAffinity>
-10.48189

$$$$
1936


 25 28  0  0  0  0  0  0  0  0999 V2000
   21.3308   77.1116   14.4529 N   0  0  0  0  0  0  0  0  0  0  0  0
   21.8485   78.3895   14.7382 C   0  0  0  0  0  0  0  0  0  0  0  0
   21.2256   79.0969   15.5483 O   0  0  0  0  0  0  0  0  0  0  0  0
   21.8393   76.4995   13.7729 H   0  0  0  0  0  0  0  0  0  0  0  0
   23.0811   78.9098   14.1215 C   0  0  0  0  0  0  0  0  0  0  0  0
   23.1277   78.8997   12.6435 C   0  0  0  0  0  0  0  0  0  0  0  0
   22.8812   80.2126   13.2751 C   0  0  0  0  0  0  0  0  0  0  0  0
   24.2880   78.9737   14.8902 N   0  0  0  0  0  0  0  0  0  0  0  0
   25.0589   77.7952   14.9478 C   0  0  0  0  0  0  0  0  0  0  0  0
   24.7145   77.0791   16.2482 C   0  0  0  0  0  0  0  0  0  0  0  0
   25.1866   77.7974   17.3210 O   0  0  0  0  0  0  0  0  0  0  0  0
   25.2311   79.1568   17.1357 C   0  0  0  0  0  0  0  0  0  0  0  0
   24.2143   79.6434   16.1232 C   0  0  0  0  0  0  0  0  0  0  0  0
   20.1150   76.6032   15.0610 C   0  0  0  0  0  0  0  0  0  0  0  0
   16.5817   71.0985   10.9367 Cl  0  0  0  0  0  0  0  0  0  0  0  0
   17.7485   71.9421   11.9528 C   0  0  0  0  0  0  0  0  0  0  0  0
   17.5806   73.2658   12.3228 C   0  0  0  0  0  0  0  0  0  0  0  0
   18.4682   73.9619   13.1142 C   0  0  0  0  0  0  0  0  0  0  0  0
   18.5474   75.2103   13.6076 N   0  0  0  0  0  0  0  0  0  0  0  0
   19.6648   75.3613   14.3432 C   0  0  0  0  0  0  0  0  0  0  0  0
   20.2894   74.1735   14.2997 N   0  0  0  0  0  0  0  0  0  0  0  0
   19.6023   73.2785   13.5627 C   0  0  0  0  0  0  0  0  0  0  0  0
   19.7819   71.9633   13.2026 C   0  0  0  0  0  0  0  0  0  0  0  0
   18.8866   71.2870   12.4138 C   0  0  0  0  0  0  0  0  0  0  0  0
   21.1951   73.9715   14.7806 H   0  0  0  0  0  0  0  0  0  0  0  0
 15 16  1  0  0  0
 16 17  2  0  0  0
 16 24  1  0  0  0
 17 18  1  0  0  0
 18 19  1  0  0  0
 18 22  2  0  0  0
 19 20  2  0  0  0
 20 21  1  0  0  0
 20 14  1  0  0  0
 21 22  1  0  0  0
 22 23  1  0  0  0
 23 24  2  0  0  0
 14  1  1  0  0  0
  1  2  1  0  0  0
  2  3  2  0  0  0
  2  5  1  0  0  0
  5  6  1  0  0  0
  5  7  1  0  0  0
  5  8  1  0  0  0
  6  7  1  0  0  0
  8  9  1  0  0  0
  8 13  1  0  0  0
  9 10  1  0  0  0
 10 11  1  0  0  0
 11 12  1  0  0  0
 12 13  1  0  0  0
 21 25  1  0  0  0
  1  4  1  0  0  0
M  END
> <minimizedAffinity>
-9.33039

$$$$
1937


 31 34  0  0  0  0  0  0  0  0999 V2000
   20.3662   78.0351   18.5352 N   0  0  0  0  0  0  0  0  0  0  0  0
   20.5440   76.7691   17.9924 C   0  0  0  0  0  0  0  0  0  0  0  0
   21.1741   76.9642   16.5483 C   0  0  0  0  0  0  0  0  0  0  0  0
   21.9050   78.1884   16.7413 N   0  0  0  0  0  0  0  0  0  0  0  0
   21.0010   79.3682   16.6101 C   0  0  0  0  0  0  0  0  0  0  0  0
   19.8438   78.9822   17.4879 C   0  0  0  0  0  0  0  0  0  0  0  0
   23.2514   78.2852   16.9277 C   0  0  0  0  0  0  0  0  0  0  0  0
   23.6925   79.3204   17.5348 O   0  0  0  0  0  0  0  0  0  0  0  0
   24.3136   77.3282   16.4845 C   0  0  0  0  0  0  0  0  0  0  0  0
   23.9857   77.0607   15.0816 O   0  0  0  0  0  0  0  0  0  0  0  0
   23.4815   78.2395   14.4593 C   0  0  0  0  0  0  0  0  0  0  0  0
   24.0091   79.4379   14.8618 C   0  0  0  0  0  0  0  0  0  0  0  0
   23.5754   80.6421   14.3180 C   0  0  0  0  0  0  0  0  0  0  0  0
   22.5835   80.5591   13.3477 C   0  0  0  0  0  0  0  0  0  0  0  0
   22.0384   79.3706   12.9143 C   0  0  0  0  0  0  0  0  0  0  0  0
   22.4981   78.1966   13.4773 C   0  0  0  0  0  0  0  0  0  0  0  0
   25.0072   79.4494   15.8425 O   0  0  0  0  0  0  0  0  0  0  0  0
   25.5803   78.2144   16.3410 C   0  0  0  0  0  0  0  0  0  0  0  0
   19.5874   78.2813   19.7251 C   0  0  0  0  0  0  0  0  0  0  0  0
   20.6136   80.5426   20.0500 N   0  0  0  0  0  0  0  0  0  0  0  0
   19.4465   79.8019   19.8521 C   0  0  0  0  0  0  0  0  0  0  0  0
   18.3581   80.3078   19.7653 O   0  0  0  0  0  0  0  0  0  0  0  0
   21.4720   79.9545   20.3456 H   0  0  0  0  0  0  0  0  0  0  0  0
   20.7580   81.9528   20.0072 C   0  0  0  0  0  0  0  0  0  0  0  0
   18.6168   83.9619   19.9078 Cl  0  0  0  0  0  0  0  0  0  0  0  0
   19.4007   83.4778   21.3925 C   0  0  0  0  0  0  0  0  0  0  0  0
   20.4802   82.6056   21.3134 C   0  0  0  0  0  0  0  0  0  0  0  0
   21.1005   82.2931   22.4941 C   0  0  0  0  0  0  0  0  0  0  0  0
   20.6565   82.8168   23.7025 C   0  0  0  0  0  0  0  0  0  0  0  0
   19.5620   83.7019   23.7864 C   0  0  0  0  0  0  0  0  0  0  0  0
   18.9781   83.9991   22.5715 C   0  0  0  0  0  0  0  0  0  0  0  0
 25 26  1  0  0  0
 26 27  2  0  0  0
 26 31  1  0  0  0
 27 28  1  0  0  0
 27 24  1  0  0  0
 28 29  2  0  0  0
 29 30  1  0  0  0
 30 31  2  0  0  0
 24 20  1  0  0  0
 20 21  1  0  0  0
 21 22  2  0  0  0
 21 19  1  0  0  0
 19  1  1  0  0  0
  1  2  1  0  0  0
  1  6  1  0  0  0
  2  3  1  0  0  0
  3  4  1  0  0  0
  4  5  1  0  0  0
  4  7  1  0  0  0
  5  6  1  0  0  0
  7  8  2  0  0  0
  7  9  1  0  0  0
  9 10  1  0  0  0
  9 18  1  0  0  0
 10 11  1  0  0  0
 11 12  2  0  0  0
 11 16  1  0  0  0
 12 13  1  0  0  0
 12 17  1  0  0  0
 13 14  2  0  0  0
 14 15  1  0  0  0
 15 16  2  0  0  0
 17 18  1  0  0  0
 20 23  1  0  0  0
M  END
> <minimizedAffinity>
-10.47718

$$$$
1939


 28 31  0  0  0  0  0  0  0  0999 V2000
   22.0284   77.9095   13.8053 N   0  0  0  0  0  0  0  0  0  0  0  0
   21.4334   78.1198   12.5921 C   0  0  0  0  0  0  0  0  0  0  0  0
   22.1958   78.9706   11.8401 C   0  0  0  0  0  0  0  0  0  0  0  0
   23.2340   79.2565   12.6145 N   0  0  0  0  0  0  0  0  0  0  0  0
   23.1575   78.6192   13.8275 C   0  0  0  0  0  0  0  0  0  0  0  0
   21.8253   79.3452   10.6019 N   0  0  0  0  0  0  0  0  0  0  0  0
   20.6652   78.8739   10.0742 C   0  0  0  0  0  0  0  0  0  0  0  0
   20.3615   79.2490    8.9195 O   0  0  0  0  0  0  0  0  0  0  0  0
   19.8819   78.0357   10.7742 N   0  0  0  0  0  0  0  0  0  0  0  0
   20.2610   77.6696   12.0077 C   0  0  0  0  0  0  0  0  0  0  0  0
   19.4974   76.8898   12.6187 O   0  0  0  0  0  0  0  0  0  0  0  0
   22.6953   80.2513    9.8730 C   0  0  0  0  0  0  0  0  0  0  0  0
   19.0035   77.7035   10.3242 H   0  0  0  0  0  0  0  0  0  0  0  0
   24.1406   78.7748   14.8293 N   0  0  0  0  0  0  0  0  0  0  0  0
   24.0125   79.9093   15.7341 C   0  0  0  0  0  0  0  0  0  0  0  0
   24.5145   79.3517   17.0785 C   0  0  0  0  0  0  0  0  0  0  0  0
   24.1966   77.9488   17.2246 N   0  0  0  0  0  0  0  0  0  0  0  0
   24.8964   77.0877   16.2956 C   0  0  0  0  0  0  0  0  0  0  0  0
   25.2665   77.9608   15.1055 C   0  0  0  0  0  0  0  0  0  0  0  0
   24.4842   77.6767   18.1795 H   0  0  0  0  0  0  0  0  0  0  0  0
   21.4549   77.0578   14.8136 C   0  0  0  0  0  0  0  0  0  0  0  0
   18.9902   79.6265   19.6759 Cl  0  0  0  0  0  0  0  0  0  0  0  0
   19.6838   78.8536   18.2673 C   0  0  0  0  0  0  0  0  0  0  0  0
   20.2701   79.6334   17.3158 C   0  0  0  0  0  0  0  0  0  0  0  0
   20.8358   79.0539   16.1759 C   0  0  0  0  0  0  0  0  0  0  0  0
   20.8320   77.7153   15.9596 C   0  0  0  0  0  0  0  0  0  0  0  0
   20.2213   76.9416   16.9585 C   0  0  0  0  0  0  0  0  0  0  0  0
   19.6584   77.4898   18.0871 C   0  0  0  0  0  0  0  0  0  0  0  0
 22 23  1  0  0  0
 23 24  2  0  0  0
 23 28  1  0  0  0
 24 25  1  0  0  0
 25 26  2  0  0  0
 26 27  1  0  0  0
 26 21  1  0  0  0
 27 28  2  0  0  0
 21  1  1  0  0  0
  1  2  1  0  0  0
  1  5  1  0  0  0
  2  3  2  0  0  0
  2 10  1  0  0  0
  3  4  1  0  0  0
  3  6  1  0  0  0
  4  5  2  0  0  0
  5 14  1  0  0  0
 14 15  1  0  0  0
 14 19  1  0  0  0
 15 16  1  0  0  0
 16 17  1  0  0  0
 17 18  1  0  0  0
 18 19  1  0  0  0
  6  7  1  0  0  0
  6 12  1  0  0  0
  7  8  2  0  0  0
  7  9  1  0  0  0
  9 10  1  0  0  0
 10 11  2  0  0  0
 17 20  1  0  0  0
  9 13  1  0  0  0
M  END
> <minimizedAffinity>
-8.69227

$$$$
1940


 30 33  0  0  0  0  0  0  0  0999 V2000
   20.6019   78.9811   16.8520 C   0  0  0  0  0  0  0  0  0  0  0  0
   20.3017   78.7236   18.2662 N   0  0  0  0  0  0  0  0  0  0  0  0
   21.1240   77.6307   18.6325 C   0  0  0  0  0  0  0  0  0  0  0  0
   20.8811   76.7743   19.5155 O   0  0  0  0  0  0  0  0  0  0  0  0
   22.3235   77.6906   17.7761 C   0  0  0  0  0  0  0  0  0  0  0  0
   23.3031   76.9111   17.7712 O   0  0  0  0  0  0  0  0  0  0  0  0
   22.1144   78.8588   16.9320 C   0  0  0  0  0  0  0  0  0  0  0  0
   23.0148   79.6080   16.3972 C   0  0  0  0  0  0  0  0  0  0  0  0
   22.6648   80.7097   15.6185 O   0  0  0  0  0  0  0  0  0  0  0  0
   18.8929   74.3807   13.3465 Cl  0  0  0  0  0  0  0  0  0  0  0  0
   19.3518   75.7006   14.3930 C   0  0  0  0  0  0  0  0  0  0  0  0
   18.6260   76.0444   15.5131 C   0  0  0  0  0  0  0  0  0  0  0  0
   19.0453   77.1021   16.2963 C   0  0  0  0  0  0  0  0  0  0  0  0
   20.1667   77.8390   16.0102 C   0  0  0  0  0  0  0  0  0  0  0  0
   20.8891   77.4771   14.8728 C   0  0  0  0  0  0  0  0  0  0  0  0
   20.4764   76.4234   14.0874 C   0  0  0  0  0  0  0  0  0  0  0  0
   24.4334   79.3235   16.5891 C   0  0  0  0  0  0  0  0  0  0  0  0
   25.1994   79.4155   17.6173 O   0  0  0  0  0  0  0  0  0  0  0  0
   26.4158   79.0516   17.3281 C   0  0  0  0  0  0  0  0  0  0  0  0
   26.4767   78.6860   16.0077 C   0  0  0  0  0  0  0  0  0  0  0  0
   25.2107   78.8565   15.5208 C   0  0  0  0  0  0  0  0  0  0  0  0
   19.3453   79.4511   19.0883 C   0  0  0  0  0  0  0  0  0  0  0  0
   19.3037   80.9247   18.8259 C   0  0  0  0  0  0  0  0  0  0  0  0
   20.4602   81.6630   19.2018 N   0  0  0  0  0  0  0  0  0  0  0  0
   20.5928   82.9750   18.6549 C   0  0  0  0  0  0  0  0  0  0  0  0
   19.5098   83.9317   19.0990 C   0  0  0  0  0  0  0  0  0  0  0  0
   19.4675   84.0225   20.4861 O   0  0  0  0  0  0  0  0  0  0  0  0
   19.4054   82.7717   21.0915 C   0  0  0  0  0  0  0  0  0  0  0  0
   20.5181   81.8495   20.6663 C   0  0  0  0  0  0  0  0  0  0  0  0
   21.3035   81.1162   18.9204 H   0  0  0  0  0  0  0  0  0  0  0  0
 10 11  1  0  0  0
 11 12  2  0  0  0
 11 16  1  0  0  0
 12 13  1  0  0  0
 13 14  2  0  0  0
 14 15  1  0  0  0
 14  1  1  0  0  0
 15 16  2  0  0  0
  1  2  1  0  0  0
  1  7  1  0  0  0
  2  3  1  0  0  0
  2 22  1  0  0  0
  3  4  2  0  0  0
  3  5  1  0  0  0
  5  6  2  0  0  0
  5  7  1  0  0  0
  7  8  2  0  0  0
  8  9  1  0  0  0
  8 17  1  0  0  0
 17 18  1  0  0  0
 17 21  2  0  0  0
 18 19  1  0  0  0
 19 20  2  0  0  0
 20 21  1  0  0  0
 22 23  1  0  0  0
 23 24  1  0  0  0
 24 25  1  0  0  0
 24 29  1  0  0  0
 25 26  1  0  0  0
 26 27  1  0  0  0
 27 28  1  0  0  0
 28 29  1  0  0  0
 24 30  1  0  0  0
M  CHG 1   9  -1
M  CHG 1  24   1
M  END
> <minimizedAffinity>
-8.66345

$$$$
1941


 22 25  0  0  0  0  0  0  0  0999 V2000
   21.9138   78.8009   12.7185 N   0  0  0  0  0  0  0  0  0  0  0  0
   21.8316   77.8568   13.7961 C   0  0  0  0  0  0  0  0  0  0  0  0
   20.8011   77.1183   13.9682 O   0  0  0  0  0  0  0  0  0  0  0  0
   23.0692   77.9101   14.5909 C   0  0  0  0  0  0  0  0  0  0  0  0
   23.6444   79.2589   14.2317 C   0  0  0  0  0  0  0  0  0  0  0  0
   23.6767   80.1257   15.4718 C   0  0  0  0  0  0  0  0  0  0  0  0
   24.7171   79.4752   16.3955 C   0  0  0  0  0  0  0  0  0  0  0  0
   24.1489   78.1300   16.7449 C   0  0  0  0  0  0  0  0  0  0  0  0
   24.7105   77.4160   17.5312 O   0  0  0  0  0  0  0  0  0  0  0  0
   22.8652   77.7511   16.0586 C   0  0  0  0  0  0  0  0  0  0  0  0
   21.8208   78.7524   16.5649 C   0  0  0  0  0  0  0  0  0  0  0  0
   22.3636   80.1084   16.2046 C   0  0  0  0  0  0  0  0  0  0  0  0
   21.7540   81.0979   16.5041 O   0  0  0  0  0  0  0  0  0  0  0  0
   22.8333   79.7981   13.1414 C   0  0  0  0  0  0  0  0  0  0  0  0
   22.9330   80.9489   12.6593 O   0  0  0  0  0  0  0  0  0  0  0  0
   19.1443   78.5854    7.3971 Cl  0  0  0  0  0  0  0  0  0  0  0  0
   19.9481   78.6533    8.9611 C   0  0  0  0  0  0  0  0  0  0  0  0
   21.2418   78.2210    9.1189 C   0  0  0  0  0  0  0  0  0  0  0  0
   21.8634   78.2773   10.3457 C   0  0  0  0  0  0  0  0  0  0  0  0
   21.2282   78.7653   11.4724 C   0  0  0  0  0  0  0  0  0  0  0  0
   19.9317   79.1947   11.2941 C   0  0  0  0  0  0  0  0  0  0  0  0
   19.2922   79.1468   10.0769 C   0  0  0  0  0  0  0  0  0  0  0  0
 16 17  1  0  0  0
 17 18  2  0  0  0
 17 22  1  0  0  0
 18 19  1  0  0  0
 19 20  2  0  0  0
 20 21  1  0  0  0
 20  1  1  0  0  0
 21 22  2  0  0  0
  1  2  1  0  0  0
  1 14  1  0  0  0
  2  3  2  0  0  0
  2  4  1  0  0  0
  4  5  1  0  0  0
  4 10  1  0  0  0
  5  6  1  0  0  0
  5 14  1  0  0  0
  6  7  1  0  0  0
  6 12  1  0  0  0
  7  8  1  0  0  0
  8  9  2  0  0  0
  8 10  1  0  0  0
 10 11  1  0  0  0
 11 12  1  0  0  0
 12 13  2  0  0  0
 14 15  2  0  0  0
M  END
> <minimizedAffinity>
-9.14848

$$$$
1943


 34 38  0  0  0  0  0  0  0  0999 V2000
   20.5157   80.7733   18.3773 N   0  0  0  0  0  0  0  0  0  0  0  0
   20.0488   79.4535   18.0220 C   0  0  0  0  0  0  0  0  0  0  0  0
   19.3600   78.7131   18.7299 O   0  0  0  0  0  0  0  0  0  0  0  0
   20.5175   79.1143   16.6719 C   0  0  0  0  0  0  0  0  0  0  0  0
   21.1291   77.7422   16.5179 C   0  0  0  0  0  0  0  0  0  0  0  0
   22.5524   77.8686   16.7202 N   0  0  0  0  0  0  0  0  0  0  0  0
   22.7653   79.1809   17.2976 C   0  0  0  0  0  0  0  0  0  0  0  0
   21.7350   80.0001   16.5468 C   0  0  0  0  0  0  0  0  0  0  0  0
   21.3089   81.2162   17.2636 C   0  0  0  0  0  0  0  0  0  0  0  0
   21.6094   82.3614   16.9170 O   0  0  0  0  0  0  0  0  0  0  0  0
   20.8057   77.3328   15.1073 C   0  0  0  0  0  0  0  0  0  0  0  0
   19.8934   76.3179   15.1711 C   0  0  0  0  0  0  0  0  0  0  0  0
   19.3382   75.7498   14.0137 C   0  0  0  0  0  0  0  0  0  0  0  0
   19.7118   76.2109   12.7685 C   0  0  0  0  0  0  0  0  0  0  0  0
   20.6283   77.2259   12.7034 C   0  0  0  0  0  0  0  0  0  0  0  0
   21.1635   77.7744   13.8502 C   0  0  0  0  0  0  0  0  0  0  0  0
   19.6825   75.9064   16.5120 N   0  0  0  0  0  0  0  0  0  0  0  0
   20.5193   76.7091   17.3306 C   0  0  0  0  0  0  0  0  0  0  0  0
   20.6746   76.5122   18.5542 O   0  0  0  0  0  0  0  0  0  0  0  0
   22.8495   77.1072   17.3754 H   0  0  0  0  0  0  0  0  0  0  0  0
   19.0213   75.1386   16.8428 H   0  0  0  0  0  0  0  0  0  0  0  0
   19.4172   83.9745   23.2921 Cl  0  0  0  0  0  0  0  0  0  0  0  0
   19.7319   83.0293   21.8477 C   0  0  0  0  0  0  0  0  0  0  0  0
   20.7833   82.1454   21.8255 C   0  0  0  0  0  0  0  0  0  0  0  0
   21.0277   81.4081   20.6727 C   0  0  0  0  0  0  0  0  0  0  0  0
   20.2687   81.5119   19.5394 C   0  0  0  0  0  0  0  0  0  0  0  0
   19.2241   82.4023   19.5918 C   0  0  0  0  0  0  0  0  0  0  0  0
   18.9548   83.1575   20.7378 C   0  0  0  0  0  0  0  0  0  0  0  0
   24.1591   79.6953   17.0495 C   0  0  0  0  0  0  0  0  0  0  0  0
   24.9182   78.9235   16.0703 C   0  0  0  0  0  0  0  0  0  0  0  0
   25.8635   78.1968   16.4311 O   0  0  0  0  0  0  0  0  0  0  0  0
   24.5831   78.9972   14.6983 N   0  0  0  0  0  0  0  0  0  0  0  0
   23.8431   79.6260   14.3026 H   0  0  0  0  0  0  0  0  0  0  0  0
   25.0666   78.4116   13.9564 H   0  0  0  0  0  0  0  0  0  0  0  0
 22 23  1  0  0  0
 23 24  2  0  0  0
 23 28  1  0  0  0
 24 25  1  0  0  0
 25 26  2  0  0  0
 26 27  1  0  0  0
 26  1  1  0  0  0
 27 28  2  0  0  0
  1  2  1  0  0  0
  1  9  1  0  0  0
  2  3  2  0  0  0
  2  4  1  0  0  0
  4  5  1  0  0  0
  4  8  1  0  0  0
  5  6  1  0  0  0
  5 11  1  0  0  0
  5 18  1  0  0  0
  6  7  1  0  0  0
  7  8  1  0  0  0
  7 29  1  0  0  0
  8  9  1  0  0  0
  9 10  2  0  0  0
 29 30  1  0  0  0
 30 31  2  0  0  0
 30 32  1  0  0  0
 11 12  1  0  0  0
 11 16  2  0  0  0
 12 13  2  0  0  0
 12 17  1  0  0  0
 13 14  1  0  0  0
 14 15  2  0  0  0
 15 16  1  0  0  0
 17 18  1  0  0  0
 18 19  2  0  0  0
  6 20  1  0  0  0
 32 33  1  0  0  0
 32 34  1  0  0  0
 17 21  1  0  0  0
M  END
> <minimizedAffinity>
-9.71071

$$$$
1945


 24 27  0  0  0  0  0  0  0  0999 V2000
   22.2943   80.8973    9.3245 Cl  0  0  0  0  0  0  0  0  0  0  0  0
   21.4978   79.5122   10.0443 C   0  0  0  0  0  0  0  0  0  0  0  0
   21.5652   79.2569   11.3947 C   0  0  0  0  0  0  0  0  0  0  0  0
   20.9259   78.1480   11.9558 C   0  0  0  0  0  0  0  0  0  0  0  0
   20.2154   77.3051   11.1141 C   0  0  0  0  0  0  0  0  0  0  0  0
   20.1386   77.5472    9.7633 C   0  0  0  0  0  0  0  0  0  0  0  0
   20.7719   78.6380    9.2248 C   0  0  0  0  0  0  0  0  0  0  0  0
   19.5240   76.1240   11.6610 C   0  0  0  0  0  0  0  0  0  0  0  0
   18.8104   75.1988   11.1158 N   0  0  0  0  0  0  0  0  0  0  0  0
   18.3353   74.2351   12.0704 C   0  0  0  0  0  0  0  0  0  0  0  0
   18.8836   74.7130   13.3794 C   0  0  0  0  0  0  0  0  0  0  0  0
   19.6216   75.9042   13.0546 N   0  0  0  0  0  0  0  0  0  0  0  0
   20.3576   76.7872   13.8914 C   0  0  0  0  0  0  0  0  0  0  0  0
   20.4560   76.6095   15.1385 O   0  0  0  0  0  0  0  0  0  0  0  0
   21.0335   77.9413   13.3596 N   0  0  0  0  0  0  0  0  0  0  0  0
   21.7812   78.8321   14.2361 C   0  0  0  0  0  0  0  0  0  0  0  0
   23.1342   78.2980   14.5129 C   0  0  0  0  0  0  0  0  0  0  0  0
   24.0516   78.5567   13.6961 O   0  0  0  0  0  0  0  0  0  0  0  0
   23.4391   77.5141   15.6513 N   0  0  0  0  0  0  0  0  0  0  0  0
   22.6685   77.3094   16.3190 H   0  0  0  0  0  0  0  0  0  0  0  0
   24.7670   77.0062   15.8979 C   0  0  0  0  0  0  0  0  0  0  0  0
   25.4199   77.7859   17.0082 C   0  0  0  0  0  0  0  0  0  0  0  0
   25.1294   79.2380   17.1512 C   0  0  0  0  0  0  0  0  0  0  0  0
   26.4409   78.8106   16.6117 C   0  0  0  0  0  0  0  0  0  0  0  0
  1  2  1  0  0  0
  2  3  2  0  0  0
  2  7  1  0  0  0
  3  4  1  0  0  0
  4  5  2  0  0  0
  4 15  1  0  0  0
  5  6  1  0  0  0
  5  8  1  0  0  0
  6  7  2  0  0  0
  8  9  2  0  0  0
  8 12  1  0  0  0
  9 10  1  0  0  0
 10 11  1  0  0  0
 11 12  1  0  0  0
 12 13  1  0  0  0
 13 14  2  0  0  0
 13 15  1  0  0  0
 15 16  1  0  0  0
 16 17  1  0  0  0
 17 18  2  0  0  0
 17 19  1  0  0  0
 19 21  1  0  0  0
 21 22  1  0  0  0
 22 23  1  0  0  0
 22 24  1  0  0  0
 23 24  1  0  0  0
 19 20  1  0  0  0
M  END
> <minimizedAffinity>
-8.66930

$$$$
1956


 35 38  0  0  0  0  0  0  0  0999 V2000
   20.5427   78.0531   12.0722 C   0  0  0  0  0  0  0  0  0  0  0  0
   20.8921   77.6677   13.2882 C   0  0  0  0  0  0  0  0  0  0  0  0
   19.9807   77.0030   14.2890 C   0  0  0  0  0  0  0  0  0  0  0  0
   20.6779   77.0624   15.5411 N   0  0  0  0  0  0  0  0  0  0  0  0
   22.0291   77.4531   15.3452 C   0  0  0  0  0  0  0  0  0  0  0  0
   22.9314   77.4727   16.1950 O   0  0  0  0  0  0  0  0  0  0  0  0
   22.1614   77.8372   13.9205 C   0  0  0  0  0  0  0  0  0  0  0  0
   23.2248   78.2418   13.3942 O   0  0  0  0  0  0  0  0  0  0  0  0
   19.1956   77.8153   11.7095 O   0  0  0  0  0  0  0  0  0  0  0  0
   24.2202   80.8192    8.1797 Cl  0  0  0  0  0  0  0  0  0  0  0  0
   23.1533   80.0416    9.3266 C   0  0  0  0  0  0  0  0  0  0  0  0
   22.3340   80.7417   10.1795 C   0  0  0  0  0  0  0  0  0  0  0  0
   21.5109   80.0794   11.0663 C   0  0  0  0  0  0  0  0  0  0  0  0
   21.4624   78.6810   11.1499 C   0  0  0  0  0  0  0  0  0  0  0  0
   22.2909   78.0076   10.2838 C   0  0  0  0  0  0  0  0  0  0  0  0
   23.1285   78.6773    9.3818 C   0  0  0  0  0  0  0  0  0  0  0  0
   19.7525   75.6175   13.7957 C   0  0  0  0  0  0  0  0  0  0  0  0
   20.4053   74.5689   14.3770 C   0  0  0  0  0  0  0  0  0  0  0  0
   20.1800   73.2995   13.9264 C   0  0  0  0  0  0  0  0  0  0  0  0
   19.3062   73.0402   12.8929 C   0  0  0  0  0  0  0  0  0  0  0  0
   18.6445   74.1009   12.3025 C   0  0  0  0  0  0  0  0  0  0  0  0
   18.8765   75.3880   12.7644 C   0  0  0  0  0  0  0  0  0  0  0  0
   19.0827   71.7442   12.4395 O   0  0  0  0  0  0  0  0  0  0  0  0
   17.8089   71.1427   12.7127 C   0  0  0  0  0  0  0  0  0  0  0  0
   16.9805   71.1472   11.4304 C   0  0  0  0  0  0  0  0  0  0  0  0
   16.1725   69.8573   11.4205 C   0  0  0  0  0  0  0  0  0  0  0  0
   20.0889   76.7786   16.8457 C   0  0  0  0  0  0  0  0  0  0  0  0
   19.2183   77.9135   17.2624 C   0  0  0  0  0  0  0  0  0  0  0  0
   19.9793   78.9333   18.0028 N   0  0  0  0  0  0  0  0  0  0  0  0
   19.3532   79.1132   19.2763 C   0  0  0  0  0  0  0  0  0  0  0  0
   19.8071   80.4024   19.9570 C   0  0  0  0  0  0  0  0  0  0  0  0
   19.4932   81.4452   19.0668 O   0  0  0  0  0  0  0  0  0  0  0  0
   20.3549   81.3403   17.9950 C   0  0  0  0  0  0  0  0  0  0  0  0
   19.9782   80.1213   17.1774 C   0  0  0  0  0  0  0  0  0  0  0  0
   20.9733   78.6157   18.1469 H   0  0  0  0  0  0  0  0  0  0  0  0
 10 11  1  0  0  0
 11 12  2  0  0  0
 11 16  1  0  0  0
 12 13  1  0  0  0
 13 14  2  0  0  0
 14 15  1  0  0  0
 14  1  1  0  0  0
 15 16  2  0  0  0
  1  2  2  0  0  0
  1  9  1  0  0  0
  2  3  1  0  0  0
  2  7  1  0  0  0
  3  4  1  0  0  0
  3 17  1  0  0  0
  4  5  1  0  0  0
  4 27  1  0  0  0
  5  6  2  0  0  0
  5  7  1  0  0  0
  7  8  2  0  0  0
 27 28  1  0  0  0
 28 29  1  0  0  0
 29 30  1  0  0  0
 29 34  1  0  0  0
 30 31  1  0  0  0
 31 32  1  0  0  0
 32 33  1  0  0  0
 33 34  1  0  0  0
 17 18  2  0  0  0
 17 22  1  0  0  0
 18 19  1  0  0  0
 19 20  2  0  0  0
 20 21  1  0  0  0
 20 23  1  0  0  0
 21 22  2  0  0  0
 23 24  1  0  0  0
 24 25  1  0  0  0
 25 26  1  0  0  0
 29 35  1  0  0  0
M  CHG 1   9  -1
M  CHG 1  29   1
M  END
> <minimizedAffinity>
-8.85251

$$$$
1957


 36 40  0  0  0  0  0  0  0  0999 V2000
   20.5714   80.1081   17.8674 C   0  0  0  0  0  0  0  0  0  0  0  0
   22.0028   79.9488   18.0896 N   0  0  0  0  0  0  0  0  0  0  0  0
   22.4516   78.9085   17.1858 C   0  0  0  0  0  0  0  0  0  0  0  0
   21.5583   79.1025   15.9948 C   0  0  0  0  0  0  0  0  0  0  0  0
   20.2311   79.5001   16.5589 C   0  0  0  0  0  0  0  0  0  0  0  0
   19.4450   78.2414   16.6792 C   0  0  0  0  0  0  0  0  0  0  0  0
   18.3884   78.0799   17.3347 O   0  0  0  0  0  0  0  0  0  0  0  0
   20.1411   77.2498   15.8924 N   0  0  0  0  0  0  0  0  0  0  0  0
   21.2450   77.8641   15.2608 C   0  0  0  0  0  0  0  0  0  0  0  0
   21.8690   77.4506   14.2531 O   0  0  0  0  0  0  0  0  0  0  0  0
   23.8829   79.0615   16.8279 C   0  0  0  0  0  0  0  0  0  0  0  0
   24.5259   77.9341   17.2814 C   0  0  0  0  0  0  0  0  0  0  0  0
   25.8930   77.8128   17.0734 C   0  0  0  0  0  0  0  0  0  0  0  0
   26.5653   78.8191   16.4209 C   0  0  0  0  0  0  0  0  0  0  0  0
   25.9269   79.9577   15.9595 C   0  0  0  0  0  0  0  0  0  0  0  0
   24.5687   80.0656   16.1738 C   0  0  0  0  0  0  0  0  0  0  0  0
   23.6041   77.0400   17.9311 N   0  0  0  0  0  0  0  0  0  0  0  0
   22.3222   77.6393   17.8799 C   0  0  0  0  0  0  0  0  0  0  0  0
   21.2991   77.1266   18.3619 O   0  0  0  0  0  0  0  0  0  0  0  0
   22.1928   79.7150   19.0700 H   0  0  0  0  0  0  0  0  0  0  0  0
   23.8927   76.1247   18.3457 H   0  0  0  0  0  0  0  0  0  0  0  0
   20.3049   81.5866   17.9580 C   0  0  0  0  0  0  0  0  0  0  0  0
   21.2651   82.3642   17.3647 O   0  0  0  0  0  0  0  0  0  0  0  0
   21.2089   82.2276   16.3845 H   0  0  0  0  0  0  0  0  0  0  0  0
   19.4328   83.6072   23.6141 Cl  0  0  0  0  0  0  0  0  0  0  0  0
   19.6766   83.0218   21.9770 C   0  0  0  0  0  0  0  0  0  0  0  0
   18.9759   83.5337   20.9023 C   0  0  0  0  0  0  0  0  0  0  0  0
   19.1739   83.0695   19.6282 C   0  0  0  0  0  0  0  0  0  0  0  0
   20.0935   82.0576   19.3563 C   0  0  0  0  0  0  0  0  0  0  0  0
   20.7968   81.5409   20.4167 C   0  0  0  0  0  0  0  0  0  0  0  0
   20.5793   82.0240   21.6849 C   0  0  0  0  0  0  0  0  0  0  0  0
   19.7693   75.8694   15.7886 C   0  0  0  0  0  0  0  0  0  0  0  0
   19.3444   75.4094   14.4447 C   0  0  0  0  0  0  0  0  0  0  0  0
   19.9027   74.1133   13.9718 C   0  0  0  0  0  0  0  0  0  0  0  0
   18.9868   73.3433   13.2672 O   0  0  0  0  0  0  0  0  0  0  0  0
   17.9959   74.1837   12.7176 C   0  0  0  0  0  0  0  0  0  0  0  0
 25 26  1  0  0  0
 26 27  2  0  0  0
 26 31  1  0  0  0
 27 28  1  0  0  0
 28 29  2  0  0  0
 29 30  1  0  0  0
 29 22  1  0  0  0
 30 31  2  0  0  0
 22 23  1  0  0  0
 22  1  1  0  0  0
  1  2  1  0  0  0
  1  5  1  0  0  0
  2  3  1  0  0  0
  3  4  1  0  0  0
  3 11  1  0  0  0
  3 18  1  0  0  0
  4  5  1  0  0  0
  4  9  1  0  0  0
  5  6  1  0  0  0
  6  7  2  0  0  0
  6  8  1  0  0  0
  8  9  1  0  0  0
  8 32  1  0  0  0
  9 10  2  0  0  0
 32 33  1  0  0  0
 33 34  1  0  0  0
 34 35  1  0  0  0
 35 36  1  0  0  0
 11 12  1  0  0  0
 11 16  2  0  0  0
 12 13  2  0  0  0
 12 17  1  0  0  0
 13 14  1  0  0  0
 14 15  2  0  0  0
 15 16  1  0  0  0
 17 18  1  0  0  0
 18 19  2  0  0  0
 23 24  1  0  0  0
  2 20  1  0  0  0
 17 21  1  0  0  0
M  END
> <minimizedAffinity>
-9.05215

$$$$
1958


 28 31  0  0  0  0  0  0  0  0999 V2000
   19.7738   80.4025   18.0911 C   0  0  0  0  0  0  0  0  0  0  0  0
   18.5172   80.1654   18.0435 O   0  0  0  0  0  0  0  0  0  0  0  0
   20.7239   79.3724   18.0450 N   0  0  0  0  0  0  0  0  0  0  0  0
   22.1280   79.6299   18.0975 C   0  0  0  0  0  0  0  0  0  0  0  0
   22.9759   78.5836   17.4304 C   0  0  0  0  0  0  0  0  0  0  0  0
   22.1867   77.8677   16.3992 C   0  0  0  0  0  0  0  0  0  0  0  0
   20.8563   77.5596   16.6146 C   0  0  0  0  0  0  0  0  0  0  0  0
   20.1376   76.9086   15.6931 N   0  0  0  0  0  0  0  0  0  0  0  0
   20.6531   76.5153   14.5090 C   0  0  0  0  0  0  0  0  0  0  0  0
   21.9564   76.8154   14.2932 N   0  0  0  0  0  0  0  0  0  0  0  0
   22.7192   77.4669   15.1877 C   0  0  0  0  0  0  0  0  0  0  0  0
   24.0518   77.7587   14.9349 O   0  0  0  0  0  0  0  0  0  0  0  0
   20.2848   78.0087   17.9387 C   0  0  0  0  0  0  0  0  0  0  0  0
   24.3360   78.4111   14.1995 H   0  0  0  0  0  0  0  0  0  0  0  0
   19.8541   75.8361   13.5734 N   0  0  0  0  0  0  0  0  0  0  0  0
   19.4874   76.4586   12.3361 C   0  0  0  0  0  0  0  0  0  0  0  0
   19.1569   75.3177   11.3629 C   0  0  0  0  0  0  0  0  0  0  0  0
   18.0858   74.5826   11.8056 O   0  0  0  0  0  0  0  0  0  0  0  0
   18.1170   74.2016   13.1196 C   0  0  0  0  0  0  0  0  0  0  0  0
   19.3952   74.5075   13.8503 C   0  0  0  0  0  0  0  0  0  0  0  0
   20.1793   81.8408   18.1987 C   0  0  0  0  0  0  0  0  0  0  0  0
   19.2072   84.0229   23.7372 Cl  0  0  0  0  0  0  0  0  0  0  0  0
   19.4975   83.3836   22.1343 C   0  0  0  0  0  0  0  0  0  0  0  0
   20.5104   82.4559   21.9135 C   0  0  0  0  0  0  0  0  0  0  0  0
   20.7288   81.9599   20.6465 C   0  0  0  0  0  0  0  0  0  0  0  0
   19.9727   82.3524   19.5629 C   0  0  0  0  0  0  0  0  0  0  0  0
   18.9676   83.2708   19.7736 C   0  0  0  0  0  0  0  0  0  0  0  0
   18.7474   83.7669   21.0388 C   0  0  0  0  0  0  0  0  0  0  0  0
 22 23  1  0  0  0
 23 24  2  0  0  0
 23 28  1  0  0  0
 24 25  1  0  0  0
 25 26  2  0  0  0
 26 27  1  0  0  0
 26 21  1  0  0  0
 27 28  2  0  0  0
 21  1  1  0  0  0
  1  2  2  0  0  0
  1  3  1  0  0  0
  3  4  1  0  0  0
  3 13  1  0  0  0
  4  5  1  0  0  0
  5  6  1  0  0  0
  6  7  2  0  0  0
  6 11  1  0  0  0
  7  8  1  0  0  0
  7 13  1  0  0  0
  8  9  2  0  0  0
  9 10  1  0  0  0
  9 15  1  0  0  0
 10 11  2  0  0  0
 11 12  1  0  0  0
 15 16  1  0  0  0
 15 20  1  0  0  0
 16 17  1  0  0  0
 17 18  1  0  0  0
 18 19  1  0  0  0
 19 20  1  0  0  0
 12 14  1  0  0  0
M  END
> <minimizedAffinity>
-10.44229

$$$$
1960


 28 31  0  0  0  0  0  0  0  0999 V2000
   19.6805   78.3585   10.4182 C   0  0  0  0  0  0  0  0  0  0  0  0
   18.6404   79.0011   10.7198 O   0  0  0  0  0  0  0  0  0  0  0  0
   20.8548   79.0737   10.1346 N   0  0  0  0  0  0  0  0  0  0  0  0
   20.8790   80.5462   10.1846 C   0  0  0  0  0  0  0  0  0  0  0  0
   22.2177   80.9769   10.7643 C   0  0  0  0  0  0  0  0  0  0  0  0
   22.6686   79.8958   11.6175 N   0  0  0  0  0  0  0  0  0  0  0  0
   23.1287   78.7056   10.9227 C   0  0  0  0  0  0  0  0  0  0  0  0
   22.1288   78.4650    9.7786 C   0  0  0  0  0  0  0  0  0  0  0  0
   22.6449   79.9933   13.0329 C   0  0  0  0  0  0  0  0  0  0  0  0
   23.0870   81.1461   13.6556 C   0  0  0  0  0  0  0  0  0  0  0  0
   23.0656   81.2086   15.0190 N   0  0  0  0  0  0  0  0  0  0  0  0
   22.6419   80.2156   15.7763 N   0  0  0  0  0  0  0  0  0  0  0  0
   22.1902   79.0460   15.2268 C   0  0  0  0  0  0  0  0  0  0  0  0
   22.2132   78.9884   13.8662 C   0  0  0  0  0  0  0  0  0  0  0  0
   21.7535   78.0225   16.0967 N   0  0  0  0  0  0  0  0  0  0  0  0
   20.5465   77.2680   15.8149 C   0  0  0  0  0  0  0  0  0  0  0  0
   19.7023   77.1172   17.0812 C   0  0  0  0  0  0  0  0  0  0  0  0
   20.4685   76.7217   18.1595 O   0  0  0  0  0  0  0  0  0  0  0  0
   21.3972   77.7190   18.4148 C   0  0  0  0  0  0  0  0  0  0  0  0
   22.4589   77.6697   17.3017 C   0  0  0  0  0  0  0  0  0  0  0  0
   19.5858   76.8866   10.3864 C   0  0  0  0  0  0  0  0  0  0  0  0
   18.0010   74.9955    4.8827 Cl  0  0  0  0  0  0  0  0  0  0  0  0
   18.4610   75.5320    6.4695 C   0  0  0  0  0  0  0  0  0  0  0  0
   18.0873   76.7946    6.9329 C   0  0  0  0  0  0  0  0  0  0  0  0
   18.4575   77.2152    8.1971 C   0  0  0  0  0  0  0  0  0  0  0  0
   19.2078   76.3940    9.0349 C   0  0  0  0  0  0  0  0  0  0  0  0
   19.5763   75.1566    8.5849 C   0  0  0  0  0  0  0  0  0  0  0  0
   19.2013   74.7338    7.3098 C   0  0  0  0  0  0  0  0  0  0  0  0
 22 23  1  0  0  0
 23 24  2  0  0  0
 23 28  1  0  0  0
 24 25  1  0  0  0
 25 26  2  0  0  0
 26 27  1  0  0  0
 26 21  1  0  0  0
 27 28  2  0  0  0
 21  1  1  0  0  0
  1  2  2  0  0  0
  1  3  1  0  0  0
  3  4  1  0  0  0
  3  8  1  0  0  0
  4  5  1  0  0  0
  5  6  1  0  0  0
  6  7  1  0  0  0
  6  9  1  0  0  0
  7  8  1  0  0  0
  9 10  2  0  0  0
  9 14  1  0  0  0
 10 11  1  0  0  0
 11 12  2  0  0  0
 12 13  1  0  0  0
 13 14  2  0  0  0
 13 15  1  0  0  0
 15 16  1  0  0  0
 15 20  1  0  0  0
 16 17  1  0  0  0
 17 18  1  0  0  0
 18 19  1  0  0  0
 19 20  1  0  0  0
M  END
> <minimizedAffinity>
-10.15967

$$$$
1966


 27 30  0  0  0  0  0  0  0  0999 V2000
   21.1015   77.2708   15.7040 C   0  0  0  0  0  0  0  0  0  0  0  0
   22.3890   77.2028   15.6186 O   0  0  0  0  0  0  0  0  0  0  0  0
   20.2398   76.4533   15.0172 N   0  0  0  0  0  0  0  0  0  0  0  0
   21.2942   75.8128   14.4281 H   0  0  0  0  0  0  0  0  0  0  0  0
   21.7366   80.3359   15.6642 F   0  0  0  0  0  0  0  0  0  0  0  0
   20.9956   79.6906   16.5979 C   0  0  0  0  0  0  0  0  0  0  0  0
   20.4315   80.3467   17.6577 N   0  0  0  0  0  0  0  0  0  0  0  0
   19.7879   79.3997   18.3585 C   0  0  0  0  0  0  0  0  0  0  0  0
   19.9501   78.2112   17.7548 N   0  0  0  0  0  0  0  0  0  0  0  0
   20.7021   78.3510   16.6457 C   0  0  0  0  0  0  0  0  0  0  0  0
   19.1259   79.7990   19.4938 C   0  0  0  0  0  0  0  0  0  0  0  0
   19.1066   81.1276   19.9225 C   0  0  0  0  0  0  0  0  0  0  0  0
   19.7743   82.0653   19.1811 C   0  0  0  0  0  0  0  0  0  0  0  0
   20.4370   81.6354   18.0369 C   0  0  0  0  0  0  0  0  0  0  0  0
   19.7881   83.7624   19.6603 Cl  0  0  0  0  0  0  0  0  0  0  0  0
   19.3833   75.6413   14.3335 C   0  0  0  0  0  0  0  0  0  0  0  0
   19.3314   75.8562   12.8416 C   0  0  0  0  0  0  0  0  0  0  0  0
   18.9850   74.9407   11.9333 N   0  0  0  0  0  0  0  0  0  0  0  0
   19.0584   75.5077   10.7411 N   0  0  0  0  0  0  0  0  0  0  0  0
   19.4410   76.7605   10.8620 N   0  0  0  0  0  0  0  0  0  0  0  0
   19.6081   76.9684   12.1683 N   0  0  0  0  0  0  0  0  0  0  0  0
   18.6038   73.6087   12.2826 C   0  0  0  0  0  0  0  0  0  0  0  0
   17.2508   73.3411   12.4625 C   0  0  0  0  0  0  0  0  0  0  0  0
   16.8148   72.0712   12.8203 C   0  0  0  0  0  0  0  0  0  0  0  0
   17.7087   71.0366   13.0090 C   0  0  0  0  0  0  0  0  0  0  0  0
   19.0479   71.3091   12.8283 C   0  0  0  0  0  0  0  0  0  0  0  0
   19.4855   72.5725   12.4728 C   0  0  0  0  0  0  0  0  0  0  0  0
  5  6  1  0  0  0
  6  7  1  0  0  0
  6 10  2  0  0  0
  7  8  1  0  0  0
  7 14  1  0  0  0
  8  9  2  0  0  0
  8 11  1  0  0  0
  9 10  1  0  0  0
 10  1  1  0  0  0
  1  2  2  0  0  0
  1  3  1  0  0  0
  3 16  1  0  0  0
 16 17  1  0  0  0
 17 18  1  0  0  0
 17 21  2  0  0  0
 18 19  1  0  0  0
 18 22  1  0  0  0
 19 20  2  0  0  0
 20 21  1  0  0  0
 22 23  2  0  0  0
 22 27  1  0  0  0
 23 24  1  0  0  0
 24 25  2  0  0  0
 25 26  1  0  0  0
 26 27  2  0  0  0
 11 12  2  0  0  0
 12 13  1  0  0  0
 13 14  2  0  0  0
 13 15  1  0  0  0
  3  4  1  0  0  0
M  END
> <minimizedAffinity>
-10.62760

$$$$
1969


 26 29  0  0  0  0  0  0  0  0999 V2000
   21.5009   78.8099   16.7466 C   0  0  0  0  0  0  0  0  0  0  0  0
   21.8092   77.5045   17.1162 O   0  0  0  0  0  0  0  0  0  0  0  0
   22.4404   79.3145   15.9115 N   0  0  0  0  0  0  0  0  0  0  0  0
   22.5187   80.5533   15.1957 C   0  0  0  0  0  0  0  0  0  0  0  0
   23.4113   80.3664   13.9515 C   0  0  0  0  0  0  0  0  0  0  0  0
   23.1710   78.9718   13.5543 N   0  0  0  0  0  0  0  0  0  0  0  0
   23.7026   77.9263   14.3642 C   0  0  0  0  0  0  0  0  0  0  0  0
   23.6631   78.4626   15.7591 C   0  0  0  0  0  0  0  0  0  0  0  0
   22.3398   78.7012   12.4734 C   0  0  0  0  0  0  0  0  0  0  0  0
   22.7976   78.8468   11.1588 N   0  0  0  0  0  0  0  0  0  0  0  0
   22.1231   78.5995   10.0917 C   0  0  0  0  0  0  0  0  0  0  0  0
   20.8029   78.1257   10.1422 C   0  0  0  0  0  0  0  0  0  0  0  0
   20.3372   77.9845   11.4429 C   0  0  0  0  0  0  0  0  0  0  0  0
   21.0573   78.2523   12.4665 N   0  0  0  0  0  0  0  0  0  0  0  0
   19.9068   80.6742   19.2333 N   0  0  0  0  0  0  0  0  0  0  0  0
   18.8514   79.9539   18.9197 N   0  0  0  0  0  0  0  0  0  0  0  0
   19.2130   79.2357   18.0488 N   0  0  0  0  0  0  0  0  0  0  0  0
   20.2557   79.0419   17.4564 C   0  0  0  0  0  0  0  0  0  0  0  0
   20.8698   80.2566   18.4555 C   0  0  0  0  0  0  0  0  0  0  0  0
   17.6602   84.7662   21.6253 Cl  0  0  0  0  0  0  0  0  0  0  0  0
   18.8661   83.5347   21.4204 C   0  0  0  0  0  0  0  0  0  0  0  0
   18.8652   82.6088   20.3850 C   0  0  0  0  0  0  0  0  0  0  0  0
   19.8386   81.6779   20.2724 C   0  0  0  0  0  0  0  0  0  0  0  0
   20.8267   81.6967   21.2360 C   0  0  0  0  0  0  0  0  0  0  0  0
   20.8809   82.5732   22.2664 C   0  0  0  0  0  0  0  0  0  0  0  0
   19.9182   83.5139   22.3925 C   0  0  0  0  0  0  0  0  0  0  0  0
 20 21  1  0  0  0
 21 22  2  0  0  0
 21 26  1  0  0  0
 22 23  1  0  0  0
 23 24  2  0  0  0
 23 15  1  0  0  0
 24 25  1  0  0  0
 25 26  2  0  0  0
 15 16  1  0  0  0
 15 19  1  0  0  0
 16 17  2  0  0  0
 17 18  1  0  0  0
 18 19  2  0  0  0
 18  1  1  0  0  0
  1  2  2  0  0  0
  1  3  1  0  0  0
  3  4  1  0  0  0
  3  8  1  0  0  0
  4  5  1  0  0  0
  5  6  1  0  0  0
  6  7  1  0  0  0
  6  9  1  0  0  0
  7  8  1  0  0  0
  9 10  2  0  0  0
  9 14  1  0  0  0
 10 11  1  0  0  0
 11 12  2  0  0  0
 12 13  1  0  0  0
 13 14  2  0  0  0
M  END
> <minimizedAffinity>
-9.96901

$$$$
1971


 22 25  0  0  0  0  0  0  0  0999 V2000
   19.8726   81.0704   19.2998 N   0  0  0  0  0  0  0  0  0  0  0  0
   19.5583   79.6662   19.2512 C   0  0  0  0  0  0  0  0  0  0  0  0
   19.2653   78.9670   20.2497 O   0  0  0  0  0  0  0  0  0  0  0  0
   19.6342   79.1919   17.8720 C   0  0  0  0  0  0  0  0  0  0  0  0
   20.8071   78.3226   17.5593 C   0  0  0  0  0  0  0  0  0  0  0  0
   20.9407   78.5748   16.1704 O   0  0  0  0  0  0  0  0  0  0  0  0
   21.1871   79.9677   16.2823 C   0  0  0  0  0  0  0  0  0  0  0  0
   19.9452   80.4242   17.0073 C   0  0  0  0  0  0  0  0  0  0  0  0
   20.2729   81.4588   17.9906 C   0  0  0  0  0  0  0  0  0  0  0  0
   20.8316   82.5535   17.7352 O   0  0  0  0  0  0  0  0  0  0  0  0
   22.3022   79.9687   17.2523 C   0  0  0  0  0  0  0  0  0  0  0  0
   22.0809   78.8966   18.0469 C   0  0  0  0  0  0  0  0  0  0  0  0
   17.4532   84.8913   21.8507 Cl  0  0  0  0  0  0  0  0  0  0  0  0
   18.7431   83.7236   21.6636 C   0  0  0  0  0  0  0  0  0  0  0  0
   18.7983   82.8754   20.5783 C   0  0  0  0  0  0  0  0  0  0  0  0
   19.8149   81.9472   20.4184 C   0  0  0  0  0  0  0  0  0  0  0  0
   20.7820   81.9044   21.4029 C   0  0  0  0  0  0  0  0  0  0  0  0
   20.7272   82.7584   22.4967 C   0  0  0  0  0  0  0  0  0  0  0  0
   19.7112   83.6806   22.6464 C   0  0  0  0  0  0  0  0  0  0  0  0
   20.6205   76.8748   17.8460 C   0  0  0  0  0  0  0  0  0  0  0  0
   20.8529   76.6379   19.1947 O   0  0  0  0  0  0  0  0  0  0  0  0
   21.1172   77.4716   19.6480 H   0  0  0  0  0  0  0  0  0  0  0  0
 13 14  1  0  0  0
 14 15  2  0  0  0
 14 19  1  0  0  0
 15 16  1  0  0  0
 16 17  2  0  0  0
 16  1  1  0  0  0
 17 18  1  0  0  0
 18 19  2  0  0  0
  1  2  1  0  0  0
  1  9  1  0  0  0
  2  3  2  0  0  0
  2  4  1  0  0  0
  4  5  1  0  0  0
  4  8  1  0  0  0
  5  6  1  0  0  0
  5 12  1  0  0  0
  5 20  1  0  0  0
  6  7  1  0  0  0
  7  8  1  0  0  0
  7 11  1  0  0  0
  8  9  1  0  0  0
  9 10  2  0  0  0
 11 12  2  0  0  0
 20 21  1  0  0  0
 21 22  1  0  0  0
M  END
> <minimizedAffinity>
-9.98935

$$$$
1973


 24 27  0  0  0  0  0  0  0  0999 V2000
   17.7851   77.6615    7.6038 Cl  0  0  0  0  0  0  0  0  0  0  0  0
   19.0048   78.1307    8.7875 C   0  0  0  0  0  0  0  0  0  0  0  0
   19.1193   77.4992   10.0088 C   0  0  0  0  0  0  0  0  0  0  0  0
   20.0499   77.8448   10.9309 N   0  0  0  0  0  0  0  0  0  0  0  0
   20.9293   78.8389   10.7075 C   0  0  0  0  0  0  0  0  0  0  0  0
   21.8693   79.2001   11.6200 N   0  0  0  0  0  0  0  0  0  0  0  0
   21.9877   78.5896   12.8132 C   0  0  0  0  0  0  0  0  0  0  0  0
   21.0858   77.5596   13.0598 C   0  0  0  0  0  0  0  0  0  0  0  0
   21.2147   76.8844   14.3776 C   0  0  0  0  0  0  0  0  0  0  0  0
   21.3640   77.9702   15.3534 N   0  0  0  0  0  0  0  0  0  0  0  0
   22.5118   78.8232   15.2276 C   0  0  0  0  0  0  0  0  0  0  0  0
   23.0117   78.9729   13.8184 C   0  0  0  0  0  0  0  0  0  0  0  0
   20.4017   78.1618   16.3691 C   0  0  0  0  0  0  0  0  0  0  0  0
   19.4091   77.3578   16.3848 O   0  0  0  0  0  0  0  0  0  0  0  0
   20.1437   77.2151   12.1159 C   0  0  0  0  0  0  0  0  0  0  0  0
   19.3296   76.2684   12.3662 O   0  0  0  0  0  0  0  0  0  0  0  0
   20.8307   79.4866    9.4870 C   0  0  0  0  0  0  0  0  0  0  0  0
   19.8930   79.1534    8.5318 C   0  0  0  0  0  0  0  0  0  0  0  0
   20.5069   79.2321   17.3856 C   0  0  0  0  0  0  0  0  0  0  0  0
   21.7733   79.1199   18.2057 C   0  0  0  0  0  0  0  0  0  0  0  0
   21.9408   77.6363   18.5071 C   0  0  0  0  0  0  0  0  0  0  0  0
   20.6995   77.0543   18.7585 O   0  0  0  0  0  0  0  0  0  0  0  0
   19.8168   77.9664   19.3530 C   0  0  0  0  0  0  0  0  0  0  0  0
   19.3561   79.0392   18.3845 C   0  0  0  0  0  0  0  0  0  0  0  0
  1  2  1  0  0  0
  2  3  2  0  0  0
  2 18  1  0  0  0
  3  4  1  0  0  0
  4  5  1  0  0  0
  4 15  1  0  0  0
  5  6  2  0  0  0
  5 17  1  0  0  0
  6  7  1  0  0  0
  7  8  2  0  0  0
  7 12  1  0  0  0
  8  9  1  0  0  0
  8 15  1  0  0  0
  9 10  1  0  0  0
 10 11  1  0  0  0
 10 13  1  0  0  0
 11 12  1  0  0  0
 13 14  2  0  0  0
 13 19  1  0  0  0
 19 20  1  0  0  0
 19 24  1  0  0  0
 20 21  1  0  0  0
 21 22  1  0  0  0
 22 23  1  0  0  0
 23 24  1  0  0  0
 15 16  2  0  0  0
 17 18  2  0  0  0
M  END
> <minimizedAffinity>
-8.85445

$$$$
1974


 26 29  0  0  0  0  0  0  0  0999 V2000
   22.7733   80.6729   16.4124 F   0  0  0  0  0  0  0  0  0  0  0  0
   22.5632   80.1643   15.1745 C   0  0  0  0  0  0  0  0  0  0  0  0
   21.7872   79.0215   15.0542 C   0  0  0  0  0  0  0  0  0  0  0  0
   21.5312   78.4479   13.8283 C   0  0  0  0  0  0  0  0  0  0  0  0
   22.0785   79.0527   12.7095 C   0  0  0  0  0  0  0  0  0  0  0  0
   22.8481   80.1863   12.8269 C   0  0  0  0  0  0  0  0  0  0  0  0
   23.1000   80.7540   14.0543 C   0  0  0  0  0  0  0  0  0  0  0  0
   21.7556   78.3259   11.1454 Cl  0  0  0  0  0  0  0  0  0  0  0  0
   20.7010   77.2686   13.9620 C   0  0  0  0  0  0  0  0  0  0  0  0
   20.2777   76.5069   13.0629 O   0  0  0  0  0  0  0  0  0  0  0  0
   20.4449   77.1352   15.3904 C   0  0  0  0  0  0  0  0  0  0  0  0
   19.7492   76.2186   15.9292 O   0  0  0  0  0  0  0  0  0  0  0  0
   21.1123   78.2078   16.0366 N   0  0  0  0  0  0  0  0  0  0  0  0
   21.1422   78.4830   17.4583 C   0  0  0  0  0  0  0  0  0  0  0  0
   19.8708   78.9349   17.9827 N   0  0  0  0  0  0  0  0  0  0  0  0
   19.8883   78.9729   19.4047 C   0  0  0  0  0  0  0  0  0  0  0  0
   19.2808   80.1823   20.0235 C   0  0  0  0  0  0  0  0  0  0  0  0
   19.5599   81.4006   19.3091 N   0  0  0  0  0  0  0  0  0  0  0  0
   20.0244   81.3088   17.9445 C   0  0  0  0  0  0  0  0  0  0  0  0
   19.3551   80.0942   17.3374 C   0  0  0  0  0  0  0  0  0  0  0  0
   19.3945   82.6768   19.8933 C   0  0  0  0  0  0  0  0  0  0  0  0
   18.9494   82.8173   21.1530 N   0  0  0  0  0  0  0  0  0  0  0  0
   18.7826   84.0225   21.7322 C   0  0  0  0  0  0  0  0  0  0  0  0
   19.0707   85.1793   21.0337 C   0  0  0  0  0  0  0  0  0  0  0  0
   19.5168   85.0455   19.7744 N   0  0  0  0  0  0  0  0  0  0  0  0
   19.6837   83.8419   19.1941 C   0  0  0  0  0  0  0  0  0  0  0  0
  1  2  1  0  0  0
  2  3  2  0  0  0
  2  7  1  0  0  0
  3  4  1  0  0  0
  3 13  1  0  0  0
  4  5  2  0  0  0
  4  9  1  0  0  0
  5  6  1  0  0  0
  5  8  1  0  0  0
  6  7  2  0  0  0
  9 10  2  0  0  0
  9 11  1  0  0  0
 11 12  2  0  0  0
 11 13  1  0  0  0
 13 14  1  0  0  0
 14 15  1  0  0  0
 15 16  1  0  0  0
 15 20  1  0  0  0
 16 17  1  0  0  0
 17 18  1  0  0  0
 18 19  1  0  0  0
 18 21  1  0  0  0
 19 20  1  0  0  0
 21 22  2  0  0  0
 21 26  1  0  0  0
 22 23  1  0  0  0
 23 24  2  0  0  0
 24 25  1  0  0  0
 25 26  2  0  0  0
M  END
> <minimizedAffinity>
-9.32400

$$$$
1976


 26 29  0  0  0  0  0  0  0  0999 V2000
   19.5852   78.2946   18.5194 C   0  0  0  0  0  0  0  0  0  0  0  0
   19.6181   77.4971   19.5202 O   0  0  0  0  0  0  0  0  0  0  0  0
   19.5292   79.7031   18.6882 N   0  0  0  0  0  0  0  0  0  0  0  0
   19.4990   80.5395   17.5405 C   0  0  0  0  0  0  0  0  0  0  0  0
   20.5447   81.6454   17.7315 C   0  0  0  0  0  0  0  0  0  0  0  0
   20.0117   82.4016   18.9298 C   0  0  0  0  0  0  0  0  0  0  0  0
   19.5028   81.6981   20.0019 C   0  0  0  0  0  0  0  0  0  0  0  0
   19.0163   82.3992   21.0655 N   0  0  0  0  0  0  0  0  0  0  0  0
   19.0135   83.7408   21.1100 C   0  0  0  0  0  0  0  0  0  0  0  0
   19.5129   84.4106   20.0562 N   0  0  0  0  0  0  0  0  0  0  0  0
   20.0155   83.7663   18.9613 C   0  0  0  0  0  0  0  0  0  0  0  0
   20.5296   84.4528   17.8764 O   0  0  0  0  0  0  0  0  0  0  0  0
   19.4927   80.2222   20.0136 C   0  0  0  0  0  0  0  0  0  0  0  0
   21.5228   84.3761   17.6921 H   0  0  0  0  0  0  0  0  0  0  0  0
   19.6091   77.6794   17.1532 C   0  0  0  0  0  0  0  0  0  0  0  0
   19.9976   76.5794   14.3805 Cl  0  0  0  0  0  0  0  0  0  0  0  0
   21.3043   77.2139   15.3446 C   0  0  0  0  0  0  0  0  0  0  0  0
   22.6065   77.2452   14.8710 C   0  0  0  0  0  0  0  0  0  0  0  0
   23.6539   77.7441   15.6228 C   0  0  0  0  0  0  0  0  0  0  0  0
   23.3643   78.2242   16.8862 C   0  0  0  0  0  0  0  0  0  0  0  0
   22.0601   78.1854   17.3422 C   0  0  0  0  0  0  0  0  0  0  0  0
   20.9994   77.6897   16.6048 C   0  0  0  0  0  0  0  0  0  0  0  0
   24.4097   78.7228   17.6353 O   0  0  0  0  0  0  0  0  0  0  0  0
   25.6556   79.1364   17.1122 C   0  0  0  0  0  0  0  0  0  0  0  0
   25.9431   78.6374   15.7404 C   0  0  0  0  0  0  0  0  0  0  0  0
   24.9588   77.7974   15.2010 O   0  0  0  0  0  0  0  0  0  0  0  0
 16 17  1  0  0  0
 17 18  2  0  0  0
 17 22  1  0  0  0
 18 19  1  0  0  0
 19 20  2  0  0  0
 19 26  1  0  0  0
 20 21  1  0  0  0
 20 23  1  0  0  0
 21 22  2  0  0  0
 22 15  1  0  0  0
 15  1  1  0  0  0
  1  2  2  0  0  0
  1  3  1  0  0  0
  3  4  1  0  0  0
  3 13  1  0  0  0
  4  5  1  0  0  0
  5  6  1  0  0  0
  6  7  2  0  0  0
  6 11  1  0  0  0
  7  8  1  0  0  0
  7 13  1  0  0  0
  8  9  2  0  0  0
  9 10  1  0  0  0
 10 11  2  0  0  0
 11 12  1  0  0  0
 23 24  1  0  0  0
 24 25  1  0  0  0
 25 26  1  0  0  0
 12 14  1  0  0  0
M  END
> <minimizedAffinity>
-10.53011

$$$$
1982


 25 28  0  0  0  0  0  0  0  0999 V2000
   17.8489   73.4730   13.0847 Cl  0  0  0  0  0  0  0  0  0  0  0  0
   18.8077   74.9050   12.7766 C   0  0  0  0  0  0  0  0  0  0  0  0
   19.4520   75.6003   13.7787 C   0  0  0  0  0  0  0  0  0  0  0  0
   20.2099   76.7307   13.5503 C   0  0  0  0  0  0  0  0  0  0  0  0
   20.3186   77.1740   12.2461 C   0  0  0  0  0  0  0  0  0  0  0  0
   19.6795   76.4868   11.2351 C   0  0  0  0  0  0  0  0  0  0  0  0
   18.9210   75.3569   11.4642 C   0  0  0  0  0  0  0  0  0  0  0  0
   21.1269   78.3831   11.9768 C   0  0  0  0  0  0  0  0  0  0  0  0
   21.3838   78.9878   10.8942 N   0  0  0  0  0  0  0  0  0  0  0  0
   22.2275   80.1514   11.0667 C   0  0  0  0  0  0  0  0  0  0  0  0
   22.4988   80.2132   12.5342 C   0  0  0  0  0  0  0  0  0  0  0  0
   21.7719   79.0659   13.0429 N   0  0  0  0  0  0  0  0  0  0  0  0
   21.6091   78.5417   14.3609 C   0  0  0  0  0  0  0  0  0  0  0  0
   22.0926   78.9688   15.5412 N   0  0  0  0  0  0  0  0  0  0  0  0
   21.6940   78.1833   16.5271 N   0  0  0  0  0  0  0  0  0  0  0  0
   20.9328   77.2317   15.9328 C   0  0  0  0  0  0  0  0  0  0  0  0
   20.3799   76.3054   16.5646 O   0  0  0  0  0  0  0  0  0  0  0  0
   20.8667   77.4308   14.6060 N   0  0  0  0  0  0  0  0  0  0  0  0
   22.0053   78.3148   17.9375 C   0  0  0  0  0  0  0  0  0  0  0  0
   20.9317   79.1798   18.6127 C   0  0  0  0  0  0  0  0  0  0  0  0
   20.0776   78.3401   19.4897 C   0  0  0  0  0  0  0  0  0  0  0  0
   19.0730   78.7617   20.1157 O   0  0  0  0  0  0  0  0  0  0  0  0
   20.4177   76.9703   19.6313 N   0  0  0  0  0  0  0  0  0  0  0  0
   21.3931   76.6241   19.6808 H   0  0  0  0  0  0  0  0  0  0  0  0
   19.6400   76.2806   19.6869 H   0  0  0  0  0  0  0  0  0  0  0  0
  1  2  1  0  0  0
  2  3  2  0  0  0
  2  7  1  0  0  0
  3  4  1  0  0  0
  4  5  2  0  0  0
  4 18  1  0  0  0
  5  6  1  0  0  0
  5  8  1  0  0  0
  6  7  2  0  0  0
  8  9  2  0  0  0
  8 12  1  0  0  0
  9 10  1  0  0  0
 10 11  1  0  0  0
 11 12  1  0  0  0
 12 13  1  0  0  0
 13 14  2  0  0  0
 13 18  1  0  0  0
 14 15  1  0  0  0
 15 16  1  0  0  0
 15 19  1  0  0  0
 16 17  2  0  0  0
 16 18  1  0  0  0
 19 20  1  0  0  0
 20 21  1  0  0  0
 21 22  2  0  0  0
 21 23  1  0  0  0
 23 24  1  0  0  0
 23 25  1  0  0  0
M  END
> <minimizedAffinity>
-8.80448

$$$$
1986


 30 33  0  0  0  0  0  0  0  0999 V2000
   17.3639   72.3156   11.1045 Cl  0  0  0  0  0  0  0  0  0  0  0  0
   18.1961   73.7953   11.5494 C   0  0  0  0  0  0  0  0  0  0  0  0
   18.8515   74.5544   10.6007 C   0  0  0  0  0  0  0  0  0  0  0  0
   19.5167   75.7353   10.9551 C   0  0  0  0  0  0  0  0  0  0  0  0
   19.4800   76.0896   12.2792 C   0  0  0  0  0  0  0  0  0  0  0  0
   18.8136   75.3157   13.2394 C   0  0  0  0  0  0  0  0  0  0  0  0
   18.1623   74.1558   12.8806 C   0  0  0  0  0  0  0  0  0  0  0  0
   20.1325   77.2596   12.6573 O   0  0  0  0  0  0  0  0  0  0  0  0
   20.8108   78.0727   11.7655 C   0  0  0  0  0  0  0  0  0  0  0  0
   20.8472   77.7129   10.4275 C   0  0  0  0  0  0  0  0  0  0  0  0
   20.2028   76.5053    9.8992 C   0  0  0  0  0  0  0  0  0  0  0  0
   21.5340   78.5565    9.5773 C   0  0  0  0  0  0  0  0  0  0  0  0
   21.6013   78.2779    8.3380 O   0  0  0  0  0  0  0  0  0  0  0  0
   22.1564   79.6808    9.9652 N   0  0  0  0  0  0  0  0  0  0  0  0
   22.0938   79.9924   11.2827 C   0  0  0  0  0  0  0  0  0  0  0  0
   22.6848   81.0518   11.6253 O   0  0  0  0  0  0  0  0  0  0  0  0
   21.4354   79.1996   12.1480 N   0  0  0  0  0  0  0  0  0  0  0  0
   21.4149   79.6009   13.5403 C   0  0  0  0  0  0  0  0  0  0  0  0
   22.8694   80.5415    9.0208 C   0  0  0  0  0  0  0  0  0  0  0  0
   19.1998   76.8963    8.8552 C   0  0  0  0  0  0  0  0  0  0  0  0
   19.0117   76.1223    7.7313 C   0  0  0  0  0  0  0  0  0  0  0  0
   18.0997   76.4888    6.7899 N   0  0  0  0  0  0  0  0  0  0  0  0
   17.3668   77.6197    6.9459 C   0  0  0  0  0  0  0  0  0  0  0  0
   16.5305   77.9288    6.0514 O   0  0  0  0  0  0  0  0  0  0  0  0
   17.5284   78.3941    8.0303 N   0  0  0  0  0  0  0  0  0  0  0  0
   18.4291   78.0365    8.9650 C   0  0  0  0  0  0  0  0  0  0  0  0
   18.5666   78.7617    9.9605 O   0  0  0  0  0  0  0  0  0  0  0  0
   16.7240   79.6047    8.1658 C   0  0  0  0  0  0  0  0  0  0  0  0
   17.9458   75.6252    5.6235 C   0  0  0  0  0  0  0  0  0  0  0  0
   19.7478   74.9817    7.5705 O   0  0  0  0  0  0  0  0  0  0  0  0
  1  2  1  0  0  0
  2  3  2  0  0  0
  2  7  1  0  0  0
  3  4  1  0  0  0
  4  5  2  0  0  0
  4 11  1  0  0  0
  5  6  1  0  0  0
  5  8  1  0  0  0
  6  7  2  0  0  0
  8  9  1  0  0  0
  9 10  2  0  0  0
  9 17  1  0  0  0
 10 11  1  0  0  0
 10 12  1  0  0  0
 11 20  1  0  0  0
 20 21  2  0  0  0
 20 26  1  0  0  0
 21 22  1  0  0  0
 21 30  1  0  0  0
 22 23  1  0  0  0
 22 29  1  0  0  0
 23 24  2  0  0  0
 23 25  1  0  0  0
 25 26  1  0  0  0
 25 28  1  0  0  0
 26 27  2  0  0  0
 12 13  2  0  0  0
 12 14  1  0  0  0
 14 15  1  0  0  0
 14 19  1  0  0  0
 15 16  2  0  0  0
 15 17  1  0  0  0
 17 18  1  0  0  0
M  CHG 1  30  -1
M  END
> <minimizedAffinity>
-9.13422

$$$$
1991


 31 34  0  0  0  0  0  0  0  0999 V2000
   18.2374   74.9381   13.9069 Cl  0  0  0  0  0  0  0  0  0  0  0  0
   19.5121   76.0171   14.4199 C   0  0  0  0  0  0  0  0  0  0  0  0
   19.8510   76.1324   15.7496 C   0  0  0  0  0  0  0  0  0  0  0  0
   20.8532   76.9845   16.1340 C   0  0  0  0  0  0  0  0  0  0  0  0
   21.5313   77.7363   15.1668 C   0  0  0  0  0  0  0  0  0  0  0  0
   21.1966   77.6270   13.8266 C   0  0  0  0  0  0  0  0  0  0  0  0
   20.1903   76.7663   13.4839 C   0  0  0  0  0  0  0  0  0  0  0  0
   22.5609   78.6370   15.3911 O   0  0  0  0  0  0  0  0  0  0  0  0
   23.4473   78.6796   16.4840 C   0  0  0  0  0  0  0  0  0  0  0  0
   22.7518   78.9873   17.7701 C   0  0  0  0  0  0  0  0  0  0  0  0
   21.4881   78.3400   17.9545 N   0  0  0  0  0  0  0  0  0  0  0  0
   21.1030   76.9991   17.5980 C   0  0  0  0  0  0  0  0  0  0  0  0
   20.4338   79.0960   18.5724 C   0  0  0  0  0  0  0  0  0  0  0  0
   19.3339   78.5106   18.7300 O   0  0  0  0  0  0  0  0  0  0  0  0
   24.2437   77.3855   16.5432 C   0  0  0  0  0  0  0  0  0  0  0  0
   25.5355   77.5273   15.7576 C   0  0  0  0  0  0  0  0  0  0  0  0
   26.4075   78.4308   16.3328 O   0  0  0  0  0  0  0  0  0  0  0  0
   25.7163   79.4021   17.0479 C   0  0  0  0  0  0  0  0  0  0  0  0
   24.4789   79.7885   16.2612 C   0  0  0  0  0  0  0  0  0  0  0  0
   20.6287   80.4807   18.9985 C   0  0  0  0  0  0  0  0  0  0  0  0
   20.1701   80.8445   20.2888 N   0  0  0  0  0  0  0  0  0  0  0  0
   18.8324   81.4408   20.2451 C   0  0  0  0  0  0  0  0  0  0  0  0
   18.8974   82.6688   19.4168 C   0  0  0  0  0  0  0  0  0  0  0  0
   20.0277   83.6024   19.6944 C   0  0  0  0  0  0  0  0  0  0  0  0
   21.1318   83.0970   20.5364 C   0  0  0  0  0  0  0  0  0  0  0  0
   21.0325   81.7118   21.0526 C   0  0  0  0  0  0  0  0  0  0  0  0
   20.5484   84.2147   18.4476 C   0  0  0  0  0  0  0  0  0  0  0  0
   21.2980   83.5483   17.7056 O   0  0  0  0  0  0  0  0  0  0  0  0
   20.1970   85.5396   18.1109 N   0  0  0  0  0  0  0  0  0  0  0  0
   19.4909   85.6414   17.3235 H   0  0  0  0  0  0  0  0  0  0  0  0
   20.5540   86.3972   18.5486 H   0  0  0  0  0  0  0  0  0  0  0  0
  1  2  1  0  0  0
  2  3  2  0  0  0
  2  7  1  0  0  0
  3  4  1  0  0  0
  4  5  2  0  0  0
  4 12  1  0  0  0
  5  6  1  0  0  0
  5  8  1  0  0  0
  6  7  2  0  0  0
  8  9  1  0  0  0
  9 10  1  0  0  0
  9 15  1  0  0  0
  9 19  1  0  0  0
 10 11  1  0  0  0
 11 12  1  0  0  0
 11 13  1  0  0  0
 13 14  2  0  0  0
 13 20  1  0  0  0
 20 21  1  0  0  0
 21 22  1  0  0  0
 21 26  1  0  0  0
 22 23  1  0  0  0
 23 24  1  0  0  0
 24 25  1  0  0  0
 24 27  1  0  0  0
 25 26  1  0  0  0
 27 28  2  0  0  0
 27 29  1  0  0  0
 15 16  1  0  0  0
 16 17  1  0  0  0
 17 18  1  0  0  0
 18 19  1  0  0  0
 29 30  1  0  0  0
 29 31  1  0  0  0
M  END
> <minimizedAffinity>
-9.84378

$$$$
2003


 28 31  0  0  0  0  0  0  0  0999 V2000
   21.5120   78.2943   15.7653 N   0  0  0  0  0  0  0  0  0  0  0  0
   21.1310   77.3549   14.7557 C   0  0  0  0  0  0  0  0  0  0  0  0
   20.9038   77.9867   13.4078 C   0  0  0  0  0  0  0  0  0  0  0  0
   21.8222   79.0711   13.1468 N   0  0  0  0  0  0  0  0  0  0  0  0
   22.8579   79.4731   14.0610 C   0  0  0  0  0  0  0  0  0  0  0  0
   22.6585   79.0790   15.4748 C   0  0  0  0  0  0  0  0  0  0  0  0
   21.6955   79.7764   11.9195 C   0  0  0  0  0  0  0  0  0  0  0  0
   22.4762   80.7433   11.6295 O   0  0  0  0  0  0  0  0  0  0  0  0
   20.6629   79.4154   10.9483 C   0  0  0  0  0  0  0  0  0  0  0  0
   19.4202   80.0154   10.9078 C   0  0  0  0  0  0  0  0  0  0  0  0
   18.5190   79.6327    9.9842 N   0  0  0  0  0  0  0  0  0  0  0  0
   18.7573   78.6748    9.0699 C   0  0  0  0  0  0  0  0  0  0  0  0
   19.9643   78.0807    9.0955 N   0  0  0  0  0  0  0  0  0  0  0  0
   20.2225   77.1189    8.1868 C   0  0  0  0  0  0  0  0  0  0  0  0
   19.2934   76.7306    7.2429 C   0  0  0  0  0  0  0  0  0  0  0  0
   18.0455   77.3215    7.1900 C   0  0  0  0  0  0  0  0  0  0  0  0
   17.8020   78.3064    8.1314 C   0  0  0  0  0  0  0  0  0  0  0  0
   20.8931   78.4351   10.0040 C   0  0  0  0  0  0  0  0  0  0  0  0
   22.0192   77.8808   10.0284 O   0  0  0  0  0  0  0  0  0  0  0  0
   21.4175   77.7053   17.3499 S   0  0  0  0  0  0  0  0  0  0  0  0
   20.7067   76.4075   17.3984 O   0  0  0  0  0  0  0  0  0  0  0  0
   22.8200   77.5408   17.8908 O   0  0  0  0  0  0  0  0  0  0  0  0
   20.5672   78.8961   18.3491 C   0  0  0  0  0  0  0  0  0  0  0  0
   20.6532   80.5981   18.3149 S   0  0  0  0  0  0  0  0  0  0  0  0
   19.5498   80.9495   19.5666 C   0  0  0  0  0  0  0  0  0  0  0  0
   19.1431   79.7103   19.9775 C   0  0  0  0  0  0  0  0  0  0  0  0
   19.6654   78.6505   19.3528 C   0  0  0  0  0  0  0  0  0  0  0  0
   19.0271   82.5196   20.2099 Cl  0  0  0  0  0  0  0  0  0  0  0  0
 20 21  2  0  0  0
 20 22  2  0  0  0
 20  1  1  0  0  0
 20 23  1  0  0  0
  1  2  1  0  0  0
  1  6  1  0  0  0
  2  3  1  0  0  0
  3  4  1  0  0  0
  4  5  1  0  0  0
  4  7  1  0  0  0
  5  6  1  0  0  0
  7  8  2  0  0  0
  7  9  1  0  0  0
  9 10  2  0  0  0
  9 18  1  0  0  0
 10 11  1  0  0  0
 11 12  2  0  0  0
 12 13  1  0  0  0
 12 17  1  0  0  0
 13 14  1  0  0  0
 13 18  1  0  0  0
 14 15  2  0  0  0
 15 16  1  0  0  0
 16 17  2  0  0  0
 18 19  2  0  0  0
 23 24  1  0  0  0
 23 27  2  0  0  0
 24 25  1  0  0  0
 25 26  2  0  0  0
 25 28  1  0  0  0
 26 27  1  0  0  0
M  END
> <minimizedAffinity>
-9.37391

$$$$
2004


 29 32  0  0  0  0  0  0  0  0999 V2000
   21.5259   78.2373   17.0909 S   0  0  0  0  0  0  0  0  0  0  0  0
   22.6101   77.6013   17.9477 O   0  0  0  0  0  0  0  0  0  0  0  0
   20.5371   77.0992   16.8439 O   0  0  0  0  0  0  0  0  0  0  0  0
   20.6871   79.4236   18.0665 C   0  0  0  0  0  0  0  0  0  0  0  0
   20.6419   80.7587   17.6175 C   0  0  0  0  0  0  0  0  0  0  0  0
   20.0488   81.7480   18.3684 C   0  0  0  0  0  0  0  0  0  0  0  0
   19.4695   81.5013   19.5923 C   0  0  0  0  0  0  0  0  0  0  0  0
   19.5091   80.2018   20.0331 C   0  0  0  0  0  0  0  0  0  0  0  0
   20.1073   79.1790   19.2826 C   0  0  0  0  0  0  0  0  0  0  0  0
   20.0489   77.5378   19.8791 Cl  0  0  0  0  0  0  0  0  0  0  0  0
   18.8783   82.5644   20.3161 N   0  0  0  0  0  0  0  0  0  0  0  0
   18.8577   83.8994   19.8269 C   0  0  0  0  0  0  0  0  0  0  0  0
   18.1437   84.8149   20.2792 O   0  0  0  0  0  0  0  0  0  0  0  0
   19.7686   84.1928   18.6891 C   0  0  0  0  0  0  0  0  0  0  0  0
   20.0172   83.0621   17.9003 O   0  0  0  0  0  0  0  0  0  0  0  0
   21.0937   84.7242   19.1870 C   0  0  0  0  0  0  0  0  0  0  0  0
   18.4390   82.3705   21.2460 H   0  0  0  0  0  0  0  0  0  0  0  0
   22.1327   78.7652   15.6231 N   0  0  0  0  0  0  0  0  0  0  0  0
   21.9101   80.0937   15.2537 C   0  0  0  0  0  0  0  0  0  0  0  0
   22.7387   80.5205   14.0333 C   0  0  0  0  0  0  0  0  0  0  0  0
   22.8293   79.4693   13.0645 N   0  0  0  0  0  0  0  0  0  0  0  0
   23.1075   78.1307   13.5371 C   0  0  0  0  0  0  0  0  0  0  0  0
   22.0329   77.7997   14.5540 C   0  0  0  0  0  0  0  0  0  0  0  0
   22.6521   79.7409   11.7028 C   0  0  0  0  0  0  0  0  0  0  0  0
   22.4104   80.9122   11.3155 O   0  0  0  0  0  0  0  0  0  0  0  0
   22.7380   78.6758   10.6543 C   0  0  0  0  0  0  0  0  0  0  0  0
   24.1095   78.5449   10.0350 C   0  0  0  0  0  0  0  0  0  0  0  0
   23.6545   79.5477    8.9773 C   0  0  0  0  0  0  0  0  0  0  0  0
   22.2149   79.1570    9.3245 C   0  0  0  0  0  0  0  0  0  0  0  0
  1  2  2  0  0  0
  1  3  2  0  0  0
  1 18  1  0  0  0
  1  4  1  0  0  0
 18 19  1  0  0  0
 18 23  1  0  0  0
 19 20  1  0  0  0
 20 21  1  0  0  0
 21 22  1  0  0  0
 21 24  1  0  0  0
 22 23  1  0  0  0
 24 25  2  0  0  0
 24 26  1  0  0  0
 26 27  1  0  0  0
 26 29  1  0  0  0
 27 28  1  0  0  0
 28 29  1  0  0  0
  4  5  2  0  0  0
  4  9  1  0  0  0
  5  6  1  0  0  0
  6  7  2  0  0  0
  6 15  1  0  0  0
  7  8  1  0  0  0
  7 11  1  0  0  0
  8  9  2  0  0  0
  9 10  1  0  0  0
 11 12  1  0  0  0
 12 13  2  0  0  0
 12 14  1  0  0  0
 14 15  1  0  0  0
 14 16  1  0  0  0
 11 17  1  0  0  0
M  END
> <minimizedAffinity>
-10.69914

$$$$
2012


 25 28  0  0  0  0  0  0  0  0999 V2000
   19.9780   80.7527   18.9341 N   0  0  0  0  0  0  0  0  0  0  0  0
   19.4501   79.5441   19.4689 C   0  0  0  0  0  0  0  0  0  0  0  0
   18.4440   79.4773   20.1950 O   0  0  0  0  0  0  0  0  0  0  0  0
   20.2827   78.4132   19.0258 C   0  0  0  0  0  0  0  0  0  0  0  0
   19.6677   77.2338   18.7532 O   0  0  0  0  0  0  0  0  0  0  0  0
   20.4051   76.7494   17.6885 N   0  0  0  0  0  0  0  0  0  0  0  0
   20.7415   77.8529   16.8438 C   0  0  0  0  0  0  0  0  0  0  0  0
   20.6649   78.8991   17.6586 C   0  0  0  0  0  0  0  0  0  0  0  0
   20.7564   80.3466   17.7780 C   0  0  0  0  0  0  0  0  0  0  0  0
   21.4128   81.0712   16.9875 O   0  0  0  0  0  0  0  0  0  0  0  0
   20.6556   75.7548   17.5679 H   0  0  0  0  0  0  0  0  0  0  0  0
   18.6946   84.2893   22.5111 Cl  0  0  0  0  0  0  0  0  0  0  0  0
   19.2657   83.7931   20.9206 C   0  0  0  0  0  0  0  0  0  0  0  0
   19.3796   82.4422   20.6037 C   0  0  0  0  0  0  0  0  0  0  0  0
   19.8264   82.1052   19.3475 C   0  0  0  0  0  0  0  0  0  0  0  0
   20.1597   83.0965   18.4110 C   0  0  0  0  0  0  0  0  0  0  0  0
   20.0460   84.4168   18.7281 C   0  0  0  0  0  0  0  0  0  0  0  0
   19.5936   84.7582   19.9917 C   0  0  0  0  0  0  0  0  0  0  0  0
   21.1300   77.8419   15.4474 C   0  0  0  0  0  0  0  0  0  0  0  0
   22.0824   78.7319   14.9423 C   0  0  0  0  0  0  0  0  0  0  0  0
   22.2452   78.5190   13.6283 N   0  0  0  0  0  0  0  0  0  0  0  0
   21.4314   77.5245   13.2690 N   0  0  0  0  0  0  0  0  0  0  0  0
   20.7508   77.1072   14.3617 C   0  0  0  0  0  0  0  0  0  0  0  0
   19.7316   76.0280   14.3829 C   0  0  0  0  0  0  0  0  0  0  0  0
   23.1252   79.2038   12.6877 C   0  0  0  0  0  0  0  0  0  0  0  0
 12 13  1  0  0  0
 13 14  2  0  0  0
 13 18  1  0  0  0
 14 15  1  0  0  0
 15 16  2  0  0  0
 15  1  1  0  0  0
 16 17  1  0  0  0
 17 18  2  0  0  0
  1  2  1  0  0  0
  1  9  1  0  0  0
  2  3  2  0  0  0
  2  4  1  0  0  0
  4  5  1  0  0  0
  4  8  1  0  0  0
  5  6  1  0  0  0
  6  7  1  0  0  0
  7  8  2  0  0  0
  7 19  1  0  0  0
  8  9  1  0  0  0
  9 10  2  0  0  0
 19 20  2  0  0  0
 19 23  1  0  0  0
 20 21  1  0  0  0
 21 22  1  0  0  0
 21 25  1  0  0  0
 22 23  2  0  0  0
 23 24  1  0  0  0
  6 11  1  0  0  0
M  END
> <minimizedAffinity>
-10.79451

$$$$
2014


 26 29  0  0  0  0  0  0  0  0999 V2000
   22.1448   79.5312   13.8683 C   0  0  0  0  0  0  0  0  0  0  0  0
   21.4935   78.7802   12.9848 N   0  0  0  0  0  0  0  0  0  0  0  0
   21.6489   79.2966   11.7307 C   0  0  0  0  0  0  0  0  0  0  0  0
   22.4271   80.3919   11.8938 N   0  0  0  0  0  0  0  0  0  0  0  0
   22.7288   80.5438   13.1545 N   0  0  0  0  0  0  0  0  0  0  0  0
   20.9993   78.5478   10.8266 N   0  0  0  0  0  0  0  0  0  0  0  0
   20.4104   77.5345   11.4506 C   0  0  0  0  0  0  0  0  0  0  0  0
   20.7218   77.6775   12.8130 C   0  0  0  0  0  0  0  0  0  0  0  0
   20.2649   76.7766   13.6923 N   0  0  0  0  0  0  0  0  0  0  0  0
   19.5059   75.7511   13.2204 C   0  0  0  0  0  0  0  0  0  0  0  0
   19.0845   74.9131   14.0772 O   0  0  0  0  0  0  0  0  0  0  0  0
   19.1811   75.5720   11.9428 N   0  0  0  0  0  0  0  0  0  0  0  0
   19.6365   76.4656   11.0631 C   0  0  0  0  0  0  0  0  0  0  0  0
   19.3593   76.3439    9.8420 O   0  0  0  0  0  0  0  0  0  0  0  0
   18.3516   74.4327   11.5134 C   0  0  0  0  0  0  0  0  0  0  0  0
   20.5753   76.8408   15.0908 C   0  0  0  0  0  0  0  0  0  0  0  0
   20.9340   78.7835    9.3987 C   0  0  0  0  0  0  0  0  0  0  0  0
   20.3073   80.7287   18.7350 Br  0  0  0  0  0  0  0  0  0  0  0  0
   21.5479   79.8979   17.5305 C   0  0  0  0  0  0  0  0  0  0  0  0
   21.4140   80.0518   16.1780 C   0  0  0  0  0  0  0  0  0  0  0  0
   22.3211   79.4438   15.3140 C   0  0  0  0  0  0  0  0  0  0  0  0
   23.3301   78.7011   15.8912 C   0  0  0  0  0  0  0  0  0  0  0  0
   23.4544   78.5546   17.2411 C   0  0  0  0  0  0  0  0  0  0  0  0
   22.5593   79.1538   18.1118 C   0  0  0  0  0  0  0  0  0  0  0  0
   24.2358   78.0951   14.9923 O   0  0  0  0  0  0  0  0  0  0  0  0
   24.9359   76.9181   15.3505 C   0  0  0  0  0  0  0  0  0  0  0  0
 18 19  1  0  0  0
 19 20  2  0  0  0
 19 24  1  0  0  0
 20 21  1  0  0  0
 21 22  2  0  0  0
 21  1  1  0  0  0
 22 23  1  0  0  0
 22 25  1  0  0  0
 23 24  2  0  0  0
 25 26  1  0  0  0
  1  2  1  0  0  0
  1  5  2  0  0  0
  2  3  1  0  0  0
  2  8  1  0  0  0
  3  4  2  0  0  0
  3  6  1  0  0  0
  4  5  1  0  0  0
  6  7  1  0  0  0
  6 17  1  0  0  0
  7  8  2  0  0  0
  7 13  1  0  0  0
  8  9  1  0  0  0
  9 10  1  0  0  0
  9 16  1  0  0  0
 10 11  2  0  0  0
 10 12  1  0  0  0
 12 13  1  0  0  0
 12 15  1  0  0  0
 13 14  2  0  0  0
M  END
> <minimizedAffinity>
-9.11433

$$$$
2017


 24 27  0  0  0  0  0  0  0  0999 V2000
   19.9712   83.5630   21.3349 Cl  0  0  0  0  0  0  0  0  0  0  0  0
   20.0154   82.3581   20.0588 C   0  0  0  0  0  0  0  0  0  0  0  0
   19.8363   81.0108   20.3073 C   0  0  0  0  0  0  0  0  0  0  0  0
   19.8728   80.0864   19.3123 N   0  0  0  0  0  0  0  0  0  0  0  0
   20.0833   80.4168   18.0265 C   0  0  0  0  0  0  0  0  0  0  0  0
   20.1214   79.5085   17.0339 N   0  0  0  0  0  0  0  0  0  0  0  0
   19.9490   78.1951   17.2668 C   0  0  0  0  0  0  0  0  0  0  0  0
   19.7284   77.8423   18.5993 C   0  0  0  0  0  0  0  0  0  0  0  0
   19.6922   78.7813   19.6076 C   0  0  0  0  0  0  0  0  0  0  0  0
   19.4917   78.4539   20.8214 O   0  0  0  0  0  0  0  0  0  0  0  0
   20.2661   81.7651   17.7486 C   0  0  0  0  0  0  0  0  0  0  0  0
   20.2327   82.7191   18.7458 C   0  0  0  0  0  0  0  0  0  0  0  0
   19.9817   77.1557   16.2055 C   0  0  0  0  0  0  0  0  0  0  0  0
   21.3029   77.0344   15.7107 N   0  0  0  0  0  0  0  0  0  0  0  0
   22.3183   77.7869   16.3457 C   0  0  0  0  0  0  0  0  0  0  0  0
   23.4756   78.1714   15.4371 C   0  0  0  0  0  0  0  0  0  0  0  0
   22.8588   78.7597   14.2187 C   0  0  0  0  0  0  0  0  0  0  0  0
   21.8269   78.0356   13.6591 C   0  0  0  0  0  0  0  0  0  0  0  0
   21.2379   78.5269   12.5586 N   0  0  0  0  0  0  0  0  0  0  0  0
   21.6573   79.7121   12.0177 C   0  0  0  0  0  0  0  0  0  0  0  0
   22.6736   80.3955   12.5956 N   0  0  0  0  0  0  0  0  0  0  0  0
   23.3074   79.9546   13.7048 C   0  0  0  0  0  0  0  0  0  0  0  0
   21.0124   80.2669   10.7994 C   0  0  0  0  0  0  0  0  0  0  0  0
   21.4493   76.7631   14.3209 C   0  0  0  0  0  0  0  0  0  0  0  0
  1  2  1  0  0  0
  2  3  2  0  0  0
  2 12  1  0  0  0
  3  4  1  0  0  0
  4  5  1  0  0  0
  4  9  1  0  0  0
  5  6  2  0  0  0
  5 11  1  0  0  0
  6  7  1  0  0  0
  7  8  2  0  0  0
  7 13  1  0  0  0
  8  9  1  0  0  0
  9 10  2  0  0  0
 13 14  1  0  0  0
 14 15  1  0  0  0
 14 24  1  0  0  0
 15 16  1  0  0  0
 16 17  1  0  0  0
 17 18  2  0  0  0
 17 22  1  0  0  0
 18 19  1  0  0  0
 18 24  1  0  0  0
 19 20  2  0  0  0
 20 21  1  0  0  0
 20 23  1  0  0  0
 21 22  2  0  0  0
 11 12  2  0  0  0
M  END
> <minimizedAffinity>
-9.33742

$$$$
2020


 22 24  0  0  0  0  0  0  0  0999 V2000
   22.3875   78.5194   17.6908 C   0  0  0  0  0  0  0  0  0  0  0  0
   23.2970   79.6816   17.2043 C   0  0  0  0  0  0  0  0  0  0  0  0
   22.2757   80.3637   16.2737 C   0  0  0  0  0  0  0  0  0  0  0  0
   22.0447   81.5592   16.2805 O   0  0  0  0  0  0  0  0  0  0  0  0
   21.6477   79.3901   15.4085 N   0  0  0  0  0  0  0  0  0  0  0  0
   22.4026   78.1302   15.2773 C   0  0  0  0  0  0  0  0  0  0  0  0
   23.7799   78.5882   15.0468 N   0  0  0  0  0  0  0  0  0  0  0  0
   24.3250   79.2265   16.2188 C   0  0  0  0  0  0  0  0  0  0  0  0
   25.5436   79.3944   16.4084 O   0  0  0  0  0  0  0  0  0  0  0  0
   22.4273   77.4907   16.6920 C   0  0  0  0  0  0  0  0  0  0  0  0
   21.9098   77.1964   14.2620 C   0  0  0  0  0  0  0  0  0  0  0  0
   20.7512   79.5385   14.9378 H   0  0  0  0  0  0  0  0  0  0  0  0
   24.2740   78.4644   14.1558 H   0  0  0  0  0  0  0  0  0  0  0  0
   20.4023   82.4171   20.6626 Br  0  0  0  0  0  0  0  0  0  0  0  0
   20.1799   80.9613   19.4589 C   0  0  0  0  0  0  0  0  0  0  0  0
   21.2983   80.2909   18.9588 C   0  0  0  0  0  0  0  0  0  0  0  0
   21.1627   79.2103   18.0777 C   0  0  0  0  0  0  0  0  0  0  0  0
   19.8659   78.8626   17.7427 C   0  0  0  0  0  0  0  0  0  0  0  0
   18.7706   79.5398   18.2501 C   0  0  0  0  0  0  0  0  0  0  0  0
   18.9205   80.5929   19.1080 C   0  0  0  0  0  0  0  0  0  0  0  0
   19.7511   77.8144   16.8748 O   0  0  0  0  0  0  0  0  0  0  0  0
   18.5794   77.0446   16.8579 C   0  0  0  0  0  0  0  0  0  0  0  0
 14 15  1  0  0  0
 15 16  2  0  0  0
 15 20  1  0  0  0
 16 17  1  0  0  0
 17 18  2  0  0  0
 17  1  1  0  0  0
 18 19  1  0  0  0
 18 21  1  0  0  0
 19 20  2  0  0  0
 21 22  1  0  0  0
  1  2  1  0  0  0
  1 10  1  0  0  0
  2  3  1  0  0  0
  2  8  1  0  0  0
  3  4  2  0  0  0
  3  5  1  0  0  0
  5  6  1  0  0  0
  6  7  1  0  0  0
  6 10  1  0  0  0
  6 11  1  0  0  0
  7  8  1  0  0  0
  8  9  2  0  0  0
  5 12  1  0  0  0
  7 13  1  0  0  0
M  END
> <minimizedAffinity>
-7.87545

$$$$
2028


 31 34  0  0  0  0  0  0  0  0999 V2000
   20.0557   79.3262    9.7192 Cl  0  0  0  0  0  0  0  0  0  0  0  0
   20.2077   78.3319   11.1655 C   0  0  0  0  0  0  0  0  0  0  0  0
   20.9825   78.8268   12.2302 C   0  0  0  0  0  0  0  0  0  0  0  0
   21.0933   78.0569   13.3497 C   0  0  0  0  0  0  0  0  0  0  0  0
   20.4752   76.8185   13.4523 C   0  0  0  0  0  0  0  0  0  0  0  0
   19.7255   76.3598   12.3934 C   0  0  0  0  0  0  0  0  0  0  0  0
   19.5829   77.1073   11.2459 C   0  0  0  0  0  0  0  0  0  0  0  0
   19.0666   75.0137   12.5312 C   0  0  0  0  0  0  0  0  0  0  0  0
   21.8495   78.8580   14.3611 C   0  0  0  0  0  0  0  0  0  0  0  0
   22.7379   78.1201   15.1669 N   0  0  0  0  0  0  0  0  0  0  0  0
   21.9891   77.6717   16.3065 C   0  0  0  0  0  0  0  0  0  0  0  0
   20.6801   78.3498   16.3253 C   0  0  0  0  0  0  0  0  0  0  0  0
   20.9159   79.4979   15.3404 C   0  0  0  0  0  0  0  0  0  0  0  0
   21.5519   80.4753   16.2046 C   0  0  0  0  0  0  0  0  0  0  0  0
   22.4799   81.2969   16.0381 O   0  0  0  0  0  0  0  0  0  0  0  0
   20.8601   80.3494   17.4750 N   0  0  0  0  0  0  0  0  0  0  0  0
   20.2949   79.0490   17.5450 C   0  0  0  0  0  0  0  0  0  0  0  0
   19.6071   78.6183   18.4811 O   0  0  0  0  0  0  0  0  0  0  0  0
   22.4673   79.9133   13.5614 C   0  0  0  0  0  0  0  0  0  0  0  0
   23.4346   80.6984   13.8146 O   0  0  0  0  0  0  0  0  0  0  0  0
   21.8044   79.9843   12.3207 N   0  0  0  0  0  0  0  0  0  0  0  0
   23.1859   77.3191   14.6599 H   0  0  0  0  0  0  0  0  0  0  0  0
   21.8616   80.7172   11.5690 H   0  0  0  0  0  0  0  0  0  0  0  0
   22.7925   77.7582   17.5907 C   0  0  0  0  0  0  0  0  0  0  0  0
   22.2993   77.0321   18.6337 O   0  0  0  0  0  0  0  0  0  0  0  0
   24.2412   77.5736   17.2797 C   0  0  0  0  0  0  0  0  0  0  0  0
   22.9817   76.5295   19.1471 H   0  0  0  0  0  0  0  0  0  0  0  0
   20.7269   81.3373   18.5129 C   0  0  0  0  0  0  0  0  0  0  0  0
   19.9947   82.5716   18.1376 C   0  0  0  0  0  0  0  0  0  0  0  0
   20.7238   83.6977   17.9016 O   0  0  0  0  0  0  0  0  0  0  0  0
   20.2600   84.8403   18.5200 C   0  0  0  0  0  0  0  0  0  0  0  0
  1  2  1  0  0  0
  2  3  2  0  0  0
  2  7  1  0  0  0
  3  4  1  0  0  0
  3 21  1  0  0  0
  4  5  2  0  0  0
  4  9  1  0  0  0
  5  6  1  0  0  0
  6  7  2  0  0  0
  6  8  1  0  0  0
  9 10  1  0  0  0
  9 13  1  0  0  0
  9 19  1  0  0  0
 10 11  1  0  0  0
 11 12  1  0  0  0
 11 24  1  0  0  0
 12 13  1  0  0  0
 12 17  1  0  0  0
 13 14  1  0  0  0
 14 15  2  0  0  0
 14 16  1  0  0  0
 16 17  1  0  0  0
 16 28  1  0  0  0
 17 18  2  0  0  0
 28 29  1  0  0  0
 29 30  1  0  0  0
 30 31  1  0  0  0
 24 25  1  0  0  0
 24 26  1  0  0  0
 19 20  2  0  0  0
 19 21  1  0  0  0
 10 22  1  0  0  0
 25 27  1  0  0  0
 21 23  1  0  0  0
M  END
> <minimizedAffinity>
-8.32405

$$$$
2032


 31 34  0  0  0  0  0  0  0  0999 V2000
   21.1856   78.5980   10.4613 C   0  0  0  0  0  0  0  0  0  0  0  0
   21.2650   78.3299   11.7246 C   0  0  0  0  0  0  0  0  0  0  0  0
   20.4371   77.5110   12.4401 O   0  0  0  0  0  0  0  0  0  0  0  0
   20.8631   77.4798   13.7665 C   0  0  0  0  0  0  0  0  0  0  0  0
   21.9552   78.2600   13.9725 C   0  0  0  0  0  0  0  0  0  0  0  0
   22.5513   78.3530   15.2353 C   0  0  0  0  0  0  0  0  0  0  0  0
   22.0682   77.6717   16.3219 C   0  0  0  0  0  0  0  0  0  0  0  0
   20.9339   76.8824   16.0597 C   0  0  0  0  0  0  0  0  0  0  0  0
   20.3379   76.7670   14.8505 C   0  0  0  0  0  0  0  0  0  0  0  0
   20.4660   76.2168   17.2124 O   0  0  0  0  0  0  0  0  0  0  0  0
   22.2633   78.8453   12.6630 C   0  0  0  0  0  0  0  0  0  0  0  0
   23.2130   79.6399   12.4019 O   0  0  0  0  0  0  0  0  0  0  0  0
   19.5536   74.6159    7.2909 Br  0  0  0  0  0  0  0  0  0  0  0  0
   19.4082   76.3518    8.0443 C   0  0  0  0  0  0  0  0  0  0  0  0
   20.3343   76.8344    8.9864 C   0  0  0  0  0  0  0  0  0  0  0  0
   20.2001   78.0908    9.5172 C   0  0  0  0  0  0  0  0  0  0  0  0
   19.1504   78.8858    9.1191 C   0  0  0  0  0  0  0  0  0  0  0  0
   18.2288   78.4025    8.1782 C   0  0  0  0  0  0  0  0  0  0  0  0
   18.3606   77.1568    7.6557 C   0  0  0  0  0  0  0  0  0  0  0  0
   19.0728   80.1161    9.6743 O   0  0  0  0  0  0  0  0  0  0  0  0
   18.1474   80.5692   10.6011 C   0  0  0  0  0  0  0  0  0  0  0  0
   19.1187   75.9805   14.5843 C   0  0  0  0  0  0  0  0  0  0  0  0
   19.3968   74.8379   13.7468 N   0  0  0  0  0  0  0  0  0  0  0  0
   18.4024   74.7650   12.6913 C   0  0  0  0  0  0  0  0  0  0  0  0
   17.9481   73.4076   12.3575 C   0  0  0  0  0  0  0  0  0  0  0  0
   18.9028   72.3602   12.5339 N   0  0  0  0  0  0  0  0  0  0  0  0
   20.0975   72.6615   13.1816 C   0  0  0  0  0  0  0  0  0  0  0  0
   19.8287   73.6643   14.3348 C   0  0  0  0  0  0  0  0  0  0  0  0
   20.2964   75.2108   13.1916 H   0  0  0  0  0  0  0  0  0  0  0  0
   18.3943   71.0462   12.6452 C   0  0  0  0  0  0  0  0  0  0  0  0
   16.9819   70.8643   12.2132 C   0  0  0  0  0  0  0  0  0  0  0  0
 13 14  1  0  0  0
 14 15  2  0  0  0
 14 19  1  0  0  0
 15 16  1  0  0  0
 16 17  2  0  0  0
 16  1  1  0  0  0
 17 18  1  0  0  0
 17 20  1  0  0  0
 18 19  2  0  0  0
 20 21  1  0  0  0
  1  2  2  0  0  0
  2  3  1  0  0  0
  2 11  1  0  0  0
  3  4  1  0  0  0
  4  5  2  0  0  0
  4  9  1  0  0  0
  5  6  1  0  0  0
  5 11  1  0  0  0
  6  7  2  0  0  0
  7  8  1  0  0  0
  8  9  2  0  0  0
  8 10  1  0  0  0
  9 22  1  0  0  0
 22 23  1  0  0  0
 23 24  1  0  0  0
 23 28  1  0  0  0
 24 25  1  0  0  0
 25 26  1  0  0  0
 26 27  1  0  0  0
 26 30  1  0  0  0
 27 28  1  0  0  0
 30 31  1  0  0  0
 11 12  2  0  0  0
 23 29  1  0  0  0
M  CHG 1  10  -1
M  CHG 1  23   1
M  END
> <minimizedAffinity>
-8.95150

$$$$
2033


 29 32  0  0  0  0  0  0  0  0999 V2000
   19.4801   75.5784   14.2086 C   0  0  0  0  0  0  0  0  0  0  0  0
   20.1621   76.5949   14.6590 C   0  0  0  0  0  0  0  0  0  0  0  0
   20.7906   77.5355   13.8580 O   0  0  0  0  0  0  0  0  0  0  0  0
   21.4400   78.4986   14.6075 C   0  0  0  0  0  0  0  0  0  0  0  0
   21.2816   78.2528   15.9524 C   0  0  0  0  0  0  0  0  0  0  0  0
   21.8523   79.0958   16.8825 C   0  0  0  0  0  0  0  0  0  0  0  0
   22.5825   80.1836   16.4530 C   0  0  0  0  0  0  0  0  0  0  0  0
   22.7301   80.4125   15.0707 C   0  0  0  0  0  0  0  0  0  0  0  0
   22.1748   79.5952   14.1347 C   0  0  0  0  0  0  0  0  0  0  0  0
   23.4977   81.5524   14.7835 O   0  0  0  0  0  0  0  0  0  0  0  0
   20.4646   77.0367   16.0238 C   0  0  0  0  0  0  0  0  0  0  0  0
   20.0824   76.4606   17.0662 O   0  0  0  0  0  0  0  0  0  0  0  0
   19.4105   77.0854    9.0330 Br  0  0  0  0  0  0  0  0  0  0  0  0
   19.1964   75.8573   10.4733 C   0  0  0  0  0  0  0  0  0  0  0  0
   19.4168   76.1482   11.7887 C   0  0  0  0  0  0  0  0  0  0  0  0
   19.2543   75.2417   12.8132 C   0  0  0  0  0  0  0  0  0  0  0  0
   18.8375   73.9550   12.4588 C   0  0  0  0  0  0  0  0  0  0  0  0
   18.6024   73.6065   11.1572 C   0  0  0  0  0  0  0  0  0  0  0  0
   18.7836   74.5640   10.1662 C   0  0  0  0  0  0  0  0  0  0  0  0
   18.6621   73.0281   13.4678 O   0  0  0  0  0  0  0  0  0  0  0  0
   18.0882   71.7777   13.1909 C   0  0  0  0  0  0  0  0  0  0  0  0
   22.2757   79.7903   12.7145 C   0  0  0  0  0  0  0  0  0  0  0  0
   21.4585   79.1157   11.7913 N   0  0  0  0  0  0  0  0  0  0  0  0
   20.3770   79.8819   11.2345 C   0  0  0  0  0  0  0  0  0  0  0  0
   20.7788   80.7673   10.0809 C   0  0  0  0  0  0  0  0  0  0  0  0
   22.1457   80.7787    9.8397 O   0  0  0  0  0  0  0  0  0  0  0  0
   22.5069   79.4624    9.5731 C   0  0  0  0  0  0  0  0  0  0  0  0
   22.2329   78.5117   10.6918 C   0  0  0  0  0  0  0  0  0  0  0  0
   21.0418   78.2803   12.2514 H   0  0  0  0  0  0  0  0  0  0  0  0
 13 14  1  0  0  0
 14 15  2  0  0  0
 14 19  1  0  0  0
 15 16  1  0  0  0
 16 17  2  0  0  0
 16  1  1  0  0  0
 17 18  1  0  0  0
 17 20  1  0  0  0
 18 19  2  0  0  0
 20 21  1  0  0  0
  1  2  2  0  0  0
  2  3  1  0  0  0
  2 11  1  0  0  0
  3  4  1  0  0  0
  4  5  2  0  0  0
  4  9  1  0  0  0
  5  6  1  0  0  0
  5 11  1  0  0  0
  6  7  2  0  0  0
  7  8  1  0  0  0
  8  9  2  0  0  0
  8 10  1  0  0  0
  9 22  1  0  0  0
 22 23  1  0  0  0
 23 24  1  0  0  0
 23 28  1  0  0  0
 24 25  1  0  0  0
 25 26  1  0  0  0
 26 27  1  0  0  0
 27 28  1  0  0  0
 11 12  2  0  0  0
 23 29  1  0  0  0
M  CHG 1  10  -1
M  CHG 1  23   1
M  END
> <minimizedAffinity>
-9.75834

$$$$
2041


 30 33  0  0  0  0  0  0  0  0999 V2000
   19.4087   82.0579   18.7645 N   0  0  0  0  0  0  0  0  0  0  0  0
   18.9570   81.0431   19.6950 C   0  0  0  0  0  0  0  0  0  0  0  0
   18.8716   79.6890   19.0020 C   0  0  0  0  0  0  0  0  0  0  0  0
   20.2112   79.3490   18.5236 N   0  0  0  0  0  0  0  0  0  0  0  0
   21.1639   80.4177   18.5814 C   0  0  0  0  0  0  0  0  0  0  0  0
   20.5250   81.6382   17.9727 C   0  0  0  0  0  0  0  0  0  0  0  0
   20.4672   78.0503   18.0728 C   0  0  0  0  0  0  0  0  0  0  0  0
   19.5045   77.1802   18.0991 O   0  0  0  0  0  0  0  0  0  0  0  0
   19.7626   83.5142   19.6075 S   0  0  0  0  0  0  0  0  0  0  0  0
   20.9597   84.1346   18.9254 O   0  0  0  0  0  0  0  0  0  0  0  0
   18.6486   84.5014   19.5194 O   0  0  0  0  0  0  0  0  0  0  0  0
   20.1456   83.1479   21.2746 C   0  0  0  0  0  0  0  0  0  0  0  0
   21.2391   82.4147   21.6752 C   0  0  0  0  0  0  0  0  0  0  0  0
   21.4812   82.1525   23.0020 C   0  0  0  0  0  0  0  0  0  0  0  0
   20.6105   82.6334   23.9797 C   0  0  0  0  0  0  0  0  0  0  0  0
   19.4942   83.3798   23.5869 C   0  0  0  0  0  0  0  0  0  0  0  0
   19.2732   83.6299   22.2503 C   0  0  0  0  0  0  0  0  0  0  0  0
   20.9310   82.2934   25.6596 Cl  0  0  0  0  0  0  0  0  0  0  0  0
   21.7206   77.4945   17.5527 C   0  0  0  0  0  0  0  0  0  0  0  0
   22.0811   77.9357   15.8580 S   0  0  0  0  0  0  0  0  0  0  0  0
   21.0106   77.1633   14.6579 C   0  0  0  0  0  0  0  0  0  0  0  0
   20.2529   76.1224   14.9788 N   0  0  0  0  0  0  0  0  0  0  0  0
   19.4222   75.5204   14.1235 C   0  0  0  0  0  0  0  0  0  0  0  0
   19.3504   76.0040   12.8446 N   0  0  0  0  0  0  0  0  0  0  0  0
   20.1012   77.0515   12.4889 C   0  0  0  0  0  0  0  0  0  0  0  0
   20.2087   77.7205   11.3041 N   0  0  0  0  0  0  0  0  0  0  0  0
   21.0824   78.6944   11.4562 N   0  0  0  0  0  0  0  0  0  0  0  0
   21.5619   78.6991   12.7020 C   0  0  0  0  0  0  0  0  0  0  0  0
   20.9599   77.6713   13.3779 C   0  0  0  0  0  0  0  0  0  0  0  0
   19.4831   77.4158   10.1060 C   0  0  0  0  0  0  0  0  0  0  0  0
  9 10  2  0  0  0
  9 11  2  0  0  0
  9  1  1  0  0  0
  9 12  1  0  0  0
  1  2  1  0  0  0
  1  6  1  0  0  0
  2  3  1  0  0  0
  3  4  1  0  0  0
  4  5  1  0  0  0
  4  7  1  0  0  0
  5  6  1  0  0  0
  7  8  2  0  0  0
  7 19  1  0  0  0
 19 20  1  0  0  0
 20 21  1  0  0  0
 21 22  2  0  0  0
 21 29  1  0  0  0
 22 23  1  0  0  0
 23 24  2  0  0  0
 24 25  1  0  0  0
 25 26  1  0  0  0
 25 29  2  0  0  0
 26 27  1  0  0  0
 26 30  1  0  0  0
 27 28  2  0  0  0
 28 29  1  0  0  0
 12 13  2  0  0  0
 12 17  1  0  0  0
 13 14  1  0  0  0
 14 15  2  0  0  0
 15 16  1  0  0  0
 15 18  1  0  0  0
 16 17  2  0  0  0
M  END
> <minimizedAffinity>
-10.28821

$$$$
2043


 32 35  0  0  0  0  0  0  0  0999 V2000
   21.2657   79.3459   18.4323 N   0  0  0  0  0  0  0  0  0  0  0  0
   22.4612   79.4209   17.6293 C   0  0  0  0  0  0  0  0  0  0  0  0
   22.7336   78.0279   17.0656 C   0  0  0  0  0  0  0  0  0  0  0  0
   21.5173   77.4399   16.6478 N   0  0  0  0  0  0  0  0  0  0  0  0
   20.7044   76.9912   17.8640 C   0  0  0  0  0  0  0  0  0  0  0  0
   20.9065   78.0531   18.8846 C   0  0  0  0  0  0  0  0  0  0  0  0
   20.9538   77.2638   15.4177 C   0  0  0  0  0  0  0  0  0  0  0  0
   19.8306   76.4750   15.5333 O   0  0  0  0  0  0  0  0  0  0  0  0
   21.1347   77.6155   14.0643 C   0  0  0  0  0  0  0  0  0  0  0  0
   20.6968   77.3329   12.8821 C   0  0  0  0  0  0  0  0  0  0  0  0
   19.7094   76.3709   12.6222 N   0  0  0  0  0  0  0  0  0  0  0  0
   19.1746   76.0899   11.3449 N   0  0  0  0  0  0  0  0  0  0  0  0
   19.6468   76.8068   10.2411 C   0  0  0  0  0  0  0  0  0  0  0  0
   19.1798   76.5666    9.0972 O   0  0  0  0  0  0  0  0  0  0  0  0
   20.6862   77.8300   10.4516 C   0  0  0  0  0  0  0  0  0  0  0  0
   21.2043   78.1002   11.7046 C   0  0  0  0  0  0  0  0  0  0  0  0
   22.1592   79.0597   11.8098 C   0  0  0  0  0  0  0  0  0  0  0  0
   22.5913   79.7437   10.6690 C   0  0  0  0  0  0  0  0  0  0  0  0
   22.0813   79.4796    9.4227 C   0  0  0  0  0  0  0  0  0  0  0  0
   21.1124   78.5048    9.3210 C   0  0  0  0  0  0  0  0  0  0  0  0
   19.3450   75.7781   13.3711 H   0  0  0  0  0  0  0  0  0  0  0  0
   18.4271   75.3372   11.2737 H   0  0  0  0  0  0  0  0  0  0  0  0
   20.0233   80.3810   17.9786 S   0  0  0  0  0  0  0  0  0  0  0  0
   20.2176   80.7229   16.5071 O   0  0  0  0  0  0  0  0  0  0  0  0
   18.7147   79.6002   18.0206 O   0  0  0  0  0  0  0  0  0  0  0  0
   19.8300   81.7891   18.9458 C   0  0  0  0  0  0  0  0  0  0  0  0
   19.2661   81.7280   20.1953 C   0  0  0  0  0  0  0  0  0  0  0  0
   19.1212   82.8746   20.9552 C   0  0  0  0  0  0  0  0  0  0  0  0
   19.5282   84.1080   20.4979 C   0  0  0  0  0  0  0  0  0  0  0  0
   20.0977   84.1767   19.2366 C   0  0  0  0  0  0  0  0  0  0  0  0
   20.2385   83.0137   18.4823 C   0  0  0  0  0  0  0  0  0  0  0  0
   19.3211   85.5306   21.4996 Cl  0  0  0  0  0  0  0  0  0  0  0  0
 23 24  2  0  0  0
 23 25  2  0  0  0
 23  1  1  0  0  0
 23 26  1  0  0  0
  1  2  1  0  0  0
  1  6  1  0  0  0
  2  3  1  0  0  0
  3  4  1  0  0  0
  4  5  1  0  0  0
  4  7  1  0  0  0
  5  6  1  0  0  0
  7  8  2  0  0  0
  7  9  1  0  0  0
  9 10  2  0  0  0
 10 11  1  0  0  0
 10 16  1  0  0  0
 11 12  1  0  0  0
 12 13  1  0  0  0
 13 14  2  0  0  0
 13 15  1  0  0  0
 15 16  2  0  0  0
 15 20  1  0  0  0
 16 17  1  0  0  0
 17 18  2  0  0  0
 18 19  1  0  0  0
 19 20  2  0  0  0
 26 27  2  0  0  0
 26 31  1  0  0  0
 27 28  1  0  0  0
 28 29  2  0  0  0
 29 30  1  0  0  0
 29 32  1  0  0  0
 30 31  2  0  0  0
 11 21  1  0  0  0
 12 22  1  0  0  0
M  END
> <minimizedAffinity>
-11.09813

$$$$
2046


 26 29  0  0  0  0  0  0  0  0999 V2000
   23.3527   78.9496   17.6876 Cl  0  0  0  0  0  0  0  0  0  0  0  0
   22.3288   78.2204   16.4900 C   0  0  0  0  0  0  0  0  0  0  0  0
   21.0822   77.7487   16.8130 C   0  0  0  0  0  0  0  0  0  0  0  0
   20.3185   77.1800   15.8186 C   0  0  0  0  0  0  0  0  0  0  0  0
   20.7416   77.0602   14.5126 C   0  0  0  0  0  0  0  0  0  0  0  0
   21.9951   77.5387   14.2060 C   0  0  0  0  0  0  0  0  0  0  0  0
   22.7673   78.1090   15.1949 C   0  0  0  0  0  0  0  0  0  0  0  0
   20.5635   77.8158   18.1180 N   0  0  0  0  0  0  0  0  0  0  0  0
   20.7210   76.8828   19.0348 N   0  0  0  0  0  0  0  0  0  0  0  0
   20.1272   77.2435   20.1567 N   0  0  0  0  0  0  0  0  0  0  0  0
   19.5891   78.4246   19.9287 N   0  0  0  0  0  0  0  0  0  0  0  0
   19.8544   78.8060   18.6433 C   0  0  0  0  0  0  0  0  0  0  0  0
   19.3796   80.0711   18.0851 C   0  0  0  0  0  0  0  0  0  0  0  0
   19.2583   81.3294   18.8112 C   0  0  0  0  0  0  0  0  0  0  0  0
   20.4829   81.1535   17.8979 C   0  0  0  0  0  0  0  0  0  0  0  0
   19.9147   76.4569   13.4861 N   0  0  0  0  0  0  0  0  0  0  0  0
   19.5613   77.0054   12.6965 H   0  0  0  0  0  0  0  0  0  0  0  0
   19.6269   75.0731   13.6376 C   0  0  0  0  0  0  0  0  0  0  0  0
   18.9087   74.3910   12.5651 C   0  0  0  0  0  0  0  0  0  0  0  0
   18.3372   75.2285   11.7348 O   0  0  0  0  0  0  0  0  0  0  0  0
   18.7285   73.0618   12.2746 N   0  0  0  0  0  0  0  0  0  0  0  0
   19.3242   71.9573   12.9562 C   0  0  0  0  0  0  0  0  0  0  0  0
   18.2084   71.0716   13.5032 C   0  0  0  0  0  0  0  0  0  0  0  0
   17.5380   70.5915   12.3567 O   0  0  0  0  0  0  0  0  0  0  0  0
   16.8471   71.6403   11.7896 C   0  0  0  0  0  0  0  0  0  0  0  0
   17.8117   72.6655   11.1834 C   0  0  0  0  0  0  0  0  0  0  0  0
  1  2  1  0  0  0
  2  3  2  0  0  0
  2  7  1  0  0  0
  3  4  1  0  0  0
  3  8  1  0  0  0
  4  5  2  0  0  0
  5  6  1  0  0  0
  5 16  1  0  0  0
  6  7  2  0  0  0
 16 18  1  0  0  0
 18 19  1  0  0  0
 19 20  2  0  0  0
 19 21  1  0  0  0
 21 22  1  0  0  0
 21 26  1  0  0  0
 22 23  1  0  0  0
 23 24  1  0  0  0
 24 25  1  0  0  0
 25 26  1  0  0  0
  8  9  1  0  0  0
  8 12  1  0  0  0
  9 10  2  0  0  0
 10 11  1  0  0  0
 11 12  2  0  0  0
 12 13  1  0  0  0
 13 14  1  0  0  0
 13 15  1  0  0  0
 14 15  1  0  0  0
 16 17  1  0  0  0
M  END
> <minimizedAffinity>
-8.97509

$$$$
2063


 34 37  0  0  0  0  0  0  0  0999 V2000
   19.7804   76.8340   10.2348 C   0  0  0  0  0  0  0  0  0  0  0  0
   20.6173   77.9364   10.3802 C   0  0  0  0  0  0  0  0  0  0  0  0
   21.0808   78.3221   11.5454 O   0  0  0  0  0  0  0  0  0  0  0  0
   20.7935   77.7030   12.6660 C   0  0  0  0  0  0  0  0  0  0  0  0
   19.9722   76.6010   12.6225 C   0  0  0  0  0  0  0  0  0  0  0  0
   19.6986   75.9839   13.8187 C   0  0  0  0  0  0  0  0  0  0  0  0
   20.1987   76.4136   15.0216 C   0  0  0  0  0  0  0  0  0  0  0  0
   21.0432   77.5405   15.0884 C   0  0  0  0  0  0  0  0  0  0  0  0
   21.3120   78.1529   13.8873 C   0  0  0  0  0  0  0  0  0  0  0  0
   19.4681   76.1690   11.4147 C   0  0  0  0  0  0  0  0  0  0  0  0
   18.7155   75.1595   11.3732 O   0  0  0  0  0  0  0  0  0  0  0  0
   17.7454   74.9249    4.7228 Br  0  0  0  0  0  0  0  0  0  0  0  0
   18.3653   75.5333    6.4271 C   0  0  0  0  0  0  0  0  0  0  0  0
   18.0082   76.7631    6.9295 C   0  0  0  0  0  0  0  0  0  0  0  0
   18.4527   77.2151    8.1664 C   0  0  0  0  0  0  0  0  0  0  0  0
   19.2805   76.4267    8.9383 C   0  0  0  0  0  0  0  0  0  0  0  0
   19.6381   75.1891    8.4308 C   0  0  0  0  0  0  0  0  0  0  0  0
   19.1972   74.7392    7.2031 C   0  0  0  0  0  0  0  0  0  0  0  0
   21.5256   77.9403   16.3175 O   0  0  0  0  0  0  0  0  0  0  0  0
   20.8003   78.4736   17.3420 C   0  0  0  0  0  0  0  0  0  0  0  0
   21.1711   79.8087   17.6556 O   0  0  0  0  0  0  0  0  0  0  0  0
   20.0727   80.3580   18.2802 C   0  0  0  0  0  0  0  0  0  0  0  0
   19.7179   79.7202   19.5873 C   0  0  0  0  0  0  0  0  0  0  0  0
   19.7937   78.2133   19.5331 C   0  0  0  0  0  0  0  0  0  0  0  0
   20.9371   77.7365   18.6617 C   0  0  0  0  0  0  0  0  0  0  0  0
   20.8081   76.3624   18.4986 O   0  0  0  0  0  0  0  0  0  0  0  0
   19.8624   77.7045   20.8236 O   0  0  0  0  0  0  0  0  0  0  0  0
   18.3780   80.0439   19.8557 O   0  0  0  0  0  0  0  0  0  0  0  0
   21.4331   75.8783   19.0880 H   0  0  0  0  0  0  0  0  0  0  0  0
   19.6612   78.4044   21.5179 H   0  0  0  0  0  0  0  0  0  0  0  0
   17.8200   79.9204   19.0477 H   0  0  0  0  0  0  0  0  0  0  0  0
   20.1788   81.8522   18.4530 C   0  0  0  0  0  0  0  0  0  0  0  0
   20.1825   82.2246   19.7954 O   0  0  0  0  0  0  0  0  0  0  0  0
   20.4092   83.2067   19.7981 H   0  0  0  0  0  0  0  0  0  0  0  0
 12 13  1  0  0  0
 13 14  2  0  0  0
 13 18  1  0  0  0
 14 15  1  0  0  0
 15 16  2  0  0  0
 16 17  1  0  0  0
 16  1  1  0  0  0
 17 18  2  0  0  0
  1  2  2  0  0  0
  1 10  1  0  0  0
  2  3  1  0  0  0
  3  4  1  0  0  0
  4  5  2  0  0  0
  4  9  1  0  0  0
  5  6  1  0  0  0
  5 10  1  0  0  0
  6  7  2  0  0  0
  7  8  1  0  0  0
  8  9  2  0  0  0
  8 19  1  0  0  0
 19 20  1  0  0  0
 20 21  1  0  0  0
 20 25  1  0  0  0
 21 22  1  0  0  0
 22 23  1  0  0  0
 22 32  1  0  0  0
 23 24  1  0  0  0
 23 28  1  0  0  0
 24 25  1  0  0  0
 24 27  1  0  0  0
 25 26  1  0  0  0
 32 33  1  0  0  0
 10 11  2  0  0  0
 26 29  1  0  0  0
 27 30  1  0  0  0
 28 31  1  0  0  0
 33 34  1  0  0  0
M  END
> <minimizedAffinity>
-10.96451

$$$$
2072


 27 30  0  0  0  0  0  0  0  0999 V2000
   22.6367   77.7415   14.8081 N   0  0  0  0  0  0  0  0  0  0  0  0
   21.2331   77.5585   14.8808 C   0  0  0  0  0  0  0  0  0  0  0  0
   20.6243   77.3909   16.2438 C   0  0  0  0  0  0  0  0  0  0  0  0
   21.3752   78.1499   17.1886 N   0  0  0  0  0  0  0  0  0  0  0  0
   22.6933   77.5197   17.2566 C   0  0  0  0  0  0  0  0  0  0  0  0
   23.4029   77.7855   15.9819 C   0  0  0  0  0  0  0  0  0  0  0  0
   22.9797   79.1182   13.8308 S   0  0  0  0  0  0  0  0  0  0  0  0
   22.2495   80.3093   14.4097 O   0  0  0  0  0  0  0  0  0  0  0  0
   24.4276   79.4372   13.8143 O   0  0  0  0  0  0  0  0  0  0  0  0
   22.4667   78.8256   12.1623 C   0  0  0  0  0  0  0  0  0  0  0  0
   20.9012   78.5529   11.5452 S   0  0  0  0  0  0  0  0  0  0  0  0
   21.2822   78.3719    9.8960 C   0  0  0  0  0  0  0  0  0  0  0  0
   22.6419   78.5320    9.8722 C   0  0  0  0  0  0  0  0  0  0  0  0
   23.2522   78.7659   11.0401 C   0  0  0  0  0  0  0  0  0  0  0  0
   20.1140   78.0270    8.4021 Br  0  0  0  0  0  0  0  0  0  0  0  0
   20.7897   78.2618   18.4806 C   0  0  0  0  0  0  0  0  0  0  0  0
   19.4435   78.8998   18.4307 C   0  0  0  0  0  0  0  0  0  0  0  0
   19.4681   80.2772   18.8754 N   0  0  0  0  0  0  0  0  0  0  0  0
   18.9418   80.7748   19.9936 N   0  0  0  0  0  0  0  0  0  0  0  0
   19.1746   82.0922   20.0739 C   0  0  0  0  0  0  0  0  0  0  0  0
   19.8642   82.4389   18.9804 N   0  0  0  0  0  0  0  0  0  0  0  0
   20.2518   83.7201   18.7707 C   0  0  0  0  0  0  0  0  0  0  0  0
   19.9617   84.7280   19.6622 C   0  0  0  0  0  0  0  0  0  0  0  0
   19.2510   84.3987   20.7996 C   0  0  0  0  0  0  0  0  0  0  0  0
   18.8708   83.0873   20.9849 C   0  0  0  0  0  0  0  0  0  0  0  0
   20.0402   81.3032   18.2433 C   0  0  0  0  0  0  0  0  0  0  0  0
   20.6566   81.3211   17.1514 O   0  0  0  0  0  0  0  0  0  0  0  0
  7  8  2  0  0  0
  7  9  2  0  0  0
  7  1  1  0  0  0
  7 10  1  0  0  0
  1  2  1  0  0  0
  1  6  1  0  0  0
  2  3  1  0  0  0
  3  4  1  0  0  0
  4  5  1  0  0  0
  4 16  1  0  0  0
  5  6  1  0  0  0
 16 17  1  0  0  0
 17 18  1  0  0  0
 18 19  1  0  0  0
 18 26  1  0  0  0
 19 20  2  0  0  0
 20 21  1  0  0  0
 20 25  1  0  0  0
 21 22  1  0  0  0
 21 26  1  0  0  0
 22 23  2  0  0  0
 23 24  1  0  0  0
 24 25  2  0  0  0
 26 27  2  0  0  0
 10 11  1  0  0  0
 10 14  2  0  0  0
 11 12  1  0  0  0
 12 13  2  0  0  0
 12 15  1  0  0  0
 13 14  1  0  0  0
M  END
> <minimizedAffinity>
-9.54240

$$$$
2079


 31 34  0  0  0  0  0  0  0  0999 V2000
   19.3056   74.9234   12.9704 C   0  0  0  0  0  0  0  0  0  0  0  0
   19.3609   75.8703   11.9738 C   0  0  0  0  0  0  0  0  0  0  0  0
   20.1285   77.0247   12.1833 C   0  0  0  0  0  0  0  0  0  0  0  0
   20.8162   77.2261   13.3597 C   0  0  0  0  0  0  0  0  0  0  0  0
   21.6056   78.3372   13.6582 C   0  0  0  0  0  0  0  0  0  0  0  0
   21.6597   79.2865   12.6066 C   0  0  0  0  0  0  0  0  0  0  0  0
   20.9837   79.1178   11.4020 C   0  0  0  0  0  0  0  0  0  0  0  0
   20.2218   77.9778   11.2012 C   0  0  0  0  0  0  0  0  0  0  0  0
   22.3878   80.4569   12.6917 O   0  0  0  0  0  0  0  0  0  0  0  0
   20.7360   76.3250   14.2533 O   0  0  0  0  0  0  0  0  0  0  0  0
   20.0353   75.1928   14.1467 C   0  0  0  0  0  0  0  0  0  0  0  0
   19.9969   74.3617   15.0615 O   0  0  0  0  0  0  0  0  0  0  0  0
   16.2128   69.7962   11.9404 Cl  0  0  0  0  0  0  0  0  0  0  0  0
   17.1184   71.2805   12.3239 C   0  0  0  0  0  0  0  0  0  0  0  0
   16.4935   72.4887   12.6095 C   0  0  0  0  0  0  0  0  0  0  0  0
   17.2097   73.6506   12.8350 C   0  0  0  0  0  0  0  0  0  0  0  0
   18.6163   73.6322   12.7752 C   0  0  0  0  0  0  0  0  0  0  0  0
   19.1951   72.4445   12.5034 C   0  0  0  0  0  0  0  0  0  0  0  0
   18.5011   71.2703   12.2724 C   0  0  0  0  0  0  0  0  0  0  0  0
   22.4654   78.5377   14.7713 C   0  0  0  0  0  0  0  0  0  0  0  0
   22.9774   79.8159   15.1947 N   0  0  0  0  0  0  0  0  0  0  0  0
   22.0254   80.5136   16.1036 C   0  0  0  0  0  0  0  0  0  0  0  0
   21.4141   79.5361   17.0430 C   0  0  0  0  0  0  0  0  0  0  0  0
   22.3438   78.8423   17.9045 N   0  0  0  0  0  0  0  0  0  0  0  0
   23.6363   78.6950   17.3263 C   0  0  0  0  0  0  0  0  0  0  0  0
   24.0452   79.5306   16.2066 C   0  0  0  0  0  0  0  0  0  0  0  0
   23.4026   80.4321   14.5410 H   0  0  0  0  0  0  0  0  0  0  0  0
   21.8022   77.5284   18.2837 C   0  0  0  0  0  0  0  0  0  0  0  0
   20.4675   77.6432   18.9832 C   0  0  0  0  0  0  0  0  0  0  0  0
   20.3816   76.8374   20.1087 O   0  0  0  0  0  0  0  0  0  0  0  0
   20.7005   77.3735   20.9025 H   0  0  0  0  0  0  0  0  0  0  0  0
 13 14  1  0  0  0
 14 15  2  0  0  0
 14 19  1  0  0  0
 15 16  1  0  0  0
 16 17  2  0  0  0
 17 18  1  0  0  0
 17  1  1  0  0  0
 18 19  2  0  0  0
  1  2  2  0  0  0
  1 11  1  0  0  0
  2  3  1  0  0  0
  3  4  2  0  0  0
  3  8  1  0  0  0
  4  5  1  0  0  0
  4 10  1  0  0  0
  5  6  2  0  0  0
  5 20  1  0  0  0
  6  7  1  0  0  0
  6  9  1  0  0  0
  7  8  2  0  0  0
 20 21  1  0  0  0
 21 22  1  0  0  0
 21 26  1  0  0  0
 22 23  1  0  0  0
 23 24  1  0  0  0
 24 25  1  0  0  0
 24 28  1  0  0  0
 25 26  1  0  0  0
 28 29  1  0  0  0
 29 30  1  0  0  0
 10 11  1  0  0  0
 11 12  2  0  0  0
 21 27  1  0  0  0
 30 31  1  0  0  0
M  CHG 1   9  -1
M  CHG 1  21   1
M  END
> <minimizedAffinity>
-10.57473

$$$$
2087


 32 35  0  0  0  0  0  0  0  0999 V2000
   21.2864   77.6419   13.6624 N   0  0  0  0  0  0  0  0  0  0  0  0
   21.3990   78.6357   12.7218 C   0  0  0  0  0  0  0  0  0  0  0  0
   20.5043   78.4036   11.6960 C   0  0  0  0  0  0  0  0  0  0  0  0
   19.8697   77.2761   12.0308 N   0  0  0  0  0  0  0  0  0  0  0  0
   20.3441   76.8050   13.2276 C   0  0  0  0  0  0  0  0  0  0  0  0
   20.4253   79.2383   10.6416 N   0  0  0  0  0  0  0  0  0  0  0  0
   21.2404   80.3021   10.6123 C   0  0  0  0  0  0  0  0  0  0  0  0
   21.1579   81.0736    9.6238 O   0  0  0  0  0  0  0  0  0  0  0  0
   22.1212   80.5591   11.5853 N   0  0  0  0  0  0  0  0  0  0  0  0
   22.2292   79.7354   12.6708 C   0  0  0  0  0  0  0  0  0  0  0  0
   23.0676   80.0028   13.5649 O   0  0  0  0  0  0  0  0  0  0  0  0
   19.4664   78.9604    9.5880 C   0  0  0  0  0  0  0  0  0  0  0  0
   22.7551   81.3975   11.5447 H   0  0  0  0  0  0  0  0  0  0  0  0
   19.9139   75.5794   13.7604 N   0  0  0  0  0  0  0  0  0  0  0  0
   20.6319   74.3734   13.9706 C   0  0  0  0  0  0  0  0  0  0  0  0
   19.7239   73.1401   13.9114 C   0  0  0  0  0  0  0  0  0  0  0  0
   18.5386   73.2919   13.1730 N   0  0  0  0  0  0  0  0  0  0  0  0
   17.7699   74.4502   13.4081 C   0  0  0  0  0  0  0  0  0  0  0  0
   18.4934   75.5144   14.2011 C   0  0  0  0  0  0  0  0  0  0  0  0
   18.3542   72.5808   11.9762 C   0  0  0  0  0  0  0  0  0  0  0  0
   17.4576   71.4156   12.0103 C   0  0  0  0  0  0  0  0  0  0  0  0
   17.2782   70.7258   13.0491 O   0  0  0  0  0  0  0  0  0  0  0  0
   16.7754   71.0434   10.8719 O   0  0  0  0  0  0  0  0  0  0  0  0
   15.8146   70.0234   10.8656 C   0  0  0  0  0  0  0  0  0  0  0  0
   22.0551   77.5960   14.8798 C   0  0  0  0  0  0  0  0  0  0  0  0
   18.9693   79.9224   19.6969 Br  0  0  0  0  0  0  0  0  0  0  0  0
   19.9107   79.2031   18.2023 C   0  0  0  0  0  0  0  0  0  0  0  0
   19.8506   77.8601   17.9039 C   0  0  0  0  0  0  0  0  0  0  0  0
   20.5469   77.3508   16.8069 C   0  0  0  0  0  0  0  0  0  0  0  0
   21.2851   78.2023   16.0388 C   0  0  0  0  0  0  0  0  0  0  0  0
   21.3554   79.5361   16.3210 C   0  0  0  0  0  0  0  0  0  0  0  0
   20.6700   80.0383   17.3998 C   0  0  0  0  0  0  0  0  0  0  0  0
 26 27  1  0  0  0
 27 28  2  0  0  0
 27 32  1  0  0  0
 28 29  1  0  0  0
 29 30  2  0  0  0
 30 31  1  0  0  0
 30 25  1  0  0  0
 31 32  2  0  0  0
 25  1  1  0  0  0
  1  2  1  0  0  0
  1  5  1  0  0  0
  2  3  2  0  0  0
  2 10  1  0  0  0
  3  4  1  0  0  0
  3  6  1  0  0  0
  4  5  2  0  0  0
  5 14  1  0  0  0
 14 15  1  0  0  0
 14 19  1  0  0  0
 15 16  1  0  0  0
 16 17  1  0  0  0
 17 18  1  0  0  0
 17 20  1  0  0  0
 18 19  1  0  0  0
 20 21  1  0  0  0
 21 22  2  0  0  0
 21 23  1  0  0  0
 23 24  1  0  0  0
  6  7  1  0  0  0
  6 12  1  0  0  0
  7  8  2  0  0  0
  7  9  1  0  0  0
  9 10  1  0  0  0
 10 11  2  0  0  0
  9 13  1  0  0  0
M  END
> <minimizedAffinity>
-8.55765

$$$$
2091


 28 31  0  0  0  0  0  0  0  0999 V2000
   20.7315   77.0822   13.5095 N   0  0  0  0  0  0  0  0  0  0  0  0
   21.0205   78.0472   12.6242 C   0  0  0  0  0  0  0  0  0  0  0  0
   20.2405   77.8728   11.5029 C   0  0  0  0  0  0  0  0  0  0  0  0
   19.4978   76.8029   11.7415 N   0  0  0  0  0  0  0  0  0  0  0  0
   19.7728   76.3006   12.9534 C   0  0  0  0  0  0  0  0  0  0  0  0
   20.2848   78.6919   10.4223 N   0  0  0  0  0  0  0  0  0  0  0  0
   21.1434   79.7228   10.4775 C   0  0  0  0  0  0  0  0  0  0  0  0
   21.1727   80.4704    9.4675 O   0  0  0  0  0  0  0  0  0  0  0  0
   21.9289   79.9484   11.5448 N   0  0  0  0  0  0  0  0  0  0  0  0
   21.8933   79.1416   12.6216 C   0  0  0  0  0  0  0  0  0  0  0  0
   22.6014   79.3229   13.6215 O   0  0  0  0  0  0  0  0  0  0  0  0
   19.4281   78.4269    9.2858 C   0  0  0  0  0  0  0  0  0  0  0  0
   22.5907   80.7534   11.5796 H   0  0  0  0  0  0  0  0  0  0  0  0
   19.1757   75.1486   13.5633 N   0  0  0  0  0  0  0  0  0  0  0  0
   20.0399   74.0366   13.8920 C   0  0  0  0  0  0  0  0  0  0  0  0
   19.6208   72.8527   13.0329 C   0  0  0  0  0  0  0  0  0  0  0  0
   18.2704   72.9407   12.5869 N   0  0  0  0  0  0  0  0  0  0  0  0
   17.3646   73.6125   13.4581 C   0  0  0  0  0  0  0  0  0  0  0  0
   17.7754   75.0055   13.8613 C   0  0  0  0  0  0  0  0  0  0  0  0
   18.0463   73.0724   11.1975 C   0  0  0  0  0  0  0  0  0  0  0  0
   21.3307   76.8956   14.8085 C   0  0  0  0  0  0  0  0  0  0  0  0
   19.0589   79.8705   19.7162 Br  0  0  0  0  0  0  0  0  0  0  0  0
   19.7018   78.9222   18.1930 C   0  0  0  0  0  0  0  0  0  0  0  0
   19.0839   77.7631   17.7346 C   0  0  0  0  0  0  0  0  0  0  0  0
   19.6089   77.1096   16.6211 C   0  0  0  0  0  0  0  0  0  0  0  0
   20.7065   77.5432   15.9446 C   0  0  0  0  0  0  0  0  0  0  0  0
   21.2973   78.7197   16.4448 C   0  0  0  0  0  0  0  0  0  0  0  0
   20.8151   79.3973   17.5402 C   0  0  0  0  0  0  0  0  0  0  0  0
 22 23  1  0  0  0
 23 24  2  0  0  0
 23 28  1  0  0  0
 24 25  1  0  0  0
 25 26  2  0  0  0
 26 27  1  0  0  0
 26 21  1  0  0  0
 27 28  2  0  0  0
 21  1  1  0  0  0
  1  2  1  0  0  0
  1  5  1  0  0  0
  2  3  2  0  0  0
  2 10  1  0  0  0
  3  4  1  0  0  0
  3  6  1  0  0  0
  4  5  2  0  0  0
  5 14  1  0  0  0
 14 15  1  0  0  0
 14 19  1  0  0  0
 15 16  1  0  0  0
 16 17  1  0  0  0
 17 18  1  0  0  0
 17 20  1  0  0  0
 18 19  1  0  0  0
  6  7  1  0  0  0
  6 12  1  0  0  0
  7  8  2  0  0  0
  7  9  1  0  0  0
  9 10  1  0  0  0
 10 11  2  0  0  0
  9 13  1  0  0  0
M  END
> <minimizedAffinity>
-7.88414

$$$$
2103


 29 32  0  0  0  0  0  0  0  0999 V2000
   21.0578   77.5336   13.8786 C   0  0  0  0  0  0  0  0  0  0  0  0
   21.4113   78.5091   12.8797 C   0  0  0  0  0  0  0  0  0  0  0  0
   20.9568   78.3744   11.6193 C   0  0  0  0  0  0  0  0  0  0  0  0
   20.1362   77.2916   11.2541 C   0  0  0  0  0  0  0  0  0  0  0  0
   19.7910   76.3507   12.1936 C   0  0  0  0  0  0  0  0  0  0  0  0
   20.2612   76.4792   13.5104 C   0  0  0  0  0  0  0  0  0  0  0  0
   19.9765   75.4222   14.5146 C   0  0  0  0  0  0  0  0  0  0  0  0
   19.5430   74.0956   13.8999 C   0  0  0  0  0  0  0  0  0  0  0  0
   18.5455   74.2833   12.8727 N   0  0  0  0  0  0  0  0  0  0  0  0
   18.9142   75.2319   11.8618 C   0  0  0  0  0  0  0  0  0  0  0  0
   18.4474   75.0382   10.7204 O   0  0  0  0  0  0  0  0  0  0  0  0
   17.2835   73.5753   12.8665 C   0  0  0  0  0  0  0  0  0  0  0  0
   19.7224   77.2288    9.9758 O   0  0  0  0  0  0  0  0  0  0  0  0
   21.4579   79.4577   10.8811 O   0  0  0  0  0  0  0  0  0  0  0  0
   22.0249   80.4118   11.7537 C   0  0  0  0  0  0  0  0  0  0  0  0
   22.1922   79.6669   12.9439 O   0  0  0  0  0  0  0  0  0  0  0  0
   19.1696   76.5926    9.5129 H   0  0  0  0  0  0  0  0  0  0  0  0
   21.6327   77.8645   15.1650 C   0  0  0  0  0  0  0  0  0  0  0  0
   20.4727   78.6681   17.1457 C   0  0  0  0  0  0  0  0  0  0  0  0
   20.1552   77.4871   17.3651 O   0  0  0  0  0  0  0  0  0  0  0  0
   21.2905   78.9667   15.9521 N   0  0  0  0  0  0  0  0  0  0  0  0
   21.5217   79.9694   15.8993 H   0  0  0  0  0  0  0  0  0  0  0  0
   20.4796   83.7958   18.6083 Br  0  0  0  0  0  0  0  0  0  0  0  0
   19.9631   81.9672   18.8001 C   0  0  0  0  0  0  0  0  0  0  0  0
   19.1471   81.5826   19.8164 C   0  0  0  0  0  0  0  0  0  0  0  0
   18.7785   80.3108   19.9627 N   0  0  0  0  0  0  0  0  0  0  0  0
   19.2171   79.3878   19.0945 C   0  0  0  0  0  0  0  0  0  0  0  0
   20.0535   79.7244   18.0360 C   0  0  0  0  0  0  0  0  0  0  0  0
   20.4385   81.0361   17.8779 C   0  0  0  0  0  0  0  0  0  0  0  0
 23 24  1  0  0  0
 24 25  2  0  0  0
 24 29  1  0  0  0
 25 26  1  0  0  0
 26 27  2  0  0  0
 27 28  1  0  0  0
 28 29  2  0  0  0
 28 19  1  0  0  0
 19 20  2  0  0  0
 19 21  1  0  0  0
 21 18  1  0  0  0
 18  1  1  0  0  0
  1  2  2  0  0  0
  1  6  1  0  0  0
  2  3  1  0  0  0
  2 16  1  0  0  0
  3  4  2  0  0  0
  3 14  1  0  0  0
  4  5  1  0  0  0
  4 13  1  0  0  0
  5  6  2  0  0  0
  5 10  1  0  0  0
  6  7  1  0  0  0
  7  8  1  0  0  0
  8  9  1  0  0  0
  9 10  1  0  0  0
  9 12  1  0  0  0
 10 11  2  0  0  0
 14 15  1  0  0  0
 15 16  1  0  0  0
 21 22  1  0  0  0
 13 17  1  0  0  0
M  END
> <minimizedAffinity>
-9.51785

$$$$
2105


 29 32  0  0  0  0  0  0  0  0999 V2000
   22.7611   79.9390   13.4907 Cl  0  0  0  0  0  0  0  0  0  0  0  0
   22.9690   79.7840   15.2227 C   0  0  0  0  0  0  0  0  0  0  0  0
   21.8703   79.8590   16.0792 C   0  0  0  0  0  0  0  0  0  0  0  0
   21.9898   79.7438   17.4324 C   0  0  0  0  0  0  0  0  0  0  0  0
   23.2717   79.5443   17.9264 C   0  0  0  0  0  0  0  0  0  0  0  0
   24.3690   79.4664   17.0966 C   0  0  0  0  0  0  0  0  0  0  0  0
   24.2278   79.5858   15.7324 C   0  0  0  0  0  0  0  0  0  0  0  0
   20.6514   79.8681   18.0455 C   0  0  0  0  0  0  0  0  0  0  0  0
   20.5979   81.0809   18.9398 C   0  0  0  0  0  0  0  0  0  0  0  0
   20.2638   81.0317   20.1991 C   0  0  0  0  0  0  0  0  0  0  0  0
   19.9189   79.8042   20.8373 N   0  0  0  0  0  0  0  0  0  0  0  0
   19.9436   78.6144   20.0693 C   0  0  0  0  0  0  0  0  0  0  0  0
   20.2778   78.6521   18.7995 C   0  0  0  0  0  0  0  0  0  0  0  0
   19.6091   77.3452   20.6389 N   0  0  0  0  0  0  0  0  0  0  0  0
   20.3178   82.3964   20.7615 C   0  0  0  0  0  0  0  0  0  0  0  0
   20.7061   83.2131   19.7273 O   0  0  0  0  0  0  0  0  0  0  0  0
   20.8914   82.4646   18.5882 C   0  0  0  0  0  0  0  0  0  0  0  0
   21.2517   82.8717   17.4289 O   0  0  0  0  0  0  0  0  0  0  0  0
   21.2576   82.4039   21.9466 C   0  0  0  0  0  0  0  0  0  0  0  0
   18.9587   82.8586   21.2546 C   0  0  0  0  0  0  0  0  0  0  0  0
   19.7374   80.0689   16.8968 C   0  0  0  0  0  0  0  0  0  0  0  0
   18.4653   80.2266   16.9511 O   0  0  0  0  0  0  0  0  0  0  0  0
   20.5137   80.0587   15.7201 N   0  0  0  0  0  0  0  0  0  0  0  0
   19.6515   79.7576   21.8433 H   0  0  0  0  0  0  0  0  0  0  0  0
   20.0526   77.0260   21.5102 H   0  0  0  0  0  0  0  0  0  0  0  0
   18.9161   76.7605   20.1566 H   0  0  0  0  0  0  0  0  0  0  0  0
   20.1085   80.1821   14.7427 H   0  0  0  0  0  0  0  0  0  0  0  0
   20.2902   77.4056   18.0467 C   0  0  0  0  0  0  0  0  0  0  0  0
   20.3143   76.4204   17.4407 N   0  0  0  0  0  0  0  0  0  0  0  0
  1  2  1  0  0  0
  2  3  2  0  0  0
  2  7  1  0  0  0
  3  4  1  0  0  0
  3 23  1  0  0  0
  4  5  2  0  0  0
  4  8  1  0  0  0
  5  6  1  0  0  0
  6  7  2  0  0  0
  8  9  1  0  0  0
  8 13  1  0  0  0
  8 21  1  0  0  0
  9 10  2  0  0  0
  9 17  1  0  0  0
 10 11  1  0  0  0
 10 15  1  0  0  0
 11 12  1  0  0  0
 12 13  2  0  0  0
 12 14  1  0  0  0
 13 28  1  0  0  0
 28 29  3  0  0  0
 15 16  1  0  0  0
 15 19  1  0  0  0
 15 20  1  0  0  0
 16 17  1  0  0  0
 17 18  2  0  0  0
 21 22  2  0  0  0
 21 23  1  0  0  0
 11 24  1  0  0  0
 14 25  1  0  0  0
 14 26  1  0  0  0
 23 27  1  0  0  0
M  END
> <minimizedAffinity>
-7.16101

$$$$
2109


 21 24  0  0  0  0  0  0  0  0999 V2000
   20.9688   79.0005   17.6020 N   0  0  0  0  0  0  0  0  0  0  0  0
   20.2312   77.9275   16.9981 C   0  0  0  0  0  0  0  0  0  0  0  0
   18.9836   77.7828   17.0162 O   0  0  0  0  0  0  0  0  0  0  0  0
   21.1623   76.9867   16.3343 C   0  0  0  0  0  0  0  0  0  0  0  0
   20.8038   76.7191   15.0178 O   0  0  0  0  0  0  0  0  0  0  0  0
   20.9457   77.8333   14.3192 N   0  0  0  0  0  0  0  0  0  0  0  0
   21.8674   78.6942   14.9183 C   0  0  0  0  0  0  0  0  0  0  0  0
   22.3716   77.8904   16.1179 C   0  0  0  0  0  0  0  0  0  0  0  0
   22.3428   78.7013   17.3586 C   0  0  0  0  0  0  0  0  0  0  0  0
   23.2985   79.0851   18.0969 O   0  0  0  0  0  0  0  0  0  0  0  0
   22.9568   79.2614   14.1118 C   0  0  0  0  0  0  0  0  0  0  0  0
   22.9914   78.9453   12.6684 C   0  0  0  0  0  0  0  0  0  0  0  0
   21.5710   78.8209   12.1629 C   0  0  0  0  0  0  0  0  0  0  0  0
   20.9459   77.6805   12.9234 C   0  0  0  0  0  0  0  0  0  0  0  0
   18.8429   83.8245   20.4897 Cl  0  0  0  0  0  0  0  0  0  0  0  0
   19.4629   82.4151   19.6482 C   0  0  0  0  0  0  0  0  0  0  0  0
   19.3332   81.1556   20.1958 C   0  0  0  0  0  0  0  0  0  0  0  0
   19.8261   80.0491   19.5244 C   0  0  0  0  0  0  0  0  0  0  0  0
   20.4573   80.1358   18.3021 C   0  0  0  0  0  0  0  0  0  0  0  0
   20.5830   81.4067   17.7595 C   0  0  0  0  0  0  0  0  0  0  0  0
   20.0927   82.5142   18.4250 C   0  0  0  0  0  0  0  0  0  0  0  0
 15 16  1  0  0  0
 16 17  2  0  0  0
 16 21  1  0  0  0
 17 18  1  0  0  0
 18 19  2  0  0  0
 19 20  1  0  0  0
 19  1  1  0  0  0
 20 21  2  0  0  0
  1  2  1  0  0  0
  1  9  1  0  0  0
  2  3  2  0  0  0
  2  4  1  0  0  0
  4  5  1  0  0  0
  4  8  1  0  0  0
  5  6  1  0  0  0
  6  7  1  0  0  0
  6 14  1  0  0  0
  7  8  1  0  0  0
  7 11  1  0  0  0
  8  9  1  0  0  0
  9 10  2  0  0  0
 11 12  1  0  0  0
 12 13  1  0  0  0
 13 14  1  0  0  0
M  END
> <minimizedAffinity>
-8.60728

$$$$
2116


 33 36  0  0  0  0  0  0  0  0999 V2000
   20.4884   76.4535   14.3821 C   0  0  0  0  0  0  0  0  0  0  0  0
   19.8752   75.2855   14.2752 N   0  0  0  0  0  0  0  0  0  0  0  0
   19.2282   74.8673   13.1734 C   0  0  0  0  0  0  0  0  0  0  0  0
   19.2183   75.7125   12.1197 N   0  0  0  0  0  0  0  0  0  0  0  0
   19.8309   76.9257   12.1681 C   0  0  0  0  0  0  0  0  0  0  0  0
   20.4643   77.2788   13.3141 N   0  0  0  0  0  0  0  0  0  0  0  0
   19.7991   77.8044   11.0666 N   0  0  0  0  0  0  0  0  0  0  0  0
   20.3636   79.1271   11.1460 C   0  0  0  0  0  0  0  0  0  0  0  0
   21.3274   79.2283    9.9547 C   0  0  0  0  0  0  0  0  0  0  0  0
   20.6502   78.8916    8.8003 O   0  0  0  0  0  0  0  0  0  0  0  0
   20.3531   77.5294    8.7878 C   0  0  0  0  0  0  0  0  0  0  0  0
   19.2149   77.3792    9.8200 C   0  0  0  0  0  0  0  0  0  0  0  0
   18.5724   73.5902   13.1061 N   0  0  0  0  0  0  0  0  0  0  0  0
   17.1657   73.4856   12.8417 C   0  0  0  0  0  0  0  0  0  0  0  0
   16.6440   72.1342   12.5435 C   0  0  0  0  0  0  0  0  0  0  0  0
   17.4889   71.0954   12.9088 O   0  0  0  0  0  0  0  0  0  0  0  0
   18.7892   71.2992   12.4679 C   0  0  0  0  0  0  0  0  0  0  0  0
   19.3636   72.4123   13.3097 C   0  0  0  0  0  0  0  0  0  0  0  0
   21.1202   76.8239   15.6013 N   0  0  0  0  0  0  0  0  0  0  0  0
   22.0055   76.3764   15.8663 H   0  0  0  0  0  0  0  0  0  0  0  0
   21.1972   78.4386   17.3245 C   0  0  0  0  0  0  0  0  0  0  0  0
   20.5495   77.7772   16.4279 N   0  0  0  0  0  0  0  0  0  0  0  0
   20.3547   83.5632   18.6727 Br  0  0  0  0  0  0  0  0  0  0  0  0
   20.0742   81.6933   18.8712 C   0  0  0  0  0  0  0  0  0  0  0  0
   19.2030   81.2635   19.8598 C   0  0  0  0  0  0  0  0  0  0  0  0
   19.0198   79.9000   19.9881 C   0  0  0  0  0  0  0  0  0  0  0  0
   19.6750   79.0156   19.1710 C   0  0  0  0  0  0  0  0  0  0  0  0
   20.5540   79.4244   18.1685 C   0  0  0  0  0  0  0  0  0  0  0  0
   20.7246   80.7868   18.0555 C   0  0  0  0  0  0  0  0  0  0  0  0
   19.4860   77.6363   19.3076 O   0  0  0  0  0  0  0  0  0  0  0  0
   18.5326   82.1533   20.6964 O   0  0  0  0  0  0  0  0  0  0  0  0
   18.8524   77.3074   20.0300 H   0  0  0  0  0  0  0  0  0  0  0  0
   18.6276   83.1561   20.6393 H   0  0  0  0  0  0  0  0  0  0  0  0
 23 24  1  0  0  0
 24 25  2  0  0  0
 24 29  1  0  0  0
 25 26  1  0  0  0
 25 31  1  0  0  0
 26 27  2  0  0  0
 27 28  1  0  0  0
 27 30  1  0  0  0
 28 29  2  0  0  0
 28 21  1  0  0  0
 21 22  2  0  0  0
 22 19  1  0  0  0
 19  1  1  0  0  0
  1  2  2  0  0  0
  1  6  1  0  0  0
  2  3  1  0  0  0
  3  4  2  0  0  0
  3 13  1  0  0  0
  4  5  1  0  0  0
  5  6  2  0  0  0
  5  7  1  0  0  0
  7  8  1  0  0  0
  7 12  1  0  0  0
  8  9  1  0  0  0
  9 10  1  0  0  0
 10 11  1  0  0  0
 11 12  1  0  0  0
 13 14  1  0  0  0
 13 18  1  0  0  0
 14 15  1  0  0  0
 15 16  1  0  0  0
 16 17  1  0  0  0
 17 18  1  0  0  0
 19 20  1  0  0  0
 30 32  1  0  0  0
 31 33  1  0  0  0
M  END
> <minimizedAffinity>
-10.68212

$$$$
2121


 31 34  0  0  0  0  0  0  0  0999 V2000
   22.8376   79.8363   15.1715 C   0  0  0  0  0  0  0  0  0  0  0  0
   23.0917   81.0524   15.6728 O   0  0  0  0  0  0  0  0  0  0  0  0
   23.0005   78.8240   16.0931 N   0  0  0  0  0  0  0  0  0  0  0  0
   23.3786   79.3620   17.4301 C   0  0  0  0  0  0  0  0  0  0  0  0
   22.1172   79.6401   18.2245 C   0  0  0  0  0  0  0  0  0  0  0  0
   21.0274   78.8197   17.6480 C   0  0  0  0  0  0  0  0  0  0  0  0
   21.3562   77.3633   17.7071 C   0  0  0  0  0  0  0  0  0  0  0  0
   21.4752   76.8959   16.2460 C   0  0  0  0  0  0  0  0  0  0  0  0
   22.8451   77.4412   15.8003 C   0  0  0  0  0  0  0  0  0  0  0  0
   20.4230   76.5994   18.4051 O   0  0  0  0  0  0  0  0  0  0  0  0
   20.0678   77.2057   19.1329 H   0  0  0  0  0  0  0  0  0  0  0  0
   19.7502   78.4297    8.3712 Cl  0  0  0  0  0  0  0  0  0  0  0  0
   20.6804   79.2059    9.6556 C   0  0  0  0  0  0  0  0  0  0  0  0
   20.7017   78.6224   10.8812 C   0  0  0  0  0  0  0  0  0  0  0  0
   21.4454   79.2621   11.8789 C   0  0  0  0  0  0  0  0  0  0  0  0
   22.1206   80.4111   11.6541 C   0  0  0  0  0  0  0  0  0  0  0  0
   22.7252   80.7591   12.8307 N   0  0  0  0  0  0  0  0  0  0  0  0
   22.4524   79.8684   13.7870 C   0  0  0  0  0  0  0  0  0  0  0  0
   21.6362   78.9037   13.1988 C   0  0  0  0  0  0  0  0  0  0  0  0
   22.0893   80.9868   10.4128 C   0  0  0  0  0  0  0  0  0  0  0  0
   21.3615   80.3789    9.4011 C   0  0  0  0  0  0  0  0  0  0  0  0
   23.3115   81.6014   12.8881 H   0  0  0  0  0  0  0  0  0  0  0  0
   19.6952   79.0479   18.1100 N   0  0  0  0  0  0  0  0  0  0  0  0
   18.9718   80.0726   17.4004 C   0  0  0  0  0  0  0  0  0  0  0  0
   19.5892   81.4081   17.5744 C   0  0  0  0  0  0  0  0  0  0  0  0
   19.6631   81.6487   19.0199 N   0  0  0  0  0  0  0  0  0  0  0  0
   19.1216   80.6097   19.8567 C   0  0  0  0  0  0  0  0  0  0  0  0
   19.5999   79.2255   19.5336 C   0  0  0  0  0  0  0  0  0  0  0  0
   20.2280   82.8640   19.5133 C   0  0  0  0  0  0  0  0  0  0  0  0
   20.2981   83.0513   20.7351 O   0  0  0  0  0  0  0  0  0  0  0  0
   20.7174   83.8754   18.5240 C   0  0  0  0  0  0  0  0  0  0  0  0
 12 13  1  0  0  0
 13 14  2  0  0  0
 13 21  1  0  0  0
 14 15  1  0  0  0
 15 16  2  0  0  0
 15 19  1  0  0  0
 16 17  1  0  0  0
 16 20  1  0  0  0
 17 18  1  0  0  0
 18 19  2  0  0  0
 18  1  1  0  0  0
  1  2  2  0  0  0
  1  3  1  0  0  0
  3  4  1  0  0  0
  3  9  1  0  0  0
  4  5  1  0  0  0
  5  6  1  0  0  0
  6  7  1  0  0  0
  6 23  1  0  0  0
  7  8  1  0  0  0
  7 10  1  0  0  0
  8  9  1  0  0  0
 23 24  1  0  0  0
 23 28  1  0  0  0
 24 25  1  0  0  0
 25 26  1  0  0  0
 26 27  1  0  0  0
 26 29  1  0  0  0
 27 28  1  0  0  0
 29 30  2  0  0  0
 29 31  1  0  0  0
 20 21  2  0  0  0
 17 22  1  0  0  0
 10 11  1  0  0  0
M  END
> <minimizedAffinity>
-10.55907

$$$$
2122


 29 32  0  0  0  0  0  0  0  0999 V2000
   20.0347   77.1535   16.9826 C   0  0  0  0  0  0  0  0  0  0  0  0
   20.3449   76.7233   18.2177 N   0  0  0  0  0  0  0  0  0  0  0  0
   20.0659   77.6377   19.1027 O   0  0  0  0  0  0  0  0  0  0  0  0
   19.5733   78.6713   18.4505 C   0  0  0  0  0  0  0  0  0  0  0  0
   19.5473   78.3907   17.1446 N   0  0  0  0  0  0  0  0  0  0  0  0
   19.1381   79.9155   19.1697 C   0  0  0  0  0  0  0  0  0  0  0  0
   18.2762   79.6346   20.0727 O   0  0  0  0  0  0  0  0  0  0  0  0
   19.6513   81.1125   18.8321 N   0  0  0  0  0  0  0  0  0  0  0  0
   18.9333   81.6960   19.8451 H   0  0  0  0  0  0  0  0  0  0  0  0
   20.1687   82.3498   18.4986 C   0  0  0  0  0  0  0  0  0  0  0  0
   19.7743   83.4601   19.4798 C   0  0  0  0  0  0  0  0  0  0  0  0
   19.8202   83.0958   20.8403 N   0  0  0  0  0  0  0  0  0  0  0  0
   18.8185   83.7556   21.5825 C   0  0  0  0  0  0  0  0  0  0  0  0
   19.1667   83.9259   23.0230 C   0  0  0  0  0  0  0  0  0  0  0  0
   19.7624   82.7776   23.4775 O   0  0  0  0  0  0  0  0  0  0  0  0
   20.9982   82.5242   22.9135 C   0  0  0  0  0  0  0  0  0  0  0  0
   21.0590   82.8232   21.4448 C   0  0  0  0  0  0  0  0  0  0  0  0
   20.1884   76.3628   15.7307 C   0  0  0  0  0  0  0  0  0  0  0  0
   25.1123   79.0548   17.2170 Cl  0  0  0  0  0  0  0  0  0  0  0  0
   24.0734   78.7606   15.8315 C   0  0  0  0  0  0  0  0  0  0  0  0
   22.9228   77.9987   16.0120 C   0  0  0  0  0  0  0  0  0  0  0  0
   22.1045   77.7699   14.9145 C   0  0  0  0  0  0  0  0  0  0  0  0
   22.4783   78.3171   13.6847 C   0  0  0  0  0  0  0  0  0  0  0  0
   23.6106   79.0616   13.5244 C   0  0  0  0  0  0  0  0  0  0  0  0
   24.4150   79.2874   14.5989 C   0  0  0  0  0  0  0  0  0  0  0  0
   21.5414   77.9399   12.8699 O   0  0  0  0  0  0  0  0  0  0  0  0
   20.6315   77.2166   13.4711 C   0  0  0  0  0  0  0  0  0  0  0  0
   19.6233   76.7349   12.8884 O   0  0  0  0  0  0  0  0  0  0  0  0
   20.9620   77.0931   14.7686 N   0  0  0  0  0  0  0  0  0  0  0  0
 19 20  1  0  0  0
 20 21  2  0  0  0
 20 25  1  0  0  0
 21 22  1  0  0  0
 22 23  2  0  0  0
 22 29  1  0  0  0
 23 24  1  0  0  0
 23 26  1  0  0  0
 24 25  2  0  0  0
 26 27  1  0  0  0
 27 28  2  0  0  0
 27 29  1  0  0  0
 29 18  1  0  0  0
 18  1  1  0  0  0
  1  2  2  0  0  0
  1  5  1  0  0  0
  2  3  1  0  0  0
  3  4  1  0  0  0
  4  5  2  0  0  0
  4  6  1  0  0  0
  6  7  2  0  0  0
  6  8  1  0  0  0
  8 10  1  0  0  0
 10 11  1  0  0  0
 11 12  1  0  0  0
 12 13  1  0  0  0
 12 17  1  0  0  0
 13 14  1  0  0  0
 14 15  1  0  0  0
 15 16  1  0  0  0
 16 17  1  0  0  0
  8  9  1  0  0  0
M  END
> <minimizedAffinity>
-9.68199

$$$$
2124


 25 29  0  0  0  0  0  0  0  0999 V2000
   19.9542   80.9780   18.9689 N   0  0  0  0  0  0  0  0  0  0  0  0
   20.4992   81.2633   17.6891 C   0  0  0  0  0  0  0  0  0  0  0  0
   21.1256   82.3122   17.3830 O   0  0  0  0  0  0  0  0  0  0  0  0
   20.2250   80.1348   16.7382 C   0  0  0  0  0  0  0  0  0  0  0  0
   21.4914   79.5982   16.1600 C   0  0  0  0  0  0  0  0  0  0  0  0
   21.4136   78.1986   16.3667 O   0  0  0  0  0  0  0  0  0  0  0  0
   21.1595   78.2608   17.7609 C   0  0  0  0  0  0  0  0  0  0  0  0
   19.8311   79.0087   17.7053 C   0  0  0  0  0  0  0  0  0  0  0  0
   19.4597   79.6448   18.9606 C   0  0  0  0  0  0  0  0  0  0  0  0
   18.8055   79.0817   19.8754 O   0  0  0  0  0  0  0  0  0  0  0  0
   22.2746   79.1335   18.1984 C   0  0  0  0  0  0  0  0  0  0  0  0
   22.5823   79.9089   17.1383 C   0  0  0  0  0  0  0  0  0  0  0  0
   21.0927   76.9482   18.4226 C   0  0  0  0  0  0  0  0  0  0  0  0
   19.4692   84.5093   23.8087 Cl  0  0  0  0  0  0  0  0  0  0  0  0
   19.6372   83.4648   22.3941 C   0  0  0  0  0  0  0  0  0  0  0  0
   20.7163   82.6279   22.2421 C   0  0  0  0  0  0  0  0  0  0  0  0
   20.8140   81.8199   21.1230 C   0  0  0  0  0  0  0  0  0  0  0  0
   19.8654   81.8099   20.1290 C   0  0  0  0  0  0  0  0  0  0  0  0
   18.7780   82.6506   20.2801 C   0  0  0  0  0  0  0  0  0  0  0  0
   18.6777   83.4641   21.4067 C   0  0  0  0  0  0  0  0  0  0  0  0
   21.8014   79.9624   14.7719 C   0  0  0  0  0  0  0  0  0  0  0  0
   23.1182   80.4237   14.7179 O   0  0  0  0  0  0  0  0  0  0  0  0
   23.9428   79.3448   14.5206 C   0  0  0  0  0  0  0  0  0  0  0  0
   23.0485   78.3705   13.8008 C   0  0  0  0  0  0  0  0  0  0  0  0
   21.7588   78.8226   13.9686 O   0  0  0  0  0  0  0  0  0  0  0  0
 14 15  1  0  0  0
 15 16  2  0  0  0
 15 20  1  0  0  0
 16 17  1  0  0  0
 17 18  2  0  0  0
 18 19  1  0  0  0
 18  1  1  0  0  0
 19 20  2  0  0  0
  1  2  1  0  0  0
  1  9  1  0  0  0
  2  3  2  0  0  0
  2  4  1  0  0  0
  4  5  1  0  0  0
  4  8  1  0  0  0
  5  6  1  0  0  0
  5 12  1  0  0  0
  5 21  1  0  0  0
  6  7  1  0  0  0
  7  8  1  0  0  0
  7 11  1  0  0  0
  7 13  1  0  0  0
  8  9  1  0  0  0
  9 10  2  0  0  0
 11 12  2  0  0  0
 21 22  1  0  0  0
 21 25  1  0  0  0
 22 23  1  0  0  0
 23 24  1  0  0  0
 24 25  1  0  0  0
M  END
> <minimizedAffinity>
-9.64742

$$$$
2134


 36 39  0  0  0  0  0  0  0  0999 V2000
   20.2824   76.5194   14.3833 C   0  0  0  0  0  0  0  0  0  0  0  0
   19.7221   75.3362   14.4476 N   0  0  0  0  0  0  0  0  0  0  0  0
   19.2810   74.8945   13.2262 N   0  0  0  0  0  0  0  0  0  0  0  0
   19.6110   75.9283   12.2976 C   0  0  0  0  0  0  0  0  0  0  0  0
   19.4361   76.0526   11.0154 N   0  0  0  0  0  0  0  0  0  0  0  0
   19.8630   77.2081   10.3094 N   0  0  0  0  0  0  0  0  0  0  0  0
   20.4986   78.2835   10.9560 C   0  0  0  0  0  0  0  0  0  0  0  0
   20.8950   79.3727   10.3114 C   0  0  0  0  0  0  0  0  0  0  0  0
   20.7067   78.1631   12.3948 C   0  0  0  0  0  0  0  0  0  0  0  0
   21.2641   79.0953   12.9826 O   0  0  0  0  0  0  0  0  0  0  0  0
   20.2507   76.9695   13.0336 N   0  0  0  0  0  0  0  0  0  0  0  0
   19.6738   77.2058    9.2818 H   0  0  0  0  0  0  0  0  0  0  0  0
   18.5895   73.6762   12.9671 C   0  0  0  0  0  0  0  0  0  0  0  0
   17.2237   73.6433   12.8276 C   0  0  0  0  0  0  0  0  0  0  0  0
   16.5050   72.4923   12.5340 C   0  0  0  0  0  0  0  0  0  0  0  0
   17.1674   71.2930   12.3656 C   0  0  0  0  0  0  0  0  0  0  0  0
   18.5394   71.3002   12.5040 C   0  0  0  0  0  0  0  0  0  0  0  0
   19.2346   72.4720   12.7998 C   0  0  0  0  0  0  0  0  0  0  0  0
   16.4373   70.0377   12.0115 C   0  0  0  0  0  0  0  0  0  0  0  0
   19.9653   77.8812   16.4241 N   0  0  0  0  0  0  0  0  0  0  0  0
   20.8368   77.2313   15.5180 C   0  0  0  0  0  0  0  0  0  0  0  0
   22.0929   77.2901   15.7127 O   0  0  0  0  0  0  0  0  0  0  0  0
   18.9392   77.8506   16.3316 H   0  0  0  0  0  0  0  0  0  0  0  0
   20.7243   80.4994   19.0558 N   0  0  0  0  0  0  0  0  0  0  0  0
   20.1206   79.8458   17.9674 C   0  0  0  0  0  0  0  0  0  0  0  0
   19.1641   80.4310   17.3909 O   0  0  0  0  0  0  0  0  0  0  0  0
   20.5179   78.5818   17.4902 N   0  0  0  0  0  0  0  0  0  0  0  0
   21.5288   80.0408   19.5518 H   0  0  0  0  0  0  0  0  0  0  0  0
   21.3345   78.0731   17.9626 H   0  0  0  0  0  0  0  0  0  0  0  0
   19.1292   85.8007   21.1815 Cl  0  0  0  0  0  0  0  0  0  0  0  0
   19.5958   84.1983   20.5976 C   0  0  0  0  0  0  0  0  0  0  0  0
   19.6675   83.1356   21.4606 C   0  0  0  0  0  0  0  0  0  0  0  0
   20.0430   81.9216   20.9294 C   0  0  0  0  0  0  0  0  0  0  0  0
   20.3390   81.7671   19.5771 C   0  0  0  0  0  0  0  0  0  0  0  0
   20.2518   82.8729   18.7435 C   0  0  0  0  0  0  0  0  0  0  0  0
   19.8784   84.0920   19.2623 C   0  0  0  0  0  0  0  0  0  0  0  0
 30 31  1  0  0  0
 31 32  2  0  0  0
 31 36  1  0  0  0
 32 33  1  0  0  0
 33 34  2  0  0  0
 34 35  1  0  0  0
 34 24  1  0  0  0
 35 36  2  0  0  0
 24 25  1  0  0  0
 25 26  2  0  0  0
 25 27  1  0  0  0
 27 20  1  0  0  0
 20 21  1  0  0  0
 21 22  2  0  0  0
 21  1  1  0  0  0
  1  2  2  0  0  0
  1 11  1  0  0  0
  2  3  1  0  0  0
  3  4  1  0  0  0
  3 13  1  0  0  0
  4  5  2  0  0  0
  4 11  1  0  0  0
  5  6  1  0  0  0
  6  7  1  0  0  0
  7  8  2  0  0  0
  7  9  1  0  0  0
  9 10  2  0  0  0
  9 11  1  0  0  0
 13 14  2  0  0  0
 13 18  1  0  0  0
 14 15  1  0  0  0
 15 16  2  0  0  0
 16 17  1  0  0  0
 16 19  1  0  0  0
 17 18  2  0  0  0
 24 28  1  0  0  0
 27 29  1  0  0  0
 20 23  1  0  0  0
  6 12  1  0  0  0
M  END
> <minimizedAffinity>
-12.12661

$$$$
2136


 33 37  0  0  0  0  0  0  0  0999 V2000
   23.9905   80.2916    8.8929 Cl  0  0  0  0  0  0  0  0  0  0  0  0
   22.5782   80.1873    9.9230 C   0  0  0  0  0  0  0  0  0  0  0  0
   22.5582   79.4484   11.0882 C   0  0  0  0  0  0  0  0  0  0  0  0
   21.4187   79.3868   11.8829 C   0  0  0  0  0  0  0  0  0  0  0  0
   20.3298   80.0927   11.4507 C   0  0  0  0  0  0  0  0  0  0  0  0
   20.3310   80.8347   10.2936 C   0  0  0  0  0  0  0  0  0  0  0  0
   21.4498   80.8924    9.5177 C   0  0  0  0  0  0  0  0  0  0  0  0
   21.7152   78.5306   13.0376 C   0  0  0  0  0  0  0  0  0  0  0  0
   20.8199   77.3915   13.1297 N   0  0  0  0  0  0  0  0  0  0  0  0
   21.0504   76.9356   14.5028 C   0  0  0  0  0  0  0  0  0  0  0  0
   21.2768   78.1477   15.3237 C   0  0  0  0  0  0  0  0  0  0  0  0
   21.4427   79.2530   14.3303 C   0  0  0  0  0  0  0  0  0  0  0  0
   22.5558   80.1038   14.7607 C   0  0  0  0  0  0  0  0  0  0  0  0
   22.7828   81.2493   14.2969 O   0  0  0  0  0  0  0  0  0  0  0  0
   23.2658   79.3779   15.7564 N   0  0  0  0  0  0  0  0  0  0  0  0
   22.6308   78.1285   15.9923 C   0  0  0  0  0  0  0  0  0  0  0  0
   23.0589   77.1326   16.6369 O   0  0  0  0  0  0  0  0  0  0  0  0
   23.1069   78.0786   12.8805 C   0  0  0  0  0  0  0  0  0  0  0  0
   23.7713   77.3390   13.6205 O   0  0  0  0  0  0  0  0  0  0  0  0
   23.5843   78.6640   11.6777 N   0  0  0  0  0  0  0  0  0  0  0  0
   21.0707   76.6365   12.4342 H   0  0  0  0  0  0  0  0  0  0  0  0
   24.5477   78.5515   11.2612 H   0  0  0  0  0  0  0  0  0  0  0  0
   24.4699   79.8583   16.4293 C   0  0  0  0  0  0  0  0  0  0  0  0
   25.6749   79.3141   15.6759 C   0  0  0  0  0  0  0  0  0  0  0  0
   26.7120   79.0217   16.5474 O   0  0  0  0  0  0  0  0  0  0  0  0
   26.1938   78.6813   17.7816 C   0  0  0  0  0  0  0  0  0  0  0  0
   19.8885   76.1370   15.0121 C   0  0  0  0  0  0  0  0  0  0  0  0
   19.5035   75.0011   14.1584 C   0  0  0  0  0  0  0  0  0  0  0  0
   20.2673   73.8392   14.2469 C   0  0  0  0  0  0  0  0  0  0  0  0
   19.9215   72.7566   13.4802 C   0  0  0  0  0  0  0  0  0  0  0  0
   18.8485   72.7620   12.6212 C   0  0  0  0  0  0  0  0  0  0  0  0
   18.1183   73.9292   12.5622 C   0  0  0  0  0  0  0  0  0  0  0  0
   18.4215   75.0466   13.3113 C   0  0  0  0  0  0  0  0  0  0  0  0
  1  2  1  0  0  0
  2  3  2  0  0  0
  2  7  1  0  0  0
  3  4  1  0  0  0
  3 20  1  0  0  0
  4  5  2  0  0  0
  4  8  1  0  0  0
  5  6  1  0  0  0
  6  7  2  0  0  0
  8  9  1  0  0  0
  8 12  1  0  0  0
  8 18  1  0  0  0
  9 10  1  0  0  0
 10 11  1  0  0  0
 10 27  1  0  0  0
 11 12  1  0  0  0
 11 16  1  0  0  0
 12 13  1  0  0  0
 13 14  2  0  0  0
 13 15  1  0  0  0
 15 16  1  0  0  0
 15 23  1  0  0  0
 16 17  2  0  0  0
 23 24  1  0  0  0
 24 25  1  0  0  0
 25 26  1  0  0  0
 27 28  1  0  0  0
 28 29  2  0  0  0
 28 33  1  0  0  0
 29 30  1  0  0  0
 30 31  2  0  0  0
 31 32  1  0  0  0
 32 33  2  0  0  0
 18 19  2  0  0  0
 18 20  1  0  0  0
  9 21  1  0  0  0
 20 22  1  0  0  0
M  END
> <minimizedAffinity>
-8.26399

$$$$
2139


 27 30  0  0  0  0  0  0  0  0999 V2000
   20.8069   79.7087   18.5274 N   0  0  0  0  0  0  0  0  0  0  0  0
   19.8442   78.7384   18.8673 C   0  0  0  0  0  0  0  0  0  0  0  0
   19.6304   77.6294   17.8731 C   0  0  0  0  0  0  0  0  0  0  0  0
   20.8736   77.5635   17.0610 N   0  0  0  0  0  0  0  0  0  0  0  0
   22.0554   77.7663   17.8099 C   0  0  0  0  0  0  0  0  0  0  0  0
   22.1155   79.2332   18.1773 C   0  0  0  0  0  0  0  0  0  0  0  0
   20.7150   77.2816   15.6876 C   0  0  0  0  0  0  0  0  0  0  0  0
   20.0561   76.1438   15.3129 N   0  0  0  0  0  0  0  0  0  0  0  0
   19.8711   75.7458   14.0606 C   0  0  0  0  0  0  0  0  0  0  0  0
   20.3613   76.5072   13.0680 N   0  0  0  0  0  0  0  0  0  0  0  0
   21.0220   77.6457   13.3772 C   0  0  0  0  0  0  0  0  0  0  0  0
   21.5982   78.5922   12.6133 N   0  0  0  0  0  0  0  0  0  0  0  0
   22.1156   79.5363   13.3996 C   0  0  0  0  0  0  0  0  0  0  0  0
   21.8907   79.2320   14.6901 N   0  0  0  0  0  0  0  0  0  0  0  0
   21.2197   78.0691   14.6929 C   0  0  0  0  0  0  0  0  0  0  0  0
   19.1640   74.5306   13.7353 N   0  0  0  0  0  0  0  0  0  0  0  0
   22.1929   79.8256   15.4919 H   0  0  0  0  0  0  0  0  0  0  0  0
   19.6148   73.7541   13.2321 H   0  0  0  0  0  0  0  0  0  0  0  0
   18.1683   74.4243   14.0136 H   0  0  0  0  0  0  0  0  0  0  0  0
   20.3679   80.8735   17.8610 C   0  0  0  0  0  0  0  0  0  0  0  0
   19.0630   85.6182   21.2810 Cl  0  0  0  0  0  0  0  0  0  0  0  0
   19.4482   84.2378   20.2735 C   0  0  0  0  0  0  0  0  0  0  0  0
   20.1150   84.4262   19.0814 C   0  0  0  0  0  0  0  0  0  0  0  0
   20.3936   83.2928   18.3258 C   0  0  0  0  0  0  0  0  0  0  0  0
   20.0424   82.0217   18.7049 C   0  0  0  0  0  0  0  0  0  0  0  0
   19.3808   81.8565   19.8954 C   0  0  0  0  0  0  0  0  0  0  0  0
   19.0961   82.9638   20.6571 C   0  0  0  0  0  0  0  0  0  0  0  0
 21 22  1  0  0  0
 22 23  2  0  0  0
 22 27  1  0  0  0
 23 24  1  0  0  0
 24 25  2  0  0  0
 25 26  1  0  0  0
 25 20  1  0  0  0
 26 27  2  0  0  0
 20  1  1  0  0  0
  1  2  1  0  0  0
  1  6  1  0  0  0
  2  3  1  0  0  0
  3  4  1  0  0  0
  4  5  1  0  0  0
  4  7  1  0  0  0
  5  6  1  0  0  0
  7  8  2  0  0  0
  7 15  1  0  0  0
  8  9  1  0  0  0
  9 10  2  0  0  0
  9 16  1  0  0  0
 10 11  1  0  0  0
 11 12  1  0  0  0
 11 15  2  0  0  0
 12 13  2  0  0  0
 13 14  1  0  0  0
 14 15  1  0  0  0
 14 17  1  0  0  0
 16 18  1  0  0  0
 16 19  1  0  0  0
M  END
> <minimizedAffinity>
-9.57767

$$$$
2149


 24 27  0  0  0  0  0  0  0  0999 V2000
   22.7450   78.0860   15.1875 N   0  0  0  0  0  0  0  0  0  0  0  0
   23.2953   79.0382   14.4578 N   0  0  0  0  0  0  0  0  0  0  0  0
   22.6920   79.1527   13.2891 N   0  0  0  0  0  0  0  0  0  0  0  0
   21.7096   78.2542   13.2292 C   0  0  0  0  0  0  0  0  0  0  0  0
   21.7408   77.5780   14.4295 C   0  0  0  0  0  0  0  0  0  0  0  0
   20.8380   76.6059   14.6239 N   0  0  0  0  0  0  0  0  0  0  0  0
   19.9328   76.3036   13.6773 C   0  0  0  0  0  0  0  0  0  0  0  0
   19.9218   76.9773   12.5135 N   0  0  0  0  0  0  0  0  0  0  0  0
   20.7938   77.9775   12.2212 C   0  0  0  0  0  0  0  0  0  0  0  0
   20.7860   78.6852   11.0061 N   0  0  0  0  0  0  0  0  0  0  0  0
   21.6692   78.4865    9.8879 C   0  0  0  0  0  0  0  0  0  0  0  0
   20.8496   78.1361    8.7020 C   0  0  0  0  0  0  0  0  0  0  0  0
   19.4770   78.4195    8.7368 N   0  0  0  0  0  0  0  0  0  0  0  0
   18.9658   79.3557    9.6446 C   0  0  0  0  0  0  0  0  0  0  0  0
   19.8161   79.7320   10.7993 C   0  0  0  0  0  0  0  0  0  0  0  0
   18.7339   77.1777    8.8545 C   0  0  0  0  0  0  0  0  0  0  0  0
   23.1072   77.6388   16.5311 C   0  0  0  0  0  0  0  0  0  0  0  0
   18.9234   79.8156   20.2635 Cl  0  0  0  0  0  0  0  0  0  0  0  0
   20.1414   79.1586   19.1752 C   0  0  0  0  0  0  0  0  0  0  0  0
   20.9893   80.0037   18.5048 C   0  0  0  0  0  0  0  0  0  0  0  0
   21.9420   79.4697   17.6523 C   0  0  0  0  0  0  0  0  0  0  0  0
   22.0565   78.1198   17.4644 C   0  0  0  0  0  0  0  0  0  0  0  0
   21.2088   77.2705   18.1350 C   0  0  0  0  0  0  0  0  0  0  0  0
   20.2648   77.7982   18.9791 C   0  0  0  0  0  0  0  0  0  0  0  0
 18 19  1  0  0  0
 19 20  2  0  0  0
 19 24  1  0  0  0
 20 21  1  0  0  0
 21 22  2  0  0  0
 22 23  1  0  0  0
 22 17  1  0  0  0
 23 24  2  0  0  0
 17  1  1  0  0  0
  1  2  1  0  0  0
  1  5  1  0  0  0
  2  3  2  0  0  0
  3  4  1  0  0  0
  4  5  2  0  0  0
  4  9  1  0  0  0
  5  6  1  0  0  0
  6  7  2  0  0  0
  7  8  1  0  0  0
  8  9  2  0  0  0
  9 10  1  0  0  0
 10 11  1  0  0  0
 10 15  1  0  0  0
 11 12  1  0  0  0
 12 13  1  0  0  0
 13 14  1  0  0  0
 13 16  1  0  0  0
 14 15  1  0  0  0
M  END
> <minimizedAffinity>
-8.83660

$$$$
2163


 31 34  0  0  0  0  0  0  0  0999 V2000
   19.9015   77.0955   11.6147 C   0  0  0  0  0  0  0  0  0  0  0  0
   19.7989   77.0177   10.2703 N   0  0  0  0  0  0  0  0  0  0  0  0
   19.2878   75.9387    9.6664 C   0  0  0  0  0  0  0  0  0  0  0  0
   18.8713   74.9162   10.4296 N   0  0  0  0  0  0  0  0  0  0  0  0
   18.9439   74.9267   11.7875 C   0  0  0  0  0  0  0  0  0  0  0  0
   19.4749   76.0559   12.3322 N   0  0  0  0  0  0  0  0  0  0  0  0
   19.1809   75.8563    8.2520 N   0  0  0  0  0  0  0  0  0  0  0  0
   18.5974   76.9135    7.4561 C   0  0  0  0  0  0  0  0  0  0  0  0
   17.6967   76.3504    6.3672 C   0  0  0  0  0  0  0  0  0  0  0  0
   18.3179   75.2732    5.7253 O   0  0  0  0  0  0  0  0  0  0  0  0
   18.5764   74.2420    6.5963 C   0  0  0  0  0  0  0  0  0  0  0  0
   19.6629   74.6873    7.5510 C   0  0  0  0  0  0  0  0  0  0  0  0
   18.5058   73.8517   12.5817 N   0  0  0  0  0  0  0  0  0  0  0  0
   19.4328   72.9259   13.1610 C   0  0  0  0  0  0  0  0  0  0  0  0
   18.9783   71.5258   12.7540 C   0  0  0  0  0  0  0  0  0  0  0  0
   17.6676   71.3869   13.1764 O   0  0  0  0  0  0  0  0  0  0  0  0
   16.7940   72.2029   12.4971 C   0  0  0  0  0  0  0  0  0  0  0  0
   17.1054   73.6637   12.8237 C   0  0  0  0  0  0  0  0  0  0  0  0
   20.4389   78.2269   12.2888 N   0  0  0  0  0  0  0  0  0  0  0  0
   20.2722   79.2049   11.9268 H   0  0  0  0  0  0  0  0  0  0  0  0
   21.6412   79.1223   14.1146 C   0  0  0  0  0  0  0  0  0  0  0  0
   21.2063   78.1193   13.4497 N   0  0  0  0  0  0  0  0  0  0  0  0
   26.4602   79.0851   16.4042 Br  0  0  0  0  0  0  0  0  0  0  0  0
   24.5590   78.9575   16.4469 C   0  0  0  0  0  0  0  0  0  0  0  0
   23.8128   79.0836   15.2963 C   0  0  0  0  0  0  0  0  0  0  0  0
   22.4424   78.9909   15.3263 C   0  0  0  0  0  0  0  0  0  0  0  0
   21.8338   78.7674   16.5422 C   0  0  0  0  0  0  0  0  0  0  0  0
   22.5788   78.6383   17.7170 C   0  0  0  0  0  0  0  0  0  0  0  0
   23.9606   78.7323   17.6802 C   0  0  0  0  0  0  0  0  0  0  0  0
   20.4467   78.6786   16.5442 O   0  0  0  0  0  0  0  0  0  0  0  0
   19.7322   77.5798   17.0603 C   0  0  0  0  0  0  0  0  0  0  0  0
 23 24  1  0  0  0
 24 25  2  0  0  0
 24 29  1  0  0  0
 25 26  1  0  0  0
 26 27  2  0  0  0
 26 21  1  0  0  0
 27 28  1  0  0  0
 27 30  1  0  0  0
 28 29  2  0  0  0
 30 31  1  0  0  0
 21 22  2  0  0  0
 22 19  1  0  0  0
 19  1  1  0  0  0
  1  2  2  0  0  0
  1  6  1  0  0  0
  2  3  1  0  0  0
  3  4  2  0  0  0
  3  7  1  0  0  0
  4  5  1  0  0  0
  5  6  2  0  0  0
  5 13  1  0  0  0
 13 14  1  0  0  0
 13 18  1  0  0  0
 14 15  1  0  0  0
 15 16  1  0  0  0
 16 17  1  0  0  0
 17 18  1  0  0  0
  7  8  1  0  0  0
  7 12  1  0  0  0
  8  9  1  0  0  0
  9 10  1  0  0  0
 10 11  1  0  0  0
 11 12  1  0  0  0
 19 20  1  0  0  0
M  END
> <minimizedAffinity>
-9.67457

$$$$
2164


 25 28  0  0  0  0  0  0  0  0999 V2000
   19.8069   78.0439   19.4056 C   0  0  0  0  0  0  0  0  0  0  0  0
   21.1458   77.8786   18.7348 C   0  0  0  0  0  0  0  0  0  0  0  0
   20.5040   77.7651   17.4167 N   0  0  0  0  0  0  0  0  0  0  0  0
   19.2748   77.4648   18.1274 C   0  0  0  0  0  0  0  0  0  0  0  0
   20.9701   77.9053   16.0807 C   0  0  0  0  0  0  0  0  0  0  0  0
   20.8313   76.9165   15.1597 N   0  0  0  0  0  0  0  0  0  0  0  0
   21.2871   77.0765   13.8827 C   0  0  0  0  0  0  0  0  0  0  0  0
   21.8838   78.2087   13.4972 N   0  0  0  0  0  0  0  0  0  0  0  0
   22.0535   79.2206   14.3499 C   0  0  0  0  0  0  0  0  0  0  0  0
   22.6130   80.4390   14.2103 N   0  0  0  0  0  0  0  0  0  0  0  0
   22.5088   81.0313   15.3800 N   0  0  0  0  0  0  0  0  0  0  0  0
   21.9006   80.2276   16.2598 N   0  0  0  0  0  0  0  0  0  0  0  0
   21.5921   79.0567   15.6402 C   0  0  0  0  0  0  0  0  0  0  0  0
   23.2215   81.0196   13.0160 C   0  0  0  0  0  0  0  0  0  0  0  0
   20.3691   80.4875   19.4274 N   0  0  0  0  0  0  0  0  0  0  0  0
   19.4208   79.4772   19.6503 C   0  0  0  0  0  0  0  0  0  0  0  0
   18.2576   79.6489   20.0429 O   0  0  0  0  0  0  0  0  0  0  0  0
   21.3584   80.2038   19.0824 H   0  0  0  0  0  0  0  0  0  0  0  0
   18.9087   84.2334   22.8587 Br  0  0  0  0  0  0  0  0  0  0  0  0
   19.4868   83.6534   21.1382 C   0  0  0  0  0  0  0  0  0  0  0  0
   19.7242   82.3257   20.8697 C   0  0  0  0  0  0  0  0  0  0  0  0
   20.1500   81.8661   19.6144 C   0  0  0  0  0  0  0  0  0  0  0  0
   20.3221   82.8194   18.6504 C   0  0  0  0  0  0  0  0  0  0  0  0
   20.0777   84.1656   18.9325 C   0  0  0  0  0  0  0  0  0  0  0  0
   19.6659   84.5833   20.1576 C   0  0  0  0  0  0  0  0  0  0  0  0
 19 20  1  0  0  0
 20 21  2  0  0  0
 20 25  1  0  0  0
 21 22  1  0  0  0
 22 23  2  0  0  0
 22 15  1  0  0  0
 23 24  1  0  0  0
 24 25  2  0  0  0
 15 16  1  0  0  0
 16 17  2  0  0  0
 16  1  1  0  0  0
  1  2  1  0  0  0
  1  4  1  0  0  0
  2  3  1  0  0  0
  3  4  1  0  0  0
  3  5  1  0  0  0
  5  6  2  0  0  0
  5 13  1  0  0  0
  6  7  1  0  0  0
  7  8  2  0  0  0
  8  9  1  0  0  0
  9 10  1  0  0  0
  9 13  2  0  0  0
 10 11  1  0  0  0
 10 14  1  0  0  0
 11 12  2  0  0  0
 12 13  1  0  0  0
 15 18  1  0  0  0
M  END
> <minimizedAffinity>
-9.57150

$$$$
2170


 32 36  0  0  0  0  0  0  0  0999 V2000
   20.1385   76.8902   13.7727 N   0  0  0  0  0  0  0  0  0  0  0  0
   20.5801   77.4324   12.6578 N   0  0  0  0  0  0  0  0  0  0  0  0
   21.4953   78.3831   12.8947 C   0  0  0  0  0  0  0  0  0  0  0  0
   21.9313   78.9238   11.7461 N   0  0  0  0  0  0  0  0  0  0  0  0
   21.2972   78.3277   10.7131 C   0  0  0  0  0  0  0  0  0  0  0  0
   20.4467   77.3874   11.3050 C   0  0  0  0  0  0  0  0  0  0  0  0
   19.6816   76.6540   10.4231 C   0  0  0  0  0  0  0  0  0  0  0  0
   18.8927   75.7915   10.9134 O   0  0  0  0  0  0  0  0  0  0  0  0
   19.7304   76.8085    9.0730 N   0  0  0  0  0  0  0  0  0  0  0  0
   20.5738   77.7304    8.5845 C   0  0  0  0  0  0  0  0  0  0  0  0
   20.6045   77.8598    7.3164 O   0  0  0  0  0  0  0  0  0  0  0  0
   21.3472   78.4827    9.3797 N   0  0  0  0  0  0  0  0  0  0  0  0
   22.2290   79.4550    8.7922 C   0  0  0  0  0  0  0  0  0  0  0  0
   18.8957   75.9969    8.2169 C   0  0  0  0  0  0  0  0  0  0  0  0
   21.6194   78.4260   14.2454 N   0  0  0  0  0  0  0  0  0  0  0  0
   20.7967   77.5214   14.7930 C   0  0  0  0  0  0  0  0  0  0  0  0
   20.6009   77.2263   16.1729 N   0  0  0  0  0  0  0  0  0  0  0  0
   19.2759   77.0108   16.7292 C   0  0  0  0  0  0  0  0  0  0  0  0
   19.2410   77.6549   18.0933 C   0  0  0  0  0  0  0  0  0  0  0  0
   20.2769   77.1447   18.8920 O   0  0  0  0  0  0  0  0  0  0  0  0
   21.5144   77.5574   18.4495 C   0  0  0  0  0  0  0  0  0  0  0  0
   21.7438   77.1319   17.0422 C   0  0  0  0  0  0  0  0  0  0  0  0
   19.1603   75.8478   13.9807 C   0  0  0  0  0  0  0  0  0  0  0  0
   19.7152   74.4867   13.8784 C   0  0  0  0  0  0  0  0  0  0  0  0
   20.8797   74.2029   14.2378 O   0  0  0  0  0  0  0  0  0  0  0  0
   16.2382   70.1061   11.6143 Cl  0  0  0  0  0  0  0  0  0  0  0  0
   17.2393   71.3881   12.2745 C   0  0  0  0  0  0  0  0  0  0  0  0
   16.7069   72.6270   12.6051 C   0  0  0  0  0  0  0  0  0  0  0  0
   17.5114   73.6221   13.1231 C   0  0  0  0  0  0  0  0  0  0  0  0
   18.8616   73.4390   13.3333 C   0  0  0  0  0  0  0  0  0  0  0  0
   19.3842   72.1847   12.9958 C   0  0  0  0  0  0  0  0  0  0  0  0
   18.5882   71.1847   12.4785 C   0  0  0  0  0  0  0  0  0  0  0  0
 26 27  1  0  0  0
 27 28  2  0  0  0
 27 32  1  0  0  0
 28 29  1  0  0  0
 29 30  2  0  0  0
 30 31  1  0  0  0
 30 24  1  0  0  0
 31 32  2  0  0  0
 24 25  2  0  0  0
 24 23  1  0  0  0
 23  1  1  0  0  0
  1  2  1  0  0  0
  1 16  1  0  0  0
  2  3  1  0  0  0
  2  6  1  0  0  0
  3  4  2  0  0  0
  3 15  1  0  0  0
  4  5  1  0  0  0
  5  6  2  0  0  0
  5 12  1  0  0  0
  6  7  1  0  0  0
  7  8  2  0  0  0
  7  9  1  0  0  0
  9 10  1  0  0  0
  9 14  1  0  0  0
 10 11  2  0  0  0
 10 12  1  0  0  0
 12 13  1  0  0  0
 15 16  2  0  0  0
 16 17  1  0  0  0
 17 18  1  0  0  0
 17 22  1  0  0  0
 18 19  1  0  0  0
 19 20  1  0  0  0
 20 21  1  0  0  0
 21 22  1  0  0  0
M  END
> <minimizedAffinity>
-10.40522

$$$$
2177


 31 35  0  0  0  0  0  0  0  0999 V2000
   21.0324   78.7075   10.8294 N   0  0  0  0  0  0  0  0  0  0  0  0
   20.0305   77.7462   11.2245 C   0  0  0  0  0  0  0  0  0  0  0  0
   19.0475   77.5988   10.0922 C   0  0  0  0  0  0  0  0  0  0  0  0
   19.6818   77.4849    8.7937 N   0  0  0  0  0  0  0  0  0  0  0  0
   20.7121   78.4385    8.4343 C   0  0  0  0  0  0  0  0  0  0  0  0
   21.7050   78.5148    9.5647 C   0  0  0  0  0  0  0  0  0  0  0  0
   26.4292   78.3589   17.8733 Cl  0  0  0  0  0  0  0  0  0  0  0  0
   25.3695   78.3646   16.4599 C   0  0  0  0  0  0  0  0  0  0  0  0
   24.6973   79.5174   16.1193 C   0  0  0  0  0  0  0  0  0  0  0  0
   23.8656   79.5549   15.0266 C   0  0  0  0  0  0  0  0  0  0  0  0
   23.6766   78.4413   14.2334 C   0  0  0  0  0  0  0  0  0  0  0  0
   24.3571   77.2962   14.5897 C   0  0  0  0  0  0  0  0  0  0  0  0
   25.1932   77.2431   15.6814 C   0  0  0  0  0  0  0  0  0  0  0  0
   22.8052   78.5418   13.1178 N   0  0  0  0  0  0  0  0  0  0  0  0
   22.1032   79.7259   12.7533 C   0  0  0  0  0  0  0  0  0  0  0  0
   21.3043   79.7863   11.7135 C   0  0  0  0  0  0  0  0  0  0  0  0
   22.2927   80.8766   13.5626 N   0  0  0  0  0  0  0  0  0  0  0  0
   23.1527   80.7992   14.6744 C   0  0  0  0  0  0  0  0  0  0  0  0
   23.3699   81.7904   15.4451 O   0  0  0  0  0  0  0  0  0  0  0  0
   22.6561   77.7060   12.5135 H   0  0  0  0  0  0  0  0  0  0  0  0
   21.8132   81.7829   13.3601 H   0  0  0  0  0  0  0  0  0  0  0  0
   19.2860   76.4462    7.8956 C   0  0  0  0  0  0  0  0  0  0  0  0
   19.9541   75.2762    7.9206 N   0  0  0  0  0  0  0  0  0  0  0  0
   19.6099   74.2591    7.0816 C   0  0  0  0  0  0  0  0  0  0  0  0
   18.5915   74.4024    6.2052 N   0  0  0  0  0  0  0  0  0  0  0  0
   17.8912   75.5392    6.1337 C   0  0  0  0  0  0  0  0  0  0  0  0
   16.8563   75.9422    5.3743 N   0  0  0  0  0  0  0  0  0  0  0  0
   16.5626   77.1795    5.7320 N   0  0  0  0  0  0  0  0  0  0  0  0
   17.4013   77.5912    6.7242 C   0  0  0  0  0  0  0  0  0  0  0  0
   18.2567   76.5709    7.0002 C   0  0  0  0  0  0  0  0  0  0  0  0
   16.1611   75.1757    4.3357 C   0  0  0  0  0  0  0  0  0  0  0  0
  7  8  1  0  0  0
  8  9  2  0  0  0
  8 13  1  0  0  0
  9 10  1  0  0  0
 10 11  2  0  0  0
 10 18  1  0  0  0
 11 12  1  0  0  0
 11 14  1  0  0  0
 12 13  2  0  0  0
 14 15  1  0  0  0
 15 16  2  0  0  0
 15 17  1  0  0  0
 16  1  1  0  0  0
  1  2  1  0  0  0
  1  6  1  0  0  0
  2  3  1  0  0  0
  3  4  1  0  0  0
  4  5  1  0  0  0
  4 22  1  0  0  0
  5  6  1  0  0  0
 22 23  2  0  0  0
 22 30  1  0  0  0
 23 24  1  0  0  0
 24 25  2  0  0  0
 25 26  1  0  0  0
 26 27  1  0  0  0
 26 30  2  0  0  0
 27 28  1  0  0  0
 27 31  1  0  0  0
 28 29  2  0  0  0
 29 30  1  0  0  0
 17 18  1  0  0  0
 18 19  2  0  0  0
 14 20  1  0  0  0
 17 21  1  0  0  0
M  END
> <minimizedAffinity>
-9.72042

$$$$
2184


 29 32  0  0  0  0  0  0  0  0999 V2000
   21.0462   77.1250   16.7969 N   0  0  0  0  0  0  0  0  0  0  0  0
   19.9606   77.5704   17.5268 C   0  0  0  0  0  0  0  0  0  0  0  0
   20.4147   78.0568   18.9464 C   0  0  0  0  0  0  0  0  0  0  0  0
   21.1354   79.3457   18.5065 N   0  0  0  0  0  0  0  0  0  0  0  0
   22.2911   79.0716   17.8030 C   0  0  0  0  0  0  0  0  0  0  0  0
   22.2796   77.5530   17.5190 C   0  0  0  0  0  0  0  0  0  0  0  0
   21.0974   76.0621   16.9184 H   0  0  0  0  0  0  0  0  0  0  0  0
   20.4191   80.5103   18.8579 C   0  0  0  0  0  0  0  0  0  0  0  0
   19.7130   80.7106   19.9923 C   0  0  0  0  0  0  0  0  0  0  0  0
   19.2375   82.0012   20.3625 C   0  0  0  0  0  0  0  0  0  0  0  0
   19.4741   83.1026   19.5843 C   0  0  0  0  0  0  0  0  0  0  0  0
   20.1931   82.9057   18.4096 C   0  0  0  0  0  0  0  0  0  0  0  0
   20.6483   81.6444   18.0556 C   0  0  0  0  0  0  0  0  0  0  0  0
   18.9878   84.3403   19.9867 O   0  0  0  0  0  0  0  0  0  0  0  0
   18.1425   84.4613   21.1411 C   0  0  0  0  0  0  0  0  0  0  0  0
   21.2661   77.3622   15.4375 C   0  0  0  0  0  0  0  0  0  0  0  0
   22.4832   80.6434   11.6410 Cl  0  0  0  0  0  0  0  0  0  0  0  0
   21.5337   79.1650   11.8295 C   0  0  0  0  0  0  0  0  0  0  0  0
   21.3714   78.5132   13.0227 C   0  0  0  0  0  0  0  0  0  0  0  0
   20.5924   77.4134   13.1164 C   0  0  0  0  0  0  0  0  0  0  0  0
   19.9387   76.9151   12.0236 C   0  0  0  0  0  0  0  0  0  0  0  0
   20.1064   77.5845   10.7877 C   0  0  0  0  0  0  0  0  0  0  0  0
   20.8953   78.6949   10.6769 C   0  0  0  0  0  0  0  0  0  0  0  0
   21.0606   79.3257    9.4234 O   0  0  0  0  0  0  0  0  0  0  0  0
   19.1593   75.8729   12.0810 O   0  0  0  0  0  0  0  0  0  0  0  0
   18.9698   75.2460   13.2366 C   0  0  0  0  0  0  0  0  0  0  0  0
   18.2248   74.2585   13.2677 O   0  0  0  0  0  0  0  0  0  0  0  0
   19.6053   75.6970   14.4112 C   0  0  0  0  0  0  0  0  0  0  0  0
   20.4224   76.7731   14.3848 C   0  0  0  0  0  0  0  0  0  0  0  0
 17 18  1  0  0  0
 18 19  2  0  0  0
 18 23  1  0  0  0
 19 20  1  0  0  0
 20 21  2  0  0  0
 20 29  1  0  0  0
 21 22  1  0  0  0
 21 25  1  0  0  0
 22 23  2  0  0  0
 23 24  1  0  0  0
 25 26  1  0  0  0
 26 27  2  0  0  0
 26 28  1  0  0  0
 28 29  2  0  0  0
 29 16  1  0  0  0
 16  1  1  0  0  0
  1  2  1  0  0  0
  1  6  1  0  0  0
  2  3  1  0  0  0
  3  4  1  0  0  0
  4  5  1  0  0  0
  4  8  1  0  0  0
  5  6  1  0  0  0
  8  9  2  0  0  0
  8 13  1  0  0  0
  9 10  1  0  0  0
 10 11  2  0  0  0
 11 12  1  0  0  0
 11 14  1  0  0  0
 12 13  2  0  0  0
 14 15  1  0  0  0
  1  7  1  0  0  0
M  CHG 1   1   1
M  CHG 1  24  -1
M  END
> <minimizedAffinity>
-10.53089

$$$$
2195


 29 32  0  0  0  0  0  0  0  0999 V2000
   21.3047   80.0724   16.5248 C   0  0  0  0  0  0  0  0  0  0  0  0
   21.0050   80.9657   17.4655 N   0  0  0  0  0  0  0  0  0  0  0  0
   20.0195   80.7563   18.3554 C   0  0  0  0  0  0  0  0  0  0  0  0
   19.5171   81.4818   19.3920 N   0  0  0  0  0  0  0  0  0  0  0  0
   18.5442   80.7634   19.9116 N   0  0  0  0  0  0  0  0  0  0  0  0
   18.3929   79.6200   19.2705 N   0  0  0  0  0  0  0  0  0  0  0  0
   19.2971   79.5726   18.2859 C   0  0  0  0  0  0  0  0  0  0  0  0
   19.5981   78.6347   17.3131 C   0  0  0  0  0  0  0  0  0  0  0  0
   20.5973   78.9395   16.4743 N   0  0  0  0  0  0  0  0  0  0  0  0
   18.8876   77.4457   17.2272 O   0  0  0  0  0  0  0  0  0  0  0  0
   18.8919   76.7968   17.9995 H   0  0  0  0  0  0  0  0  0  0  0  0
   24.1333   78.5193   15.2003 N   0  0  0  0  0  0  0  0  0  0  0  0
   23.6739   79.6480   15.8752 C   0  0  0  0  0  0  0  0  0  0  0  0
   22.3932   80.2669   15.5282 C   0  0  0  0  0  0  0  0  0  0  0  0
   21.9031   79.7902   14.1854 C   0  0  0  0  0  0  0  0  0  0  0  0
   21.9046   78.3035   14.1804 C   0  0  0  0  0  0  0  0  0  0  0  0
   23.3072   77.7960   14.3513 C   0  0  0  0  0  0  0  0  0  0  0  0
   25.3840   77.6864   15.9838 S   0  0  0  0  0  0  0  0  0  0  0  0
   25.9325   76.5578   15.1833 O   0  0  0  0  0  0  0  0  0  0  0  0
   24.8555   77.1881   17.3136 O   0  0  0  0  0  0  0  0  0  0  0  0
   26.7361   78.7980   16.3997 C   0  0  0  0  0  0  0  0  0  0  0  0
   19.9658   82.7694   19.8218 C   0  0  0  0  0  0  0  0  0  0  0  0
   20.0875   82.8955   21.2943 C   0  0  0  0  0  0  0  0  0  0  0  0
   19.1699   83.6656   21.9633 C   0  0  0  0  0  0  0  0  0  0  0  0
   19.2114   83.8375   23.3451 C   0  0  0  0  0  0  0  0  0  0  0  0
   20.1986   83.2231   24.0851 C   0  0  0  0  0  0  0  0  0  0  0  0
   21.1229   82.4480   23.4206 C   0  0  0  0  0  0  0  0  0  0  0  0
   21.0715   82.2833   22.0381 C   0  0  0  0  0  0  0  0  0  0  0  0
   17.8898   84.4744   21.0835 Cl  0  0  0  0  0  0  0  0  0  0  0  0
 18 19  2  0  0  0
 18 20  2  0  0  0
 18 12  1  0  0  0
 18 21  1  0  0  0
 12 13  1  0  0  0
 12 17  1  0  0  0
 13 14  1  0  0  0
 14 15  1  0  0  0
 14  1  1  0  0  0
 15 16  1  0  0  0
 16 17  1  0  0  0
  1  2  2  0  0  0
  1  9  1  0  0  0
  2  3  1  0  0  0
  3  4  1  0  0  0
  3  7  2  0  0  0
  4  5  1  0  0  0
  4 22  1  0  0  0
  5  6  2  0  0  0
  6  7  1  0  0  0
  7  8  1  0  0  0
  8  9  2  0  0  0
  8 10  1  0  0  0
 22 23  1  0  0  0
 23 24  2  0  0  0
 23 28  1  0  0  0
 24 25  1  0  0  0
 24 29  1  0  0  0
 25 26  2  0  0  0
 26 27  1  0  0  0
 27 28  2  0  0  0
 10 11  1  0  0  0
M  END
> <minimizedAffinity>
-11.23384

$$$$
2197


 28 31  0  0  0  0  0  0  0  0999 V2000
   23.0827   77.9880   14.0891 N   0  0  0  0  0  0  0  0  0  0  0  0
   22.2450   77.6234   15.2502 C   0  0  0  0  0  0  0  0  0  0  0  0
   22.4699   78.6530   16.2946 C   0  0  0  0  0  0  0  0  0  0  0  0
   23.7320   79.0094   16.5949 O   0  0  0  0  0  0  0  0  0  0  0  0
   24.7372   78.7121   15.7583 C   0  0  0  0  0  0  0  0  0  0  0  0
   24.4138   77.8850   14.5624 C   0  0  0  0  0  0  0  0  0  0  0  0
   21.7918   78.1726   17.5343 C   0  0  0  0  0  0  0  0  0  0  0  0
   22.3542   77.2436   18.1732 O   0  0  0  0  0  0  0  0  0  0  0  0
   20.5788   78.6801   18.0356 N   0  0  0  0  0  0  0  0  0  0  0  0
   19.8187   79.7457   17.4099 C   0  0  0  0  0  0  0  0  0  0  0  0
   18.5318   79.9000   18.1959 C   0  0  0  0  0  0  0  0  0  0  0  0
   18.7625   80.2635   19.5815 N   0  0  0  0  0  0  0  0  0  0  0  0
   19.7419   79.3903   20.1457 C   0  0  0  0  0  0  0  0  0  0  0  0
   19.9743   78.1534   19.2685 C   0  0  0  0  0  0  0  0  0  0  0  0
   19.0819   81.6535   19.6334 C   0  0  0  0  0  0  0  0  0  0  0  0
   19.9595   82.0342   20.7942 C   0  0  0  0  0  0  0  0  0  0  0  0
   19.4403   83.2454   21.5676 C   0  0  0  0  0  0  0  0  0  0  0  0
   20.7382   83.2737   20.8226 C   0  0  0  0  0  0  0  0  0  0  0  0
   22.5658   79.4245   13.3794 S   0  0  0  0  0  0  0  0  0  0  0  0
   21.4364   79.9858   14.2537 O   0  0  0  0  0  0  0  0  0  0  0  0
   23.6113   80.5130   13.3909 O   0  0  0  0  0  0  0  0  0  0  0  0
   21.8742   79.2195   11.8018 C   0  0  0  0  0  0  0  0  0  0  0  0
   22.6357   78.8445   10.7167 C   0  0  0  0  0  0  0  0  0  0  0  0
   22.1048   78.7354    9.4456 C   0  0  0  0  0  0  0  0  0  0  0  0
   20.7743   79.0037    9.2428 C   0  0  0  0  0  0  0  0  0  0  0  0
   19.9912   79.3803   10.3241 C   0  0  0  0  0  0  0  0  0  0  0  0
   20.5224   79.4882   11.5784 C   0  0  0  0  0  0  0  0  0  0  0  0
   24.3399   78.3956   10.9199 Cl  0  0  0  0  0  0  0  0  0  0  0  0
 19 20  2  0  0  0
 19 21  2  0  0  0
 19  1  1  0  0  0
 19 22  1  0  0  0
  1  2  1  0  0  0
  1  6  1  0  0  0
  2  3  1  0  0  0
  3  4  1  0  0  0
  3  7  1  0  0  0
  4  5  1  0  0  0
  5  6  1  0  0  0
  7  8  2  0  0  0
  7  9  1  0  0  0
  9 10  1  0  0  0
  9 14  1  0  0  0
 10 11  1  0  0  0
 11 12  1  0  0  0
 12 13  1  0  0  0
 12 15  1  0  0  0
 13 14  1  0  0  0
 15 16  1  0  0  0
 16 17  1  0  0  0
 16 18  1  0  0  0
 17 18  1  0  0  0
 22 23  2  0  0  0
 22 27  1  0  0  0
 23 24  1  0  0  0
 23 28  1  0  0  0
 24 25  2  0  0  0
 25 26  1  0  0  0
 26 27  2  0  0  0
M  END
> <minimizedAffinity>
-9.01793

$$$$
2210


 33 36  0  0  0  0  0  0  0  0999 V2000
   20.6159   78.4743   10.6676 C   0  0  0  0  0  0  0  0  0  0  0  0
   21.2265   78.8484   11.7993 C   0  0  0  0  0  0  0  0  0  0  0  0
   21.2295   78.0949   12.9676 O   0  0  0  0  0  0  0  0  0  0  0  0
   21.9850   78.7703   13.9360 C   0  0  0  0  0  0  0  0  0  0  0  0
   22.4873   79.9481   13.4746 C   0  0  0  0  0  0  0  0  0  0  0  0
   23.2776   80.7586   14.2556 C   0  0  0  0  0  0  0  0  0  0  0  0
   23.5831   80.3788   15.5582 C   0  0  0  0  0  0  0  0  0  0  0  0
   23.0629   79.1707   16.0259 C   0  0  0  0  0  0  0  0  0  0  0  0
   22.2807   78.3757   15.2520 C   0  0  0  0  0  0  0  0  0  0  0  0
   23.4137   78.8628   17.3400 O   0  0  0  0  0  0  0  0  0  0  0  0
   22.0038   80.0405   12.0655 C   0  0  0  0  0  0  0  0  0  0  0  0
   22.2198   80.9647   11.2707 O   0  0  0  0  0  0  0  0  0  0  0  0
   18.6333   74.5699   13.6588 Br  0  0  0  0  0  0  0  0  0  0  0  0
   19.0708   75.3492   11.9764 C   0  0  0  0  0  0  0  0  0  0  0  0
   19.6341   76.6359   11.9311 C   0  0  0  0  0  0  0  0  0  0  0  0
   19.9352   77.1691   10.7289 C   0  0  0  0  0  0  0  0  0  0  0  0
   19.7096   76.4861    9.5547 C   0  0  0  0  0  0  0  0  0  0  0  0
   19.1500   75.2019    9.6236 C   0  0  0  0  0  0  0  0  0  0  0  0
   18.8242   74.6267   10.8356 C   0  0  0  0  0  0  0  0  0  0  0  0
   20.0389   77.0652    8.3380 O   0  0  0  0  0  0  0  0  0  0  0  0
   19.2263   77.8787    7.5659 C   0  0  0  0  0  0  0  0  0  0  0  0
   21.5441   77.1891   15.7372 C   0  0  0  0  0  0  0  0  0  0  0  0
   20.5970   77.4744   16.7093 N   0  0  0  0  0  0  0  0  0  0  0  0
   20.9122   76.8145   18.0154 C   0  0  0  0  0  0  0  0  0  0  0  0
   20.7666   77.9540   19.0549 C   0  0  0  0  0  0  0  0  0  0  0  0
   20.0589   79.0449   18.4631 N   0  0  0  0  0  0  0  0  0  0  0  0
   18.8802   78.7030   17.7685 C   0  0  0  0  0  0  0  0  0  0  0  0
   19.2220   77.6389   16.6364 C   0  0  0  0  0  0  0  0  0  0  0  0
   20.9830   78.5170   16.9915 H   0  0  0  0  0  0  0  0  0  0  0  0
   20.5617   80.3207   18.5884 C   0  0  0  0  0  0  0  0  0  0  0  0
   20.4172   81.3068   17.4734 C   0  0  0  0  0  0  0  0  0  0  0  0
   20.4457   82.6241   17.9591 O   0  0  0  0  0  0  0  0  0  0  0  0
   21.0148   83.1863   17.3376 H   0  0  0  0  0  0  0  0  0  0  0  0
 13 14  1  0  0  0
 14 15  2  0  0  0
 14 19  1  0  0  0
 15 16  1  0  0  0
 16 17  2  0  0  0
 16  1  1  0  0  0
 17 18  1  0  0  0
 17 20  1  0  0  0
 18 19  2  0  0  0
 20 21  1  0  0  0
  1  2  2  0  0  0
  2  3  1  0  0  0
  2 11  1  0  0  0
  3  4  1  0  0  0
  4  5  2  0  0  0
  4  9  1  0  0  0
  5  6  1  0  0  0
  5 11  1  0  0  0
  6  7  2  0  0  0
  7  8  1  0  0  0
  8  9  2  0  0  0
  8 10  1  0  0  0
  9 22  1  0  0  0
 22 23  1  0  0  0
 23 24  1  0  0  0
 23 28  1  0  0  0
 24 25  1  0  0  0
 25 26  1  0  0  0
 26 27  1  0  0  0
 26 30  1  0  0  0
 27 28  1  0  0  0
 30 31  1  0  0  0
 31 32  1  0  0  0
 11 12  2  0  0  0
 23 29  1  0  0  0
 32 33  1  0  0  0
M  CHG 1  10  -1
M  CHG 1  23   1
M  END
> <minimizedAffinity>
-9.19271

$$$$
2213


 31 34  0  0  0  0  0  0  0  0999 V2000
   19.0072   75.9277   14.8547 Cl  0  0  0  0  0  0  0  0  0  0  0  0
   18.9432   75.3915   13.1902 C   0  0  0  0  0  0  0  0  0  0  0  0
   19.5703   76.1824   12.2160 C   0  0  0  0  0  0  0  0  0  0  0  0
   19.5368   75.7897   10.9036 C   0  0  0  0  0  0  0  0  0  0  0  0
   18.8657   74.5974   10.6101 C   0  0  0  0  0  0  0  0  0  0  0  0
   18.2533   73.8293   11.5751 C   0  0  0  0  0  0  0  0  0  0  0  0
   18.2843   74.2217   12.9008 C   0  0  0  0  0  0  0  0  0  0  0  0
   17.4152   72.3337   11.1806 Cl  0  0  0  0  0  0  0  0  0  0  0  0
   20.1663   76.5559    9.8174 C   0  0  0  0  0  0  0  0  0  0  0  0
   20.8182   77.7706   10.3351 C   0  0  0  0  0  0  0  0  0  0  0  0
   20.8395   78.1427   11.6425 C   0  0  0  0  0  0  0  0  0  0  0  0
   21.4591   79.2812   12.0702 N   0  0  0  0  0  0  0  0  0  0  0  0
   22.0566   80.0380   11.1532 C   0  0  0  0  0  0  0  0  0  0  0  0
   22.6467   81.1083   11.5039 O   0  0  0  0  0  0  0  0  0  0  0  0
   22.0601   79.7071    9.8460 N   0  0  0  0  0  0  0  0  0  0  0  0
   21.4570   78.5935    9.4159 C   0  0  0  0  0  0  0  0  0  0  0  0
   21.4599   78.2840    8.1970 O   0  0  0  0  0  0  0  0  0  0  0  0
   22.7339   80.5764    8.8916 C   0  0  0  0  0  0  0  0  0  0  0  0
   21.4621   79.6483   13.4699 C   0  0  0  0  0  0  0  0  0  0  0  0
   20.2189   77.3506   12.5699 O   0  0  0  0  0  0  0  0  0  0  0  0
   19.1798   76.8800    8.7339 C   0  0  0  0  0  0  0  0  0  0  0  0
   18.3749   77.9916    8.7920 C   0  0  0  0  0  0  0  0  0  0  0  0
   17.4765   78.3019    7.8443 N   0  0  0  0  0  0  0  0  0  0  0  0
   17.3615   77.4778    6.7852 C   0  0  0  0  0  0  0  0  0  0  0  0
   16.5104   77.7792    5.8979 O   0  0  0  0  0  0  0  0  0  0  0  0
   18.1289   76.3780    6.6877 N   0  0  0  0  0  0  0  0  0  0  0  0
   19.0324   76.0516    7.6225 C   0  0  0  0  0  0  0  0  0  0  0  0
   19.7622   75.0335    7.5587 O   0  0  0  0  0  0  0  0  0  0  0  0
   17.9667   75.5250    5.5329 C   0  0  0  0  0  0  0  0  0  0  0  0
   16.6435   79.4862    7.9325 C   0  0  0  0  0  0  0  0  0  0  0  0
   18.4935   78.8347    9.8779 O   0  0  0  0  0  0  0  0  0  0  0  0
  1  2  1  0  0  0
  2  3  2  0  0  0
  2  7  1  0  0  0
  3  4  1  0  0  0
  3 20  1  0  0  0
  4  5  2  0  0  0
  4  9  1  0  0  0
  5  6  1  0  0  0
  6  7  2  0  0  0
  6  8  1  0  0  0
  9 10  1  0  0  0
  9 21  1  0  0  0
 10 11  2  0  0  0
 10 16  1  0  0  0
 11 12  1  0  0  0
 11 20  1  0  0  0
 12 13  1  0  0  0
 12 19  1  0  0  0
 13 14  2  0  0  0
 13 15  1  0  0  0
 15 16  1  0  0  0
 15 18  1  0  0  0
 16 17  2  0  0  0
 21 22  2  0  0  0
 21 27  1  0  0  0
 22 23  1  0  0  0
 22 31  1  0  0  0
 23 24  1  0  0  0
 23 30  1  0  0  0
 24 25  2  0  0  0
 24 26  1  0  0  0
 26 27  1  0  0  0
 26 29  1  0  0  0
 27 28  2  0  0  0
M  CHG 1  31  -1
M  END
> <minimizedAffinity>
-9.70418

$$$$
2214


 34 38  0  0  0  0  0  0  0  0999 V2000
   19.6037   76.6967   10.5928 Cl  0  0  0  0  0  0  0  0  0  0  0  0
   19.7103   76.4606   12.3242 C   0  0  0  0  0  0  0  0  0  0  0  0
   20.4943   77.2484   13.1225 C   0  0  0  0  0  0  0  0  0  0  0  0
   20.5502   77.0246   14.5007 C   0  0  0  0  0  0  0  0  0  0  0  0
   19.8043   76.0059   15.0142 C   0  0  0  0  0  0  0  0  0  0  0  0
   18.9986   75.1956   14.1971 C   0  0  0  0  0  0  0  0  0  0  0  0
   18.9444   75.4141   12.8498 C   0  0  0  0  0  0  0  0  0  0  0  0
   20.0100   75.9550   16.4225 N   0  0  0  0  0  0  0  0  0  0  0  0
   20.9084   76.9688   16.8035 C   0  0  0  0  0  0  0  0  0  0  0  0
   21.2877   77.1706   18.0003 O   0  0  0  0  0  0  0  0  0  0  0  0
   21.2853   77.6949   15.5864 C   0  0  0  0  0  0  0  0  0  0  0  0
   22.6922   77.5652   15.2777 N   0  0  0  0  0  0  0  0  0  0  0  0
   23.3312   78.8400   15.3619 C   0  0  0  0  0  0  0  0  0  0  0  0
   22.3295   79.7475   15.9582 C   0  0  0  0  0  0  0  0  0  0  0  0
   20.9722   79.1700   15.6669 C   0  0  0  0  0  0  0  0  0  0  0  0
   20.2031   79.5259   16.8795 C   0  0  0  0  0  0  0  0  0  0  0  0
   18.9563   79.5771   17.0266 O   0  0  0  0  0  0  0  0  0  0  0  0
   21.1102   79.8314   17.9602 N   0  0  0  0  0  0  0  0  0  0  0  0
   22.4261   79.6363   17.4559 C   0  0  0  0  0  0  0  0  0  0  0  0
   23.4403   79.4186   18.1591 O   0  0  0  0  0  0  0  0  0  0  0  0
   19.5640   75.2673   17.1016 H   0  0  0  0  0  0  0  0  0  0  0  0
   22.8670   77.1837   14.3218 H   0  0  0  0  0  0  0  0  0  0  0  0
   20.7302   80.2500   19.2930 C   0  0  0  0  0  0  0  0  0  0  0  0
   19.7284   81.3724   19.2981 C   0  0  0  0  0  0  0  0  0  0  0  0
   19.2791   81.5903   20.5979 O   0  0  0  0  0  0  0  0  0  0  0  0
   20.0955   82.5474   21.1561 C   0  0  0  0  0  0  0  0  0  0  0  0
   20.6245   83.4221   20.0406 C   0  0  0  0  0  0  0  0  0  0  0  0
   20.2461   82.6680   18.7809 C   0  0  0  0  0  0  0  0  0  0  0  0
   23.8873   79.3036   14.0421 C   0  0  0  0  0  0  0  0  0  0  0  0
   23.2066   80.4438   13.4575 C   0  0  0  0  0  0  0  0  0  0  0  0
   23.4792   81.6016   13.8392 O   0  0  0  0  0  0  0  0  0  0  0  0
   22.2287   80.2714   12.4531 N   0  0  0  0  0  0  0  0  0  0  0  0
   22.3145   80.8054   11.5570 H   0  0  0  0  0  0  0  0  0  0  0  0
   21.4098   79.6405   12.5367 H   0  0  0  0  0  0  0  0  0  0  0  0
  1  2  1  0  0  0
  2  3  2  0  0  0
  2  7  1  0  0  0
  3  4  1  0  0  0
  4  5  2  0  0  0
  4 11  1  0  0  0
  5  6  1  0  0  0
  5  8  1  0  0  0
  6  7  2  0  0  0
  8  9  1  0  0  0
  9 10  2  0  0  0
  9 11  1  0  0  0
 11 12  1  0  0  0
 11 15  1  0  0  0
 12 13  1  0  0  0
 13 14  1  0  0  0
 13 29  1  0  0  0
 14 15  1  0  0  0
 14 19  1  0  0  0
 15 16  1  0  0  0
 16 17  2  0  0  0
 16 18  1  0  0  0
 18 19  1  0  0  0
 18 23  1  0  0  0
 19 20  2  0  0  0
 23 24  1  0  0  0
 24 25  1  0  0  0
 24 28  1  0  0  0
 25 26  1  0  0  0
 26 27  1  0  0  0
 27 28  1  0  0  0
 29 30  1  0  0  0
 30 31  2  0  0  0
 30 32  1  0  0  0
  8 21  1  0  0  0
 12 22  1  0  0  0
 32 33  1  0  0  0
 32 34  1  0  0  0
M  END
> <minimizedAffinity>
-9.05341

$$$$
2225


 29 32  0  0  0  0  0  0  0  0999 V2000
   21.1561   80.5016   16.9486 C   0  0  0  0  0  0  0  0  0  0  0  0
   21.8624   81.3298   16.2300 O   0  0  0  0  0  0  0  0  0  0  0  0
   21.6359   79.2035   17.0195 N   0  0  0  0  0  0  0  0  0  0  0  0
   22.8861   78.8853   16.2636 C   0  0  0  0  0  0  0  0  0  0  0  0
   22.6601   77.5278   15.6474 C   0  0  0  0  0  0  0  0  0  0  0  0
   21.2557   77.1761   15.5413 N   0  0  0  0  0  0  0  0  0  0  0  0
   20.5092   77.0717   16.7664 C   0  0  0  0  0  0  0  0  0  0  0  0
   21.1119   78.0726   17.7389 C   0  0  0  0  0  0  0  0  0  0  0  0
   20.6738   76.9558   14.2750 C   0  0  0  0  0  0  0  0  0  0  0  0
   20.9032   77.8045   13.2346 N   0  0  0  0  0  0  0  0  0  0  0  0
   20.3824   77.6382   12.0269 C   0  0  0  0  0  0  0  0  0  0  0  0
   19.5798   76.5591   11.8369 N   0  0  0  0  0  0  0  0  0  0  0  0
   19.3102   75.6922   12.7961 C   0  0  0  0  0  0  0  0  0  0  0  0
   19.8598   75.8728   14.0614 C   0  0  0  0  0  0  0  0  0  0  0  0
   20.6108   78.5115   10.9352 N   0  0  0  0  0  0  0  0  0  0  0  0
   21.8420   78.4003   10.1606 C   0  0  0  0  0  0  0  0  0  0  0  0
   22.4380   79.8114   10.1523 C   0  0  0  0  0  0  0  0  0  0  0  0
   21.5663   80.6864    9.5612 O   0  0  0  0  0  0  0  0  0  0  0  0
   20.3689   80.8439   10.2173 C   0  0  0  0  0  0  0  0  0  0  0  0
   19.6794   79.5347   10.5287 C   0  0  0  0  0  0  0  0  0  0  0  0
   19.9612   81.1135   17.5614 C   0  0  0  0  0  0  0  0  0  0  0  0
   19.9378   81.6554   18.7258 O   0  0  0  0  0  0  0  0  0  0  0  0
   19.5089   84.2007   24.0075 Cl  0  0  0  0  0  0  0  0  0  0  0  0
   19.6511   83.4368   22.4442 C   0  0  0  0  0  0  0  0  0  0  0  0
   20.6915   82.5878   22.1452 C   0  0  0  0  0  0  0  0  0  0  0  0
   20.8137   81.9843   20.9304 C   0  0  0  0  0  0  0  0  0  0  0  0
   19.8743   82.1980   19.8984 C   0  0  0  0  0  0  0  0  0  0  0  0
   18.8153   83.0717   20.2240 C   0  0  0  0  0  0  0  0  0  0  0  0
   18.7241   83.6577   21.4512 C   0  0  0  0  0  0  0  0  0  0  0  0
 23 24  1  0  0  0
 24 25  2  0  0  0
 24 29  1  0  0  0
 25 26  1  0  0  0
 26 27  2  0  0  0
 27 28  1  0  0  0
 27 22  1  0  0  0
 28 29  2  0  0  0
 22 21  1  0  0  0
 21  1  1  0  0  0
  1  2  2  0  0  0
  1  3  1  0  0  0
  3  4  1  0  0  0
  3  8  1  0  0  0
  4  5  1  0  0  0
  5  6  1  0  0  0
  6  7  1  0  0  0
  6  9  1  0  0  0
  7  8  1  0  0  0
  9 10  2  0  0  0
  9 14  1  0  0  0
 10 11  1  0  0  0
 11 12  2  0  0  0
 11 15  1  0  0  0
 12 13  1  0  0  0
 13 14  2  0  0  0
 15 16  1  0  0  0
 15 20  1  0  0  0
 16 17  1  0  0  0
 17 18  1  0  0  0
 18 19  1  0  0  0
 19 20  1  0  0  0
M  END
> <minimizedAffinity>
-9.49283

$$$$
2231


 27 31  0  0  0  0  0  0  0  0999 V2000
   19.1115   74.0694   13.3714 N   0  0  0  0  0  0  0  0  0  0  0  0
   19.7670   74.1135   14.5178 N   0  0  0  0  0  0  0  0  0  0  0  0
   20.4260   75.2470   14.6607 N   0  0  0  0  0  0  0  0  0  0  0  0
   20.2208   76.0160   13.5777 C   0  0  0  0  0  0  0  0  0  0  0  0
   19.3908   75.2571   12.7771 C   0  0  0  0  0  0  0  0  0  0  0  0
   19.0065   75.7838   11.5926 N   0  0  0  0  0  0  0  0  0  0  0  0
   19.4399   77.0091   11.2430 C   0  0  0  0  0  0  0  0  0  0  0  0
   20.2557   77.7494   12.0334 N   0  0  0  0  0  0  0  0  0  0  0  0
   20.6681   77.2727   13.2224 C   0  0  0  0  0  0  0  0  0  0  0  0
   21.5262   78.0385   14.0681 N   0  0  0  0  0  0  0  0  0  0  0  0
   22.7390   78.5546   13.4623 C   0  0  0  0  0  0  0  0  0  0  0  0
   23.2415   79.7855   14.2132 C   0  0  0  0  0  0  0  0  0  0  0  0
   23.0167   79.6695   15.6091 N   0  0  0  0  0  0  0  0  0  0  0  0
   21.5655   79.5876   15.9609 C   0  0  0  0  0  0  0  0  0  0  0  0
   21.1300   78.2357   15.4273 C   0  0  0  0  0  0  0  0  0  0  0  0
   23.9807   79.6214   16.6015 C   0  0  0  0  0  0  0  0  0  0  0  0
   23.4916   79.5126   17.8252 O   0  0  0  0  0  0  0  0  0  0  0  0
   25.4347   79.6646   16.5733 C   0  0  0  0  0  0  0  0  0  0  0  0
   26.1919   78.7601   17.4694 C   0  0  0  0  0  0  0  0  0  0  0  0
   26.3432   78.6969   15.9674 C   0  0  0  0  0  0  0  0  0  0  0  0
   15.8861   69.5319   11.2877 Cl  0  0  0  0  0  0  0  0  0  0  0  0
   16.8213   70.8621   11.8976 C   0  0  0  0  0  0  0  0  0  0  0  0
   16.1941   72.0246   12.2689 C   0  0  0  0  0  0  0  0  0  0  0  0
   16.9315   73.0824   12.7521 C   0  0  0  0  0  0  0  0  0  0  0  0
   18.2994   73.0141   12.8796 C   0  0  0  0  0  0  0  0  0  0  0  0
   18.9008   71.8353   12.4990 C   0  0  0  0  0  0  0  0  0  0  0  0
   18.1776   70.7629   12.0112 C   0  0  0  0  0  0  0  0  0  0  0  0
 21 22  1  0  0  0
 22 23  2  0  0  0
 22 27  1  0  0  0
 23 24  1  0  0  0
 24 25  2  0  0  0
 25 26  1  0  0  0
 25  1  1  0  0  0
 26 27  2  0  0  0
  1  2  1  0  0  0
  1  5  1  0  0  0
  2  3  2  0  0  0
  3  4  1  0  0  0
  4  5  2  0  0  0
  4  9  1  0  0  0
  5  6  1  0  0  0
  6  7  2  0  0  0
  7  8  1  0  0  0
  8  9  2  0  0  0
  9 10  1  0  0  0
 10 11  1  0  0  0
 10 15  1  0  0  0
 11 12  1  0  0  0
 12 13  1  0  0  0
 13 14  1  0  0  0
 13 16  1  0  0  0
 14 15  1  0  0  0
 16 17  2  0  0  0
 16 18  1  0  0  0
 18 19  1  0  0  0
 18 20  1  0  0  0
 19 20  1  0  0  0
M  END
> <minimizedAffinity>
-10.24704

$$$$
2242


 32 35  0  0  0  0  0  0  0  0999 V2000
   20.3005   75.5612   14.1812 N   0  0  0  0  0  0  0  0  0  0  0  0
   19.8377   76.3667   15.2245 C   0  0  0  0  0  0  0  0  0  0  0  0
   18.6526   76.3902   15.5865 O   0  0  0  0  0  0  0  0  0  0  0  0
   21.3403   75.6107   13.9393 H   0  0  0  0  0  0  0  0  0  0  0  0
   19.6525   76.6618   11.5449 Cl  0  0  0  0  0  0  0  0  0  0  0  0
   19.1332   75.1000   12.1405 C   0  0  0  0  0  0  0  0  0  0  0  0
   18.3670   74.3145   11.3264 C   0  0  0  0  0  0  0  0  0  0  0  0
   17.9242   73.0839   11.7228 C   0  0  0  0  0  0  0  0  0  0  0  0
   18.2695   72.6465   12.9738 C   0  0  0  0  0  0  0  0  0  0  0  0
   19.0578   73.4587   13.8072 C   0  0  0  0  0  0  0  0  0  0  0  0
   19.5064   74.6914   13.4238 C   0  0  0  0  0  0  0  0  0  0  0  0
   17.8597   71.4064   13.4561 O   0  0  0  0  0  0  0  0  0  0  0  0
   17.3861   70.3659   12.5882 C   0  0  0  0  0  0  0  0  0  0  0  0
   16.7280   70.9663   11.3903 C   0  0  0  0  0  0  0  0  0  0  0  0
   15.8073   70.3256   10.8326 O   0  0  0  0  0  0  0  0  0  0  0  0
   17.1288   72.2361   10.8857 N   0  0  0  0  0  0  0  0  0  0  0  0
   16.8506   72.5421    9.9327 H   0  0  0  0  0  0  0  0  0  0  0  0
   20.7754   77.2540   15.9669 C   0  0  0  0  0  0  0  0  0  0  0  0
   20.2829   78.1969   16.7087 N   0  0  0  0  0  0  0  0  0  0  0  0
   21.0895   79.0704   17.4354 N   0  0  0  0  0  0  0  0  0  0  0  0
   22.4901   78.9251   17.3644 C   0  0  0  0  0  0  0  0  0  0  0  0
   23.1850   79.6905   18.1154 O   0  0  0  0  0  0  0  0  0  0  0  0
   23.1465   77.9456   16.4749 C   0  0  0  0  0  0  0  0  0  0  0  0
   22.1809   77.0894   15.8801 N   0  0  0  0  0  0  0  0  0  0  0  0
   22.5186   76.2614   15.3237 H   0  0  0  0  0  0  0  0  0  0  0  0
   20.5037   80.1154   18.2494 C   0  0  0  0  0  0  0  0  0  0  0  0
   19.9367   79.8428   19.4705 C   0  0  0  0  0  0  0  0  0  0  0  0
   19.3812   80.8703   20.2400 C   0  0  0  0  0  0  0  0  0  0  0  0
   19.3886   82.1750   19.7899 C   0  0  0  0  0  0  0  0  0  0  0  0
   19.9592   82.4315   18.5645 C   0  0  0  0  0  0  0  0  0  0  0  0
   20.4995   81.4251   17.8202 C   0  0  0  0  0  0  0  0  0  0  0  0
   18.8125   83.3080   20.5740 C   0  0  0  0  0  0  0  0  0  0  0  0
  5  6  1  0  0  0
  6  7  2  0  0  0
  6 11  1  0  0  0
  7  8  1  0  0  0
  8  9  2  0  0  0
  8 16  1  0  0  0
  9 10  1  0  0  0
  9 12  1  0  0  0
 10 11  2  0  0  0
 11  1  1  0  0  0
  1  2  1  0  0  0
  2  3  2  0  0  0
  2 18  1  0  0  0
 18 19  2  0  0  0
 18 24  1  0  0  0
 19 20  1  0  0  0
 20 21  1  0  0  0
 20 26  1  0  0  0
 21 22  2  0  0  0
 21 23  1  0  0  0
 23 24  1  0  0  0
 26 27  2  0  0  0
 26 31  1  0  0  0
 27 28  1  0  0  0
 28 29  2  0  0  0
 29 30  1  0  0  0
 29 32  1  0  0  0
 30 31  2  0  0  0
 12 13  1  0  0  0
 13 14  1  0  0  0
 14 15  2  0  0  0
 14 16  1  0  0  0
  1  4  1  0  0  0
 24 25  1  0  0  0
 16 17  1  0  0  0
M  END
> <minimizedAffinity>
-10.49197

$$$$
2266


 27 30  0  0  0  0  0  0  0  0999 V2000
   21.0481   78.0640   18.0335 N   0  0  0  0  0  0  0  0  0  0  0  0
   22.3626   78.5223   18.2428 C   0  0  0  0  0  0  0  0  0  0  0  0
   23.3945   77.8563   17.3540 C   0  0  0  0  0  0  0  0  0  0  0  0
   22.8891   78.0023   15.9561 C   0  0  0  0  0  0  0  0  0  0  0  0
   21.5614   77.6929   15.7444 C   0  0  0  0  0  0  0  0  0  0  0  0
   21.0491   77.8025   14.5185 N   0  0  0  0  0  0  0  0  0  0  0  0
   21.8570   78.2164   13.5215 C   0  0  0  0  0  0  0  0  0  0  0  0
   23.1533   78.5246   13.7014 N   0  0  0  0  0  0  0  0  0  0  0  0
   23.7051   78.9044   12.5337 N   0  0  0  0  0  0  0  0  0  0  0  0
   22.7887   78.8571   11.5558 C   0  0  0  0  0  0  0  0  0  0  0  0
   21.6277   78.4295   12.1552 C   0  0  0  0  0  0  0  0  0  0  0  0
   23.7059   78.4247   14.9307 C   0  0  0  0  0  0  0  0  0  0  0  0
   24.9115   78.6981   15.1613 O   0  0  0  0  0  0  0  0  0  0  0  0
   20.7789   77.2484   16.9224 C   0  0  0  0  0  0  0  0  0  0  0  0
   24.7058   79.1901   12.4346 H   0  0  0  0  0  0  0  0  0  0  0  0
   19.7930   78.9134   18.7528 S   0  0  0  0  0  0  0  0  0  0  0  0
   18.5184   78.8558   17.9230 O   0  0  0  0  0  0  0  0  0  0  0  0
   19.4281   78.1996   20.0506 O   0  0  0  0  0  0  0  0  0  0  0  0
   20.0883   80.5703   19.1147 C   0  0  0  0  0  0  0  0  0  0  0  0
   20.3966   81.4773   18.1034 C   0  0  0  0  0  0  0  0  0  0  0  0
   20.6300   82.7956   18.4283 C   0  0  0  0  0  0  0  0  0  0  0  0
   20.5698   83.2488   19.7056 C   0  0  0  0  0  0  0  0  0  0  0  0
   20.2696   82.3839   20.7203 C   0  0  0  0  0  0  0  0  0  0  0  0
   20.0361   81.0639   20.3965 C   0  0  0  0  0  0  0  0  0  0  0  0
   20.1842   82.9471   22.3930 Cl  0  0  0  0  0  0  0  0  0  0  0  0
   20.4773   81.1009   16.7835 O   0  0  0  0  0  0  0  0  0  0  0  0
   21.7266   81.1474   16.1322 C   0  0  0  0  0  0  0  0  0  0  0  0
 16 17  2  0  0  0
 16 18  2  0  0  0
 16  1  1  0  0  0
 16 19  1  0  0  0
  1  2  1  0  0  0
  1 14  1  0  0  0
  2  3  1  0  0  0
  3  4  1  0  0  0
  4  5  2  0  0  0
  4 12  1  0  0  0
  5  6  1  0  0  0
  5 14  1  0  0  0
  6  7  2  0  0  0
  7  8  1  0  0  0
  7 11  1  0  0  0
  8  9  1  0  0  0
  8 12  1  0  0  0
  9 10  1  0  0  0
 10 11  2  0  0  0
 12 13  2  0  0  0
 19 20  2  0  0  0
 19 24  1  0  0  0
 20 21  1  0  0  0
 20 26  1  0  0  0
 21 22  2  0  0  0
 22 23  1  0  0  0
 23 24  2  0  0  0
 23 25  1  0  0  0
 26 27  1  0  0  0
  9 15  1  0  0  0
M  END
> <minimizedAffinity>
-8.75314

$$$$
2267


 27 30  0  0  0  0  0  0  0  0999 V2000
   22.1465   78.1355   16.8201 N   0  0  0  0  0  0  0  0  0  0  0  0
   22.9649   79.2347   17.0725 C   0  0  0  0  0  0  0  0  0  0  0  0
   23.6570   79.7731   15.8422 C   0  0  0  0  0  0  0  0  0  0  0  0
   22.9122   79.5224   14.5864 C   0  0  0  0  0  0  0  0  0  0  0  0
   22.2412   78.3276   14.4885 C   0  0  0  0  0  0  0  0  0  0  0  0
   21.5431   78.0140   13.3908 N   0  0  0  0  0  0  0  0  0  0  0  0
   21.4975   78.9035   12.3457 C   0  0  0  0  0  0  0  0  0  0  0  0
   22.1625   80.0717   12.4600 N   0  0  0  0  0  0  0  0  0  0  0  0
   21.9626   80.7478   11.3255 N   0  0  0  0  0  0  0  0  0  0  0  0
   21.1948   80.0463   10.5009 C   0  0  0  0  0  0  0  0  0  0  0  0
   20.8682   78.8417   11.1210 C   0  0  0  0  0  0  0  0  0  0  0  0
   22.8755   80.4362   13.5334 C   0  0  0  0  0  0  0  0  0  0  0  0
   23.4932   81.5233   13.6382 O   0  0  0  0  0  0  0  0  0  0  0  0
   22.3037   77.3937   15.6250 C   0  0  0  0  0  0  0  0  0  0  0  0
   22.3483   81.6941   11.1045 H   0  0  0  0  0  0  0  0  0  0  0  0
   20.7178   77.9665   17.6645 S   0  0  0  0  0  0  0  0  0  0  0  0
   19.6084   77.5942   16.7073 O   0  0  0  0  0  0  0  0  0  0  0  0
   20.8058   76.8606   18.6739 O   0  0  0  0  0  0  0  0  0  0  0  0
   20.1932   79.4112   18.5005 C   0  0  0  0  0  0  0  0  0  0  0  0
   20.4877   80.6873   18.0521 C   0  0  0  0  0  0  0  0  0  0  0  0
   20.0459   81.7973   18.7558 C   0  0  0  0  0  0  0  0  0  0  0  0
   19.3065   81.6891   19.9110 C   0  0  0  0  0  0  0  0  0  0  0  0
   19.0126   80.4191   20.3583 C   0  0  0  0  0  0  0  0  0  0  0  0
   19.4514   79.3164   19.6593 C   0  0  0  0  0  0  0  0  0  0  0  0
   20.4283   83.4055   18.1738 Cl  0  0  0  0  0  0  0  0  0  0  0  0
   18.8688   82.8272   20.6074 O   0  0  0  0  0  0  0  0  0  0  0  0
   19.5968   83.2834   21.7319 C   0  0  0  0  0  0  0  0  0  0  0  0
 16 17  2  0  0  0
 16 18  2  0  0  0
 16  1  1  0  0  0
 16 19  1  0  0  0
  1  2  1  0  0  0
  1 14  1  0  0  0
  2  3  1  0  0  0
  3  4  1  0  0  0
  4  5  2  0  0  0
  4 12  1  0  0  0
  5  6  1  0  0  0
  5 14  1  0  0  0
  6  7  2  0  0  0
  7  8  1  0  0  0
  7 11  1  0  0  0
  8  9  1  0  0  0
  8 12  1  0  0  0
  9 10  1  0  0  0
 10 11  2  0  0  0
 12 13  2  0  0  0
 19 20  2  0  0  0
 19 24  1  0  0  0
 20 21  1  0  0  0
 21 22  2  0  0  0
 21 25  1  0  0  0
 22 23  1  0  0  0
 22 26  1  0  0  0
 23 24  2  0  0  0
 26 27  1  0  0  0
  9 15  1  0  0  0
M  END
> <minimizedAffinity>
-9.78305

$$$$
2270


 22 24  0  0  0  0  0  0  0  0999 V2000
   20.1320   80.2705   18.7951 C   0  0  0  0  0  0  0  0  0  0  0  0
   19.1113   79.5303   18.7120 O   0  0  0  0  0  0  0  0  0  0  0  0
   21.4376   79.7729   18.4973 N   0  0  0  0  0  0  0  0  0  0  0  0
   22.2302   80.4089   18.5790 H   0  0  0  0  0  0  0  0  0  0  0  0
   19.3022   85.8634   20.7977 Cl  0  0  0  0  0  0  0  0  0  0  0  0
   19.5601   84.2331   20.1816 C   0  0  0  0  0  0  0  0  0  0  0  0
   19.1959   83.1521   20.9558 C   0  0  0  0  0  0  0  0  0  0  0  0
   19.4051   81.8861   20.4574 C   0  0  0  0  0  0  0  0  0  0  0  0
   19.9696   81.6434   19.2008 C   0  0  0  0  0  0  0  0  0  0  0  0
   20.3268   82.7199   18.4415 C   0  0  0  0  0  0  0  0  0  0  0  0
   20.1215   84.0146   18.9320 C   0  0  0  0  0  0  0  0  0  0  0  0
   18.6328   83.3617   22.2072 O   0  0  0  0  0  0  0  0  0  0  0  0
   19.4362   83.4957   23.3636 C   0  0  0  0  0  0  0  0  0  0  0  0
   21.5569   78.4022   18.0965 C   0  0  0  0  0  0  0  0  0  0  0  0
   22.7267   78.0387   17.2721 C   0  0  0  0  0  0  0  0  0  0  0  0
   23.7756   79.0046   17.1548 N   0  0  0  0  0  0  0  0  0  0  0  0
   25.0299   78.2129   17.1492 C   0  0  0  0  0  0  0  0  0  0  0  0
   24.7465   77.0837   16.1506 C   0  0  0  0  0  0  0  0  0  0  0  0
   23.7035   77.4370   15.2090 N   0  0  0  0  0  0  0  0  0  0  0  0
   22.3993   77.5765   15.8616 C   0  0  0  0  0  0  0  0  0  0  0  0
   24.0219   78.7632   14.7090 C   0  0  0  0  0  0  0  0  0  0  0  0
   23.8210   79.7068   15.8885 C   0  0  0  0  0  0  0  0  0  0  0  0
  5  6  1  0  0  0
  6  7  2  0  0  0
  6 11  1  0  0  0
  7  8  1  0  0  0
  7 12  1  0  0  0
  8  9  2  0  0  0
  9 10  1  0  0  0
  9  1  1  0  0  0
 10 11  2  0  0  0
  1  2  2  0  0  0
  1  3  1  0  0  0
  3 14  1  0  0  0
 14 15  1  0  0  0
 15 16  1  0  0  0
 15 20  1  0  0  0
 16 17  1  0  0  0
 16 22  1  0  0  0
 17 18  1  0  0  0
 18 19  1  0  0  0
 19 20  1  0  0  0
 19 21  1  0  0  0
 21 22  1  0  0  0
 12 13  1  0  0  0
  3  4  1  0  0  0
M  END
> <minimizedAffinity>
-8.18093

$$$$
2271


 27 30  0  0  0  0  0  0  0  0999 V2000
   22.0828   77.5607   15.0883 C   0  0  0  0  0  0  0  0  0  0  0  0
   22.2790   77.9887   16.3824 N   0  0  0  0  0  0  0  0  0  0  0  0
   23.6726   78.3776   16.4423 C   0  0  0  0  0  0  0  0  0  0  0  0
   24.3408   79.3617   16.9504 C   0  0  0  0  0  0  0  0  0  0  0  0
   25.8051   79.5014   16.8529 C   0  0  0  0  0  0  0  0  0  0  0  0
   26.5070   78.4298   16.0973 C   0  0  0  0  0  0  0  0  0  0  0  0
   25.7527   77.1474   15.9924 C   0  0  0  0  0  0  0  0  0  0  0  0
   24.3423   77.3479   15.7367 N   0  0  0  0  0  0  0  0  0  0  0  0
   23.3626   76.7045   14.8658 C   0  0  0  0  0  0  0  0  0  0  0  0
   21.0463   76.5884   15.0028 O   0  0  0  0  0  0  0  0  0  0  0  0
   22.2927   77.0930   16.9953 H   0  0  0  0  0  0  0  0  0  0  0  0
   21.3541   75.8244   15.5550 H   0  0  0  0  0  0  0  0  0  0  0  0
   21.7835   81.1273   10.2748 Cl  0  0  0  0  0  0  0  0  0  0  0  0
   21.8569   80.0856   11.6734 C   0  0  0  0  0  0  0  0  0  0  0  0
   21.0472   78.9673   11.8266 C   0  0  0  0  0  0  0  0  0  0  0  0
   21.1203   78.1662   12.9278 C   0  0  0  0  0  0  0  0  0  0  0  0
   22.0153   78.4450   13.9427 C   0  0  0  0  0  0  0  0  0  0  0  0
   22.8187   79.5484   13.7975 C   0  0  0  0  0  0  0  0  0  0  0  0
   22.7425   80.3602   12.6790 C   0  0  0  0  0  0  0  0  0  0  0  0
   21.4402   78.8641   17.0548 C   0  0  0  0  0  0  0  0  0  0  0  0
   21.0061   80.0721   16.6255 C   0  0  0  0  0  0  0  0  0  0  0  0
   20.1493   80.8366   17.4156 C   0  0  0  0  0  0  0  0  0  0  0  0
   19.7037   80.4118   18.6558 C   0  0  0  0  0  0  0  0  0  0  0  0
   20.1624   79.1777   19.0661 C   0  0  0  0  0  0  0  0  0  0  0  0
   21.0048   78.4031   18.3137 C   0  0  0  0  0  0  0  0  0  0  0  0
   18.8527   81.2036   19.4096 O   0  0  0  0  0  0  0  0  0  0  0  0
   19.3906   82.0573   20.3864 C   0  0  0  0  0  0  0  0  0  0  0  0
 13 14  1  0  0  0
 14 15  2  0  0  0
 14 19  1  0  0  0
 15 16  1  0  0  0
 16 17  2  0  0  0
 17 18  1  0  0  0
 17  1  1  0  0  0
 18 19  2  0  0  0
  1  2  1  0  0  0
  1  9  1  0  0  0
  1 10  1  0  0  0
  2  3  1  0  0  0
  2 20  1  0  0  0
  3  4  2  0  0  0
  3  8  1  0  0  0
  4  5  1  0  0  0
  5  6  1  0  0  0
  6  7  1  0  0  0
  7  8  1  0  0  0
  8  9  1  0  0  0
 20 21  2  0  0  0
 20 25  1  0  0  0
 21 22  1  0  0  0
 22 23  2  0  0  0
 23 24  1  0  0  0
 23 26  1  0  0  0
 24 25  2  0  0  0
 26 27  1  0  0  0
  2 11  1  0  0  0
 10 12  1  0  0  0
M  CHG 1   2   1
M  END
> <minimizedAffinity>
-9.53662

$$$$
2272


 29 32  0  0  0  0  0  0  0  0999 V2000
   23.0512   79.7745   12.7528 C   0  0  0  0  0  0  0  0  0  0  0  0
   22.6909   80.8318   13.3984 O   0  0  0  0  0  0  0  0  0  0  0  0
   22.6829   79.7348   11.4066 N   0  0  0  0  0  0  0  0  0  0  0  0
   22.7994   78.5446   10.5432 C   0  0  0  0  0  0  0  0  0  0  0  0
   21.2802   78.2197   10.3903 C   0  0  0  0  0  0  0  0  0  0  0  0
   20.6769   79.2984    9.6204 N   0  0  0  0  0  0  0  0  0  0  0  0
   21.2318   80.5383    9.6017 C   0  0  0  0  0  0  0  0  0  0  0  0
   22.1938   80.8875   10.7014 C   0  0  0  0  0  0  0  0  0  0  0  0
   23.7984   78.8169   13.5314 C   0  0  0  0  0  0  0  0  0  0  0  0
   24.3140   79.1283   14.8614 C   0  0  0  0  0  0  0  0  0  0  0  0
   19.1406   80.4596   19.4462 Cl  0  0  0  0  0  0  0  0  0  0  0  0
   20.4518   79.9895   18.3929 C   0  0  0  0  0  0  0  0  0  0  0  0
   21.1334   78.8238   18.6094 C   0  0  0  0  0  0  0  0  0  0  0  0
   22.1725   78.4659   17.7408 C   0  0  0  0  0  0  0  0  0  0  0  0
   22.5356   79.2495   16.6711 C   0  0  0  0  0  0  0  0  0  0  0  0
   21.8418   80.4496   16.4357 C   0  0  0  0  0  0  0  0  0  0  0  0
   20.8206   80.7720   17.3141 C   0  0  0  0  0  0  0  0  0  0  0  0
   23.5346   78.6798   16.0022 N   0  0  0  0  0  0  0  0  0  0  0  0
   23.7973   77.5120   16.6804 C   0  0  0  0  0  0  0  0  0  0  0  0
   24.6900   76.6730   16.3660 O   0  0  0  0  0  0  0  0  0  0  0  0
   22.9703   77.4319   17.6932 O   0  0  0  0  0  0  0  0  0  0  0  0
   19.3610   78.9519    9.3603 C   0  0  0  0  0  0  0  0  0  0  0  0
   19.2399   78.0547    8.1278 C   0  0  0  0  0  0  0  0  0  0  0  0
   19.2590   78.7070    7.0148 O   0  0  0  0  0  0  0  0  0  0  0  0
   19.1200   76.7370    8.2407 N   0  0  0  0  0  0  0  0  0  0  0  0
   19.2590   76.5701    6.8999 H   0  0  0  0  0  0  0  0  0  0  0  0
   18.9918   75.3346    8.3616 C   0  0  0  0  0  0  0  0  0  0  0  0
   20.2219   74.5129    7.8168 C   0  0  0  0  0  0  0  0  0  0  0  0
   18.9654   74.5098    7.0918 C   0  0  0  0  0  0  0  0  0  0  0  0
 11 12  1  0  0  0
 12 13  2  0  0  0
 12 17  1  0  0  0
 13 14  1  0  0  0
 14 15  2  0  0  0
 14 21  1  0  0  0
 15 16  1  0  0  0
 15 18  1  0  0  0
 16 17  2  0  0  0
 18 19  1  0  0  0
 18 10  1  0  0  0
 19 20  2  0  0  0
 19 21  1  0  0  0
 10  9  1  0  0  0
  9  1  1  0  0  0
  1  2  2  0  0  0
  1  3  1  0  0  0
  3  4  1  0  0  0
  3  8  1  0  0  0
  4  5  1  0  0  0
  5  6  1  0  0  0
  6  7  1  0  0  0
  6 22  1  0  0  0
  7  8  1  0  0  0
 22 23  1  0  0  0
 23 24  2  0  0  0
 23 25  1  0  0  0
 25 27  1  0  0  0
 27 28  1  0  0  0
 27 29  1  0  0  0
 28 29  1  0  0  0
 25 26  1  0  0  0
M  END
> <minimizedAffinity>
-9.35113

$$$$
2275


 21 23  0  0  0  0  0  0  0  0999 V2000
   18.4982   77.1485   17.2583 Cl  0  0  0  0  0  0  0  0  0  0  0  0
   19.8496   78.1768   16.8361 C   0  0  0  0  0  0  0  0  0  0  0  0
   19.8757   79.4908   17.2553 C   0  0  0  0  0  0  0  0  0  0  0  0
   20.9724   80.2399   16.8904 C   0  0  0  0  0  0  0  0  0  0  0  0
   21.0976   81.4582   17.2229 O   0  0  0  0  0  0  0  0  0  0  0  0
   21.9509   79.6845   16.1600 N   0  0  0  0  0  0  0  0  0  0  0  0
   21.9675   78.4353   15.7389 N   0  0  0  0  0  0  0  0  0  0  0  0
   23.0504   77.8736   14.9491 C   0  0  0  0  0  0  0  0  0  0  0  0
   23.0544   78.3904   13.5259 C   0  0  0  0  0  0  0  0  0  0  0  0
   23.7264   79.7508   13.4564 C   0  0  0  0  0  0  0  0  0  0  0  0
   22.9966   80.7683   14.3029 C   0  0  0  0  0  0  0  0  0  0  0  0
   23.1120   80.5046   15.7811 C   0  0  0  0  0  0  0  0  0  0  0  0
   24.3101   79.6531   16.0076 C   0  0  0  0  0  0  0  0  0  0  0  0
   24.3203   78.3958   15.5786 C   0  0  0  0  0  0  0  0  0  0  0  0
   20.8904   77.6708   16.0874 C   0  0  0  0  0  0  0  0  0  0  0  0
   20.8784   76.4558   15.6931 O   0  0  0  0  0  0  0  0  0  0  0  0
   18.8347   80.0821   18.0272 N   0  0  0  0  0  0  0  0  0  0  0  0
   18.0501   80.5057   17.4454 H   0  0  0  0  0  0  0  0  0  0  0  0
   18.8065   80.1231   19.4639 C   0  0  0  0  0  0  0  0  0  0  0  0
   19.6220   78.9993   20.0796 C   0  0  0  0  0  0  0  0  0  0  0  0
   19.2748   81.4103   20.0559 C   0  0  0  0  0  0  0  0  0  0  0  0
  1  2  1  0  0  0
  2  3  2  0  0  0
  2 15  1  0  0  0
  3  4  1  0  0  0
  3 17  1  0  0  0
  4  5  2  0  0  0
  4  6  1  0  0  0
  6  7  1  0  0  0
  6 12  1  0  0  0
  7  8  1  0  0  0
  7 15  1  0  0  0
  8  9  1  0  0  0
  8 14  1  0  0  0
  9 10  1  0  0  0
 10 11  1  0  0  0
 11 12  1  0  0  0
 12 13  1  0  0  0
 13 14  2  0  0  0
 15 16  2  0  0  0
 17 19  1  0  0  0
 19 20  1  0  0  0
 19 21  1  0  0  0
 17 18  1  0  0  0
M  END
> <minimizedAffinity>
-8.42040

$$$$
2276


 21 24  0  0  0  0  0  0  0  0999 V2000
   20.0966   77.2783   12.1151 Cl  0  0  0  0  0  0  0  0  0  0  0  0
   21.2669   78.0633   13.1569 C   0  0  0  0  0  0  0  0  0  0  0  0
   21.7311   79.3078   12.7855 C   0  0  0  0  0  0  0  0  0  0  0  0
   22.6673   79.8732   13.6606 C   0  0  0  0  0  0  0  0  0  0  0  0
   23.1204   80.9980   13.3734 O   0  0  0  0  0  0  0  0  0  0  0  0
   23.0620   79.2309   14.7665 N   0  0  0  0  0  0  0  0  0  0  0  0
   22.6119   78.0358   15.1168 N   0  0  0  0  0  0  0  0  0  0  0  0
   23.1408   77.4813   16.3548 C   0  0  0  0  0  0  0  0  0  0  0  0
   24.6499   77.4433   16.1996 C   0  0  0  0  0  0  0  0  0  0  0  0
   25.1616   78.7482   15.7649 C   0  0  0  0  0  0  0  0  0  0  0  0
   24.0449   79.7985   15.6924 C   0  0  0  0  0  0  0  0  0  0  0  0
   23.3576   79.7560   17.0288 C   0  0  0  0  0  0  0  0  0  0  0  0
   22.8911   78.5681   17.3748 C   0  0  0  0  0  0  0  0  0  0  0  0
   25.5129   78.1863   17.1494 C   0  0  0  0  0  0  0  0  0  0  0  0
   21.7217   77.4517   14.3216 C   0  0  0  0  0  0  0  0  0  0  0  0
   21.2879   76.3166   14.6456 O   0  0  0  0  0  0  0  0  0  0  0  0
   21.3166   80.0055   11.6144 N   0  0  0  0  0  0  0  0  0  0  0  0
   20.5579   80.7046   11.7598 H   0  0  0  0  0  0  0  0  0  0  0  0
   21.8475   79.8172   10.3138 C   0  0  0  0  0  0  0  0  0  0  0  0
   22.4609   81.0490    9.7001 C   0  0  0  0  0  0  0  0  0  0  0  0
   22.9104   78.7292   10.2518 C   0  0  0  0  0  0  0  0  0  0  0  0
  1  2  1  0  0  0
  2  3  2  0  0  0
  2 15  1  0  0  0
  3  4  1  0  0  0
  3 17  1  0  0  0
  4  5  2  0  0  0
  4  6  1  0  0  0
  6  7  1  0  0  0
  6 11  1  0  0  0
  7  8  1  0  0  0
  7 15  1  0  0  0
  8  9  1  0  0  0
  8 13  1  0  0  0
  9 10  1  0  0  0
  9 14  1  0  0  0
 10 11  1  0  0  0
 10 14  1  0  0  0
 11 12  1  0  0  0
 12 13  2  0  0  0
 15 16  2  0  0  0
 17 19  1  0  0  0
 19 20  1  0  0  0
 19 21  1  0  0  0
 17 18  1  0  0  0
M  END
> <minimizedAffinity>
-8.52782

$$$$
2281


 34 37  0  0  0  0  0  0  0  0999 V2000
   21.1224   78.1966   17.6794 N   0  0  0  0  0  0  0  0  0  0  0  0
   22.3929   77.9256   17.1532 C   0  0  0  0  0  0  0  0  0  0  0  0
   22.1785   77.3764   15.6950 C   0  0  0  0  0  0  0  0  0  0  0  0
   20.9182   77.4966   15.1526 N   0  0  0  0  0  0  0  0  0  0  0  0
   19.7749   77.5365   16.0231 C   0  0  0  0  0  0  0  0  0  0  0  0
   20.1734   77.0261   17.4465 C   0  0  0  0  0  0  0  0  0  0  0  0
   21.5495   80.8844   16.2708 Cl  0  0  0  0  0  0  0  0  0  0  0  0
   20.7096   80.5841   17.8453 C   0  0  0  0  0  0  0  0  0  0  0  0
   20.4886   79.3216   18.1836 C   0  0  0  0  0  0  0  0  0  0  0  0
   19.7524   79.1380   19.4580 C   0  0  0  0  0  0  0  0  0  0  0  0
   19.4283   80.1874   20.1148 N   0  0  0  0  0  0  0  0  0  0  0  0
   19.6906   81.4668   19.7393 N   0  0  0  0  0  0  0  0  0  0  0  0
   20.3214   81.6797   18.6174 C   0  0  0  0  0  0  0  0  0  0  0  0
   20.6269   82.8407   18.1801 O   0  0  0  0  0  0  0  0  0  0  0  0
   19.4844   82.5038   20.7490 C   0  0  0  0  0  0  0  0  0  0  0  0
   18.4776   83.4118   20.6756 C   0  0  0  0  0  0  0  0  0  0  0  0
   18.2349   84.2989   21.7019 C   0  0  0  0  0  0  0  0  0  0  0  0
   19.0213   84.2873   22.8528 C   0  0  0  0  0  0  0  0  0  0  0  0
   20.0528   83.3495   22.8962 C   0  0  0  0  0  0  0  0  0  0  0  0
   20.2717   82.4957   21.8861 C   0  0  0  0  0  0  0  0  0  0  0  0
   20.5357   76.4146   14.1847 C   0  0  0  0  0  0  0  0  0  0  0  0
   20.3501   76.9852   12.8589 C   0  0  0  0  0  0  0  0  0  0  0  0
   20.7259   77.8873   12.3177 O   0  0  0  0  0  0  0  0  0  0  0  0
   19.3005   75.9951   11.9445 N   0  0  0  0  0  0  0  0  0  0  0  0
   19.6378   76.6463   10.6297 C   0  0  0  0  0  0  0  0  0  0  0  0
   19.9372   77.7984   10.4759 O   0  0  0  0  0  0  0  0  0  0  0  0
   19.5677   75.6764    9.5611 N   0  0  0  0  0  0  0  0  0  0  0  0
   19.1295   75.6654   12.6228 H   0  0  0  0  0  0  0  0  0  0  0  0
   19.2492   74.6944    9.8575 H   0  0  0  0  0  0  0  0  0  0  0  0
   19.8439   75.8819    8.1895 C   0  0  0  0  0  0  0  0  0  0  0  0
   19.9418   74.7249    7.2817 C   0  0  0  0  0  0  0  0  0  0  0  0
   18.5493   74.4869    6.6892 C   0  0  0  0  0  0  0  0  0  0  0  0
   18.0247   75.9008    6.5973 C   0  0  0  0  0  0  0  0  0  0  0  0
   18.6433   76.6946    7.6618 C   0  0  0  0  0  0  0  0  0  0  0  0
  7  8  1  0  0  0
  8  9  2  0  0  0
  8 13  1  0  0  0
  9 10  1  0  0  0
  9  1  1  0  0  0
 10 11  2  0  0  0
 11 12  1  0  0  0
 12 13  1  0  0  0
 12 15  1  0  0  0
 13 14  2  0  0  0
 15 16  2  0  0  0
 15 20  1  0  0  0
 16 17  1  0  0  0
 17 18  2  0  0  0
 18 19  1  0  0  0
 19 20  2  0  0  0
  1  2  1  0  0  0
  1  6  1  0  0  0
  2  3  1  0  0  0
  3  4  1  0  0  0
  4  5  1  0  0  0
  4 21  1  0  0  0
  5  6  1  0  0  0
 21 22  1  0  0  0
 22 23  2  0  0  0
 22 24  1  0  0  0
 24 25  1  0  0  0
 25 26  2  0  0  0
 25 27  1  0  0  0
 27 30  1  0  0  0
 30 31  1  0  0  0
 30 34  1  0  0  0
 31 32  1  0  0  0
 32 33  1  0  0  0
 33 34  1  0  0  0
 24 28  1  0  0  0
 27 29  1  0  0  0
M  END
> <minimizedAffinity>
-10.05819

$$$$
2282


 31 34  0  0  0  0  0  0  0  0999 V2000
   23.3503   78.9954   14.4380 N   0  0  0  0  0  0  0  0  0  0  0  0
   24.3954   78.0400   14.7177 C   0  0  0  0  0  0  0  0  0  0  0  0
   24.3682   77.6627   16.1657 C   0  0  0  0  0  0  0  0  0  0  0  0
   23.1390   78.1734   16.7197 N   0  0  0  0  0  0  0  0  0  0  0  0
   23.2173   79.5882   16.7817 C   0  0  0  0  0  0  0  0  0  0  0  0
   23.1547   80.1024   15.3401 C   0  0  0  0  0  0  0  0  0  0  0  0
   21.2213   76.9467   14.6431 Cl  0  0  0  0  0  0  0  0  0  0  0  0
   21.4534   77.9804   13.2492 C   0  0  0  0  0  0  0  0  0  0  0  0
   22.5033   78.8927   13.3039 C   0  0  0  0  0  0  0  0  0  0  0  0
   22.6578   79.6897   12.1899 C   0  0  0  0  0  0  0  0  0  0  0  0
   21.8278   79.5639   11.1397 N   0  0  0  0  0  0  0  0  0  0  0  0
   20.8265   78.7046   11.0678 N   0  0  0  0  0  0  0  0  0  0  0  0
   20.6398   77.9060   12.1356 C   0  0  0  0  0  0  0  0  0  0  0  0
   19.6890   77.0757   12.0911 O   0  0  0  0  0  0  0  0  0  0  0  0
   19.9794   78.6291    9.9137 C   0  0  0  0  0  0  0  0  0  0  0  0
   20.3542   77.8675    8.8310 C   0  0  0  0  0  0  0  0  0  0  0  0
   19.5351   77.7861    7.6993 C   0  0  0  0  0  0  0  0  0  0  0  0
   18.3372   78.4604    7.6336 C   0  0  0  0  0  0  0  0  0  0  0  0
   17.9538   79.2248    8.7135 C   0  0  0  0  0  0  0  0  0  0  0  0
   18.7770   79.2983    9.8323 C   0  0  0  0  0  0  0  0  0  0  0  0
   22.6112   77.4760   17.8233 C   0  0  0  0  0  0  0  0  0  0  0  0
   21.1983   77.7499   18.1058 C   0  0  0  0  0  0  0  0  0  0  0  0
   20.6953   77.1264   19.1011 O   0  0  0  0  0  0  0  0  0  0  0  0
   20.3558   78.6317   17.3868 N   0  0  0  0  0  0  0  0  0  0  0  0
   20.7718   79.1451   16.5838 H   0  0  0  0  0  0  0  0  0  0  0  0
   18.9703   78.8690   17.7043 C   0  0  0  0  0  0  0  0  0  0  0  0
   18.8181   80.2397   18.2876 C   0  0  0  0  0  0  0  0  0  0  0  0
   18.8762   80.1625   19.6537 O   0  0  0  0  0  0  0  0  0  0  0  0
   19.8788   80.9516   20.1471 C   0  0  0  0  0  0  0  0  0  0  0  0
   20.0014   82.0488   19.1109 C   0  0  0  0  0  0  0  0  0  0  0  0
   19.9420   81.1683   17.8508 C   0  0  0  0  0  0  0  0  0  0  0  0
  7  8  1  0  0  0
  8  9  2  0  0  0
  8 13  1  0  0  0
  9 10  1  0  0  0
  9  1  1  0  0  0
 10 11  2  0  0  0
 11 12  1  0  0  0
 12 13  1  0  0  0
 12 15  1  0  0  0
 13 14  2  0  0  0
 15 16  2  0  0  0
 15 20  1  0  0  0
 16 17  1  0  0  0
 17 18  2  0  0  0
 18 19  1  0  0  0
 19 20  2  0  0  0
  1  2  1  0  0  0
  1  6  1  0  0  0
  2  3  1  0  0  0
  3  4  1  0  0  0
  4  5  1  0  0  0
  4 21  1  0  0  0
  5  6  1  0  0  0
 21 22  1  0  0  0
 22 23  2  0  0  0
 22 24  1  0  0  0
 24 26  1  0  0  0
 26 27  1  0  0  0
 27 28  1  0  0  0
 27 31  1  0  0  0
 28 29  1  0  0  0
 29 30  1  0  0  0
 30 31  1  0  0  0
 24 25  1  0  0  0
M  END
> <minimizedAffinity>
-9.59306

$$$$
2284


 33 37  0  0  0  0  0  0  0  0999 V2000
   21.5240   80.0195   10.9151 C   0  0  0  0  0  0  0  0  0  0  0  0
   20.2241   80.4199   11.1523 C   0  0  0  0  0  0  0  0  0  0  0  0
   19.1296   79.9640   10.4627 C   0  0  0  0  0  0  0  0  0  0  0  0
   17.9760   80.4085   10.7735 O   0  0  0  0  0  0  0  0  0  0  0  0
   19.2976   79.0475    9.4635 N   0  0  0  0  0  0  0  0  0  0  0  0
   18.3696   78.5458    8.7504 N   0  0  0  0  0  0  0  0  0  0  0  0
   18.6001   77.6747    7.8132 C   0  0  0  0  0  0  0  0  0  0  0  0
   20.3171   77.5487    7.9514 S   0  0  0  0  0  0  0  0  0  0  0  0
   20.5550   78.6622    9.2368 C   0  0  0  0  0  0  0  0  0  0  0  0
   21.6306   79.1146    9.9182 N   0  0  0  0  0  0  0  0  0  0  0  0
   17.7068   76.9743    6.8826 C   0  0  0  0  0  0  0  0  0  0  0  0
   16.4488   77.4909    6.6580 C   0  0  0  0  0  0  0  0  0  0  0  0
   15.5575   76.8759    5.7898 C   0  0  0  0  0  0  0  0  0  0  0  0
   15.9292   75.7222    5.1310 C   0  0  0  0  0  0  0  0  0  0  0  0
   17.1877   75.1848    5.3406 C   0  0  0  0  0  0  0  0  0  0  0  0
   18.0358   75.8301    6.2112 C   0  0  0  0  0  0  0  0  0  0  0  0
   14.8263   74.9430    4.0433 Cl  0  0  0  0  0  0  0  0  0  0  0  0
   22.6730   80.5452   11.6905 C   0  0  0  0  0  0  0  0  0  0  0  0
   22.7855   78.9986   15.5366 N   0  0  0  0  0  0  0  0  0  0  0  0
   22.4627   80.3496   15.3835 C   0  0  0  0  0  0  0  0  0  0  0  0
   23.0062   80.8908   14.0571 C   0  0  0  0  0  0  0  0  0  0  0  0
   22.6062   80.0269   13.0194 N   0  0  0  0  0  0  0  0  0  0  0  0
   23.0212   78.6850   13.1768 C   0  0  0  0  0  0  0  0  0  0  0  0
   23.6361   78.4886   14.5443 C   0  0  0  0  0  0  0  0  0  0  0  0
   21.8493   77.9839   16.4569 S   0  0  0  0  0  0  0  0  0  0  0  0
   22.7598   77.2035   17.3998 O   0  0  0  0  0  0  0  0  0  0  0  0
   21.0424   77.0232   15.6224 O   0  0  0  0  0  0  0  0  0  0  0  0
   20.7696   78.8864   17.4965 C   0  0  0  0  0  0  0  0  0  0  0  0
   21.1226   79.6878   18.5397 N   0  0  0  0  0  0  0  0  0  0  0  0
   20.0351   80.2116   19.1081 C   0  0  0  0  0  0  0  0  0  0  0  0
   18.9417   79.7792   18.4648 N   0  0  0  0  0  0  0  0  0  0  0  0
   19.3980   78.9645   17.4745 C   0  0  0  0  0  0  0  0  0  0  0  0
   17.9597   80.0173   18.6802 H   0  0  0  0  0  0  0  0  0  0  0  0
 25 26  2  0  0  0
 25 27  2  0  0  0
 25 19  1  0  0  0
 25 28  1  0  0  0
 19 20  1  0  0  0
 19 24  1  0  0  0
 20 21  1  0  0  0
 21 22  1  0  0  0
 22 23  1  0  0  0
 22 18  1  0  0  0
 23 24  1  0  0  0
 18  1  1  0  0  0
  1  2  2  0  0  0
  1 10  1  0  0  0
  2  3  1  0  0  0
  3  4  2  0  0  0
  3  5  1  0  0  0
  5  6  1  0  0  0
  5  9  1  0  0  0
  6  7  2  0  0  0
  7  8  1  0  0  0
  7 11  1  0  0  0
  8  9  1  0  0  0
  9 10  2  0  0  0
 11 12  2  0  0  0
 11 16  1  0  0  0
 12 13  1  0  0  0
 13 14  2  0  0  0
 14 15  1  0  0  0
 14 17  1  0  0  0
 15 16  2  0  0  0
 28 29  1  0  0  0
 28 32  2  0  0  0
 29 30  2  0  0  0
 30 31  1  0  0  0
 31 32  1  0  0  0
 31 33  1  0  0  0
M  END
> <minimizedAffinity>
-9.50452

$$$$
2285


 32 35  0  0  0  0  0  0  0  0999 V2000
   22.6458   77.2232   16.7410 N   0  0  0  0  0  0  0  0  0  0  0  0
   22.6029   78.2000   17.7881 C   0  0  0  0  0  0  0  0  0  0  0  0
   21.2069   78.3946   18.4083 C   0  0  0  0  0  0  0  0  0  0  0  0
   20.3246   78.7144   17.3302 N   0  0  0  0  0  0  0  0  0  0  0  0
   20.1963   77.5460   16.5043 C   0  0  0  0  0  0  0  0  0  0  0  0
   21.5114   77.4589   15.7801 C   0  0  0  0  0  0  0  0  0  0  0  0
   24.0626   77.6485   15.7521 S   0  0  0  0  0  0  0  0  0  0  0  0
   25.0969   78.2371   16.6928 O   0  0  0  0  0  0  0  0  0  0  0  0
   24.5965   76.4060   15.1333 O   0  0  0  0  0  0  0  0  0  0  0  0
   23.6815   78.8129   14.5452 C   0  0  0  0  0  0  0  0  0  0  0  0
   23.5815   78.3078   13.2419 C   0  0  0  0  0  0  0  0  0  0  0  0
   23.1874   79.0797   12.1458 C   0  0  0  0  0  0  0  0  0  0  0  0
   22.8784   80.4189   12.3648 C   0  0  0  0  0  0  0  0  0  0  0  0
   22.9884   80.9037   13.6552 C   0  0  0  0  0  0  0  0  0  0  0  0
   23.3778   80.1256   14.7378 C   0  0  0  0  0  0  0  0  0  0  0  0
   22.4909   81.1211   11.2387 O   0  0  0  0  0  0  0  0  0  0  0  0
   21.6498   80.4281   10.2775 C   0  0  0  0  0  0  0  0  0  0  0  0
   22.0863   79.0231   10.0257 C   0  0  0  0  0  0  0  0  0  0  0  0
   23.1048   78.5464   10.8709 O   0  0  0  0  0  0  0  0  0  0  0  0
   19.2893   79.6080   17.5413 C   0  0  0  0  0  0  0  0  0  0  0  0
   19.6175   80.8925   18.1639 C   0  0  0  0  0  0  0  0  0  0  0  0
   20.4058   81.6266   17.4196 O   0  0  0  0  0  0  0  0  0  0  0  0
   19.2505   81.4562   19.3520 N   0  0  0  0  0  0  0  0  0  0  0  0
   18.6428   80.9704   20.0919 H   0  0  0  0  0  0  0  0  0  0  0  0
   19.5854   82.8184   19.7731 C   0  0  0  0  0  0  0  0  0  0  0  0
   19.8378   82.8233   21.2281 C   0  0  0  0  0  0  0  0  0  0  0  0
   19.0965   83.6616   22.0923 C   0  0  0  0  0  0  0  0  0  0  0  0
   19.3830   83.8003   23.3964 C   0  0  0  0  0  0  0  0  0  0  0  0
   20.4760   83.0835   23.9767 C   0  0  0  0  0  0  0  0  0  0  0  0
   21.1932   82.2936   23.1717 C   0  0  0  0  0  0  0  0  0  0  0  0
   20.9186   82.1340   21.8079 C   0  0  0  0  0  0  0  0  0  0  0  0
   17.7129   84.5491   21.4065 Cl  0  0  0  0  0  0  0  0  0  0  0  0
  7  8  2  0  0  0
  7  9  2  0  0  0
  7  1  1  0  0  0
  7 10  1  0  0  0
  1  2  1  0  0  0
  1  6  1  0  0  0
  2  3  1  0  0  0
  3  4  1  0  0  0
  4  5  1  0  0  0
  4 20  1  0  0  0
  5  6  1  0  0  0
 20 21  1  0  0  0
 21 22  2  0  0  0
 21 23  1  0  0  0
 23 25  1  0  0  0
 25 26  1  0  0  0
 26 27  2  0  0  0
 26 31  1  0  0  0
 27 28  1  0  0  0
 27 32  1  0  0  0
 28 29  2  0  0  0
 29 30  1  0  0  0
 30 31  2  0  0  0
 10 11  2  0  0  0
 10 15  1  0  0  0
 11 12  1  0  0  0
 12 13  2  0  0  0
 12 19  1  0  0  0
 13 14  1  0  0  0
 13 16  1  0  0  0
 14 15  2  0  0  0
 16 17  1  0  0  0
 17 18  1  0  0  0
 18 19  1  0  0  0
 23 24  1  0  0  0
M  END
> <minimizedAffinity>
-10.95366

$$$$
2286


 31 34  0  0  0  0  0  0  0  0999 V2000
   21.0122   79.4465   18.4352 N   0  0  0  0  0  0  0  0  0  0  0  0
   20.0931   78.4689   18.8934 C   0  0  0  0  0  0  0  0  0  0  0  0
   19.5015   77.6174   17.8015 C   0  0  0  0  0  0  0  0  0  0  0  0
   20.4750   77.2771   16.7855 N   0  0  0  0  0  0  0  0  0  0  0  0
   21.8602   77.5661   17.1049 C   0  0  0  0  0  0  0  0  0  0  0  0
   22.0398   78.9907   17.5685 C   0  0  0  0  0  0  0  0  0  0  0  0
   20.0513   76.7042   15.5801 C   0  0  0  0  0  0  0  0  0  0  0  0
   18.8282   76.4933   15.4011 O   0  0  0  0  0  0  0  0  0  0  0  0
   20.3080   80.9348   17.9695 S   0  0  0  0  0  0  0  0  0  0  0  0
   18.9777   80.6739   17.3324 O   0  0  0  0  0  0  0  0  0  0  0  0
   21.1668   81.6586   16.9751 O   0  0  0  0  0  0  0  0  0  0  0  0
   20.1115   82.0237   19.3531 C   0  0  0  0  0  0  0  0  0  0  0  0
   19.6042   81.6540   20.9318 S   0  0  0  0  0  0  0  0  0  0  0  0
   19.6840   83.2073   21.6192 C   0  0  0  0  0  0  0  0  0  0  0  0
   20.1122   83.9911   20.5813 C   0  0  0  0  0  0  0  0  0  0  0  0
   20.3354   83.3727   19.3994 C   0  0  0  0  0  0  0  0  0  0  0  0
   19.3097   83.7265   23.2768 Cl  0  0  0  0  0  0  0  0  0  0  0  0
   20.9994   76.3324   14.4983 C   0  0  0  0  0  0  0  0  0  0  0  0
   20.8487   77.1640   13.3367 N   0  0  0  0  0  0  0  0  0  0  0  0
   19.9534   76.8969   12.2680 C   0  0  0  0  0  0  0  0  0  0  0  0
   19.1748   75.8865   12.2080 O   0  0  0  0  0  0  0  0  0  0  0  0
   20.0272   77.8967   11.2599 N   0  0  0  0  0  0  0  0  0  0  0  0
   21.1719   78.7292   11.5796 C   0  0  0  0  0  0  0  0  0  0  0  0
   20.8410   80.1930   11.5387 C   0  0  0  0  0  0  0  0  0  0  0  0
   20.9329   80.7968   10.1685 C   0  0  0  0  0  0  0  0  0  0  0  0
   22.2181   80.4893    9.4579 C   0  0  0  0  0  0  0  0  0  0  0  0
   23.1057   79.5518   10.2469 C   0  0  0  0  0  0  0  0  0  0  0  0
   22.2788   78.3437   10.6273 C   0  0  0  0  0  0  0  0  0  0  0  0
   21.5034   78.3749   12.9824 C   0  0  0  0  0  0  0  0  0  0  0  0
   22.2426   79.0171   13.7655 O   0  0  0  0  0  0  0  0  0  0  0  0
   19.1103   78.0373   10.1291 C   0  0  0  0  0  0  0  0  0  0  0  0
  9 10  2  0  0  0
  9 11  2  0  0  0
  9  1  1  0  0  0
  9 12  1  0  0  0
  1  2  1  0  0  0
  1  6  1  0  0  0
  2  3  1  0  0  0
  3  4  1  0  0  0
  4  5  1  0  0  0
  4  7  1  0  0  0
  5  6  1  0  0  0
  7  8  2  0  0  0
  7 18  1  0  0  0
 18 19  1  0  0  0
 19 20  1  0  0  0
 19 29  1  0  0  0
 20 21  2  0  0  0
 20 22  1  0  0  0
 22 23  1  0  0  0
 22 31  1  0  0  0
 23 24  1  0  0  0
 23 28  1  0  0  0
 23 29  1  0  0  0
 24 25  1  0  0  0
 25 26  1  0  0  0
 26 27  1  0  0  0
 27 28  1  0  0  0
 29 30  2  0  0  0
 12 13  1  0  0  0
 12 16  2  0  0  0
 13 14  1  0  0  0
 14 15  2  0  0  0
 14 17  1  0  0  0
 15 16  1  0  0  0
M  END
> <minimizedAffinity>
-10.06304

$$$$
2298


 34 37  0  0  0  0  0  0  0  0999 V2000
   21.2697   79.9887   12.1826 C   0  0  0  0  0  0  0  0  0  0  0  0
   20.5793   78.6233    9.0225 N   0  0  0  0  0  0  0  0  0  0  0  0
   21.9521   78.4986    9.0670 C   0  0  0  0  0  0  0  0  0  0  0  0
   22.4849   78.9432   10.4024 C   0  0  0  0  0  0  0  0  0  0  0  0
   21.9312   80.1430   10.9196 N   0  0  0  0  0  0  0  0  0  0  0  0
   21.1113   80.8014    9.9539 C   0  0  0  0  0  0  0  0  0  0  0  0
   20.0409   79.8478    9.4317 C   0  0  0  0  0  0  0  0  0  0  0  0
   19.5628   77.4081    8.5198 S   0  0  0  0  0  0  0  0  0  0  0  0
   18.1912   77.8909    8.1167 O   0  0  0  0  0  0  0  0  0  0  0  0
   20.0770   76.6206    7.3354 O   0  0  0  0  0  0  0  0  0  0  0  0
   19.2995   76.2665    9.8348 C   0  0  0  0  0  0  0  0  0  0  0  0
   18.9173   74.9767    9.5895 C   0  0  0  0  0  0  0  0  0  0  0  0
   18.7114   74.0849   10.6089 C   0  0  0  0  0  0  0  0  0  0  0  0
   18.8937   74.5044   11.9085 C   0  0  0  0  0  0  0  0  0  0  0  0
   19.2795   75.8074   12.1601 C   0  0  0  0  0  0  0  0  0  0  0  0
   19.4836   76.6915   11.1314 C   0  0  0  0  0  0  0  0  0  0  0  0
   18.6218   73.3386   13.1915 Cl  0  0  0  0  0  0  0  0  0  0  0  0
   22.2276   80.1824   13.3229 C   0  0  0  0  0  0  0  0  0  0  0  0
   23.3541   80.6466   13.0426 O   0  0  0  0  0  0  0  0  0  0  0  0
   21.8665   79.8534   14.6536 N   0  0  0  0  0  0  0  0  0  0  0  0
   20.8989   79.4680   14.8216 H   0  0  0  0  0  0  0  0  0  0  0  0
   22.8446   80.0704   15.6797 C   0  0  0  0  0  0  0  0  0  0  0  0
   23.3787   78.8661   16.3544 C   0  0  0  0  0  0  0  0  0  0  0  0
   24.5020   79.2648   17.2799 C   0  0  0  0  0  0  0  0  0  0  0  0
   25.8688   79.2043   16.5903 C   0  0  0  0  0  0  0  0  0  0  0  0
   26.2331   77.7667   16.2772 C   0  0  0  0  0  0  0  0  0  0  0  0
   24.9402   77.0247   15.9921 C   0  0  0  0  0  0  0  0  0  0  0  0
   24.0469   78.0064   15.2633 C   0  0  0  0  0  0  0  0  0  0  0  0
   22.4677   78.0183   17.0221 N   0  0  0  0  0  0  0  0  0  0  0  0
   21.7267   78.5470   18.1117 C   0  0  0  0  0  0  0  0  0  0  0  0
   21.1885   77.3301   18.8866 C   0  0  0  0  0  0  0  0  0  0  0  0
   20.3308   76.6073   18.0929 O   0  0  0  0  0  0  0  0  0  0  0  0
   20.1901   77.0943   16.8179 C   0  0  0  0  0  0  0  0  0  0  0  0
   21.5406   77.3384   16.1435 C   0  0  0  0  0  0  0  0  0  0  0  0
  8  9  2  0  0  0
  8 10  2  0  0  0
  8  2  1  0  0  0
  8 11  1  0  0  0
  2  3  1  0  0  0
  2  7  1  0  0  0
  3  4  1  0  0  0
  4  5  1  0  0  0
  5  6  1  0  0  0
  5  1  1  0  0  0
  6  7  1  0  0  0
  1 18  1  0  0  0
 18 19  2  0  0  0
 18 20  1  0  0  0
 20 22  1  0  0  0
 22 23  1  0  0  0
 23 24  1  0  0  0
 23 28  1  0  0  0
 23 29  1  0  0  0
 24 25  1  0  0  0
 25 26  1  0  0  0
 26 27  1  0  0  0
 27 28  1  0  0  0
 29 30  1  0  0  0
 29 34  1  0  0  0
 30 31  1  0  0  0
 31 32  1  0  0  0
 32 33  1  0  0  0
 33 34  1  0  0  0
 11 12  2  0  0  0
 11 16  1  0  0  0
 12 13  1  0  0  0
 13 14  2  0  0  0
 14 15  1  0  0  0
 14 17  1  0  0  0
 15 16  2  0  0  0
 20 21  1  0  0  0
M  END
> <minimizedAffinity>
-10.15484

$$$$
2301


 24 27  0  0  0  0  0  0  0  0999 V2000
   20.8081   77.8185   17.9006 C   0  0  0  0  0  0  0  0  0  0  0  0
   19.5502   78.3953   18.4610 C   0  0  0  0  0  0  0  0  0  0  0  0
   19.3290   79.8229   17.9312 C   0  0  0  0  0  0  0  0  0  0  0  0
   20.4623   80.5607   18.5080 N   0  0  0  0  0  0  0  0  0  0  0  0
   21.7415   80.1685   18.0069 C   0  0  0  0  0  0  0  0  0  0  0  0
   21.9928   78.6909   18.0856 C   0  0  0  0  0  0  0  0  0  0  0  0
   21.0431   76.6286   18.6361 O   0  0  0  0  0  0  0  0  0  0  0  0
   21.5218   76.9019   19.4785 H   0  0  0  0  0  0  0  0  0  0  0  0
   20.2032   81.5597   19.4771 C   0  0  0  0  0  0  0  0  0  0  0  0
   19.3238   82.5382   19.2018 N   0  0  0  0  0  0  0  0  0  0  0  0
   18.9903   83.5151   20.0224 N   0  0  0  0  0  0  0  0  0  0  0  0
   18.1607   84.5600   19.9609 N   0  0  0  0  0  0  0  0  0  0  0  0
   18.1971   85.2461   21.0812 N   0  0  0  0  0  0  0  0  0  0  0  0
   19.0450   84.6523   21.8756 N   0  0  0  0  0  0  0  0  0  0  0  0
   19.5486   83.5717   21.2300 C   0  0  0  0  0  0  0  0  0  0  0  0
   20.4651   82.5970   21.5858 C   0  0  0  0  0  0  0  0  0  0  0  0
   20.8022   81.5830   20.7144 C   0  0  0  0  0  0  0  0  0  0  0  0
   19.4909   75.7531   12.3889 Cl  0  0  0  0  0  0  0  0  0  0  0  0
   19.8868   76.3679   13.9805 C   0  0  0  0  0  0  0  0  0  0  0  0
   21.0193   77.1363   14.2152 C   0  0  0  0  0  0  0  0  0  0  0  0
   21.3647   77.6258   15.4442 C   0  0  0  0  0  0  0  0  0  0  0  0
   20.5693   77.3617   16.5217 C   0  0  0  0  0  0  0  0  0  0  0  0
   19.4233   76.5945   16.3181 C   0  0  0  0  0  0  0  0  0  0  0  0
   19.0916   76.1078   15.0685 C   0  0  0  0  0  0  0  0  0  0  0  0
 18 19  1  0  0  0
 19 20  2  0  0  0
 19 24  1  0  0  0
 20 21  1  0  0  0
 21 22  2  0  0  0
 22 23  1  0  0  0
 22  1  1  0  0  0
 23 24  2  0  0  0
  1  2  1  0  0  0
  1  6  1  0  0  0
  1  7  1  0  0  0
  2  3  1  0  0  0
  3  4  1  0  0  0
  4  5  1  0  0  0
  4  9  1  0  0  0
  5  6  1  0  0  0
  9 10  2  0  0  0
  9 17  1  0  0  0
 10 11  1  0  0  0
 11 12  1  0  0  0
 11 15  1  0  0  0
 12 13  2  0  0  0
 13 14  1  0  0  0
 14 15  2  0  0  0
 15 16  1  0  0  0
 16 17  2  0  0  0
  7  8  1  0  0  0
M  END
> <minimizedAffinity>
-10.07948

$$$$
2304


 28 31  0  0  0  0  0  0  0  0999 V2000
   23.9792   78.0189   15.0622 N   0  0  0  0  0  0  0  0  0  0  0  0
   24.5093   79.0226   14.2198 C   0  0  0  0  0  0  0  0  0  0  0  0
   23.9227   79.0638   12.8333 C   0  0  0  0  0  0  0  0  0  0  0  0
   22.4966   78.8957   12.8185 N   0  0  0  0  0  0  0  0  0  0  0  0
   21.8780   78.4515   14.0424 C   0  0  0  0  0  0  0  0  0  0  0  0
   22.7884   77.3761   14.6289 C   0  0  0  0  0  0  0  0  0  0  0  0
   21.7679   79.1554   11.6461 C   0  0  0  0  0  0  0  0  0  0  0  0
   22.4208   79.5272   10.6301 O   0  0  0  0  0  0  0  0  0  0  0  0
   20.2897   79.0209   11.5307 C   0  0  0  0  0  0  0  0  0  0  0  0
   19.9079   77.7123   11.1446 N   0  0  0  0  0  0  0  0  0  0  0  0
   19.8028   77.4663    9.7431 C   0  0  0  0  0  0  0  0  0  0  0  0
   19.2944   79.0715    9.0937 S   0  0  0  0  0  0  0  0  0  0  0  0
   19.6928   80.0376   10.6039 C   0  0  0  0  0  0  0  0  0  0  0  0
   18.5996   76.5473    9.6546 C   0  0  0  0  0  0  0  0  0  0  0  0
   18.9669   75.5647   10.7744 C   0  0  0  0  0  0  0  0  0  0  0  0
   19.5696   76.4510   11.7668 C   0  0  0  0  0  0  0  0  0  0  0  0
   19.7510   76.1264   12.9788 O   0  0  0  0  0  0  0  0  0  0  0  0
   20.9969   76.8995    9.0849 C   0  0  0  0  0  0  0  0  0  0  0  0
   24.0897   78.3192   16.7286 S   0  0  0  0  0  0  0  0  0  0  0  0
   24.7019   77.1561   17.4439 O   0  0  0  0  0  0  0  0  0  0  0  0
   25.0143   79.4925   16.9398 O   0  0  0  0  0  0  0  0  0  0  0  0
   22.5458   78.7608   17.4522 C   0  0  0  0  0  0  0  0  0  0  0  0
   22.0398   80.0323   17.2985 C   0  0  0  0  0  0  0  0  0  0  0  0
   20.8387   80.4101   17.8514 C   0  0  0  0  0  0  0  0  0  0  0  0
   20.0784   79.5232   18.5923 C   0  0  0  0  0  0  0  0  0  0  0  0
   20.6134   78.2531   18.7289 C   0  0  0  0  0  0  0  0  0  0  0  0
   21.8103   77.8621   18.1823 C   0  0  0  0  0  0  0  0  0  0  0  0
   18.5452   79.9704   19.3106 Cl  0  0  0  0  0  0  0  0  0  0  0  0
 19 20  2  0  0  0
 19 21  2  0  0  0
 19  1  1  0  0  0
 19 22  1  0  0  0
  1  2  1  0  0  0
  1  6  1  0  0  0
  2  3  1  0  0  0
  3  4  1  0  0  0
  4  5  1  0  0  0
  4  7  1  0  0  0
  5  6  1  0  0  0
  7  8  2  0  0  0
  7  9  1  0  0  0
  9 10  1  0  0  0
  9 13  1  0  0  0
 10 11  1  0  0  0
 10 16  1  0  0  0
 11 12  1  0  0  0
 11 14  1  0  0  0
 11 18  1  0  0  0
 12 13  1  0  0  0
 14 15  1  0  0  0
 15 16  1  0  0  0
 16 17  2  0  0  0
 22 23  2  0  0  0
 22 27  1  0  0  0
 23 24  1  0  0  0
 24 25  2  0  0  0
 25 26  1  0  0  0
 25 28  1  0  0  0
 26 27  2  0  0  0
M  END
> <minimizedAffinity>
-8.50431

$$$$
2319


 33 36  0  0  0  0  0  0  0  0999 V2000
   21.2438   77.8756   16.1345 N   0  0  0  0  0  0  0  0  0  0  0  0
   20.2387   77.5995   17.0880 C   0  0  0  0  0  0  0  0  0  0  0  0
   19.1301   77.1521   16.7280 O   0  0  0  0  0  0  0  0  0  0  0  0
   22.1895   78.2495   16.3626 H   0  0  0  0  0  0  0  0  0  0  0  0
   22.5368   80.9802    9.4831 Br  0  0  0  0  0  0  0  0  0  0  0  0
   21.6975   79.5108   10.3777 C   0  0  0  0  0  0  0  0  0  0  0  0
   21.7509   79.3709   11.7494 C   0  0  0  0  0  0  0  0  0  0  0  0
   21.1458   78.3137   12.4075 C   0  0  0  0  0  0  0  0  0  0  0  0
   20.4820   77.3987   11.6197 C   0  0  0  0  0  0  0  0  0  0  0  0
   20.4079   77.5039   10.2490 C   0  0  0  0  0  0  0  0  0  0  0  0
   21.0183   78.5681    9.6057 C   0  0  0  0  0  0  0  0  0  0  0  0
   19.4694   76.1992    9.2141 Br  0  0  0  0  0  0  0  0  0  0  0  0
   21.3503   78.4063   13.8454 C   0  0  0  0  0  0  0  0  0  0  0  0
   20.9553   77.6352   14.7878 N   0  0  0  0  0  0  0  0  0  0  0  0
   22.1436   79.6225   14.0546 C   0  0  0  0  0  0  0  0  0  0  0  0
   22.5177   80.0308   15.1866 O   0  0  0  0  0  0  0  0  0  0  0  0
   22.3563   80.1628   12.7656 N   0  0  0  0  0  0  0  0  0  0  0  0
   22.8884   81.0298   12.5798 H   0  0  0  0  0  0  0  0  0  0  0  0
   20.4428   77.8238   18.5542 C   0  0  0  0  0  0  0  0  0  0  0  0
   20.8345   79.1761   18.8418 N   0  0  0  0  0  0  0  0  0  0  0  0
   19.9068   80.2510   18.9088 C   0  0  0  0  0  0  0  0  0  0  0  0
   18.6975   80.0043   18.7087 O   0  0  0  0  0  0  0  0  0  0  0  0
   21.8361   79.4262   19.0173 H   0  0  0  0  0  0  0  0  0  0  0  0
   20.2992   81.6617   19.2038 C   0  0  0  0  0  0  0  0  0  0  0  0
   21.0643   81.7580   20.3685 O   0  0  0  0  0  0  0  0  0  0  0  0
   20.6283   82.3272   21.5629 C   0  0  0  0  0  0  0  0  0  0  0  0
   19.5430   83.1603   21.4941 C   0  0  0  0  0  0  0  0  0  0  0  0
   19.0852   83.7454   22.6748 C   0  0  0  0  0  0  0  0  0  0  0  0
   19.6826   83.5164   23.8933 C   0  0  0  0  0  0  0  0  0  0  0  0
   20.7745   82.6708   23.9232 C   0  0  0  0  0  0  0  0  0  0  0  0
   21.2302   82.0909   22.7625 C   0  0  0  0  0  0  0  0  0  0  0  0
   18.9425   83.3948   20.2881 O   0  0  0  0  0  0  0  0  0  0  0  0
   19.1441   82.5990   19.1530 C   0  0  0  0  0  0  0  0  0  0  0  0
  5  6  1  0  0  0
  6  7  2  0  0  0
  6 11  1  0  0  0
  7  8  1  0  0  0
  7 17  1  0  0  0
  8  9  2  0  0  0
  8 13  1  0  0  0
  9 10  1  0  0  0
 10 11  2  0  0  0
 10 12  1  0  0  0
 13 14  2  0  0  0
 13 15  1  0  0  0
 14  1  1  0  0  0
  1  2  1  0  0  0
  2  3  2  0  0  0
  2 19  1  0  0  0
 19 20  1  0  0  0
 20 21  1  0  0  0
 21 22  2  0  0  0
 21 24  1  0  0  0
 24 25  1  0  0  0
 24 33  1  0  0  0
 25 26  1  0  0  0
 26 27  2  0  0  0
 26 31  1  0  0  0
 27 28  1  0  0  0
 27 32  1  0  0  0
 28 29  2  0  0  0
 29 30  1  0  0  0
 30 31  2  0  0  0
 32 33  1  0  0  0
 15 16  2  0  0  0
 15 17  1  0  0  0
  1  4  1  0  0  0
 20 23  1  0  0  0
 17 18  1  0  0  0
M  END
> <minimizedAffinity>
-10.28012

$$$$
2330


 28 31  0  0  0  0  0  0  0  0999 V2000
   21.2000   77.9063   16.3587 C   0  0  0  0  0  0  0  0  0  0  0  0
   20.7281   76.7468   16.3942 O   0  0  0  0  0  0  0  0  0  0  0  0
   20.7348   78.8626   17.2631 N   0  0  0  0  0  0  0  0  0  0  0  0
   21.2160   79.8258   17.1541 H   0  0  0  0  0  0  0  0  0  0  0  0
   24.0348   77.6678   17.2743 Cl  0  0  0  0  0  0  0  0  0  0  0  0
   23.5802   78.1075   15.6347 C   0  0  0  0  0  0  0  0  0  0  0  0
   22.2338   78.1815   15.3440 C   0  0  0  0  0  0  0  0  0  0  0  0
   21.8983   78.5282   14.0525 C   0  0  0  0  0  0  0  0  0  0  0  0
   22.8082   78.7966   13.0636 C   0  0  0  0  0  0  0  0  0  0  0  0
   24.1615   78.7083   13.4088 C   0  0  0  0  0  0  0  0  0  0  0  0
   24.5564   78.3682   14.6759 C   0  0  0  0  0  0  0  0  0  0  0  0
   22.4317   79.1618   11.7055 C   0  0  0  0  0  0  0  0  0  0  0  0
   21.5136   80.0364   11.2841 N   0  0  0  0  0  0  0  0  0  0  0  0
   21.5087   80.0508    9.9414 N   0  0  0  0  0  0  0  0  0  0  0  0
   22.4173   79.1908    9.5165 N   0  0  0  0  0  0  0  0  0  0  0  0
   22.9839   78.6469   10.5957 N   0  0  0  0  0  0  0  0  0  0  0  0
   20.9000   80.6325    9.3208 H   0  0  0  0  0  0  0  0  0  0  0  0
   19.7614   78.7862   18.2743 C   0  0  0  0  0  0  0  0  0  0  0  0
   19.6548   79.8262   19.3056 C   0  0  0  0  0  0  0  0  0  0  0  0
   19.8549   81.2266   18.9427 C   0  0  0  0  0  0  0  0  0  0  0  0
   19.5950   82.3092   19.6835 N   0  0  0  0  0  0  0  0  0  0  0  0
   19.9612   83.3803   18.9978 C   0  0  0  0  0  0  0  0  0  0  0  0
   20.4516   82.9638   17.8229 N   0  0  0  0  0  0  0  0  0  0  0  0
   20.3856   81.6605   17.7938 N   0  0  0  0  0  0  0  0  0  0  0  0
   19.8220   84.6598   19.4917 C   0  0  0  0  0  0  0  0  0  0  0  0
   19.2756   84.7968   20.7546 C   0  0  0  0  0  0  0  0  0  0  0  0
   18.8997   83.6835   21.4559 C   0  0  0  0  0  0  0  0  0  0  0  0
   19.0632   82.4427   20.9144 C   0  0  0  0  0  0  0  0  0  0  0  0
  5  6  1  0  0  0
  6  7  2  0  0  0
  6 11  1  0  0  0
  7  8  1  0  0  0
  7  1  1  0  0  0
  8  9  2  0  0  0
  9 10  1  0  0  0
  9 12  1  0  0  0
 10 11  2  0  0  0
 12 13  2  0  0  0
 12 16  1  0  0  0
 13 14  1  0  0  0
 14 15  1  0  0  0
 15 16  2  0  0  0
  1  2  2  0  0  0
  1  3  1  0  0  0
  3 18  1  0  0  0
 18 19  1  0  0  0
 19 20  1  0  0  0
 20 21  1  0  0  0
 20 24  2  0  0  0
 21 22  1  0  0  0
 21 28  1  0  0  0
 22 23  2  0  0  0
 22 25  1  0  0  0
 23 24  1  0  0  0
 25 26  2  0  0  0
 26 27  1  0  0  0
 27 28  2  0  0  0
 14 17  1  0  0  0
  3  4  1  0  0  0
M  END
> <minimizedAffinity>
-9.99554

$$$$
2334


 30 33  0  0  0  0  0  0  0  0999 V2000
   21.5743   77.8394   16.6905 S   0  0  0  0  0  0  0  0  0  0  0  0
   22.7386   77.1924   17.4443 O   0  0  0  0  0  0  0  0  0  0  0  0
   20.6028   76.6794   16.4427 O   0  0  0  0  0  0  0  0  0  0  0  0
   22.1116   78.4125   15.1684 C   0  0  0  0  0  0  0  0  0  0  0  0
   23.2853   79.1075   15.0086 C   0  0  0  0  0  0  0  0  0  0  0  0
   23.6983   79.4879   13.7405 C   0  0  0  0  0  0  0  0  0  0  0  0
   22.9414   79.1816   12.6061 C   0  0  0  0  0  0  0  0  0  0  0  0
   21.7611   78.4880   12.7521 C   0  0  0  0  0  0  0  0  0  0  0  0
   21.3691   78.1193   14.0175 C   0  0  0  0  0  0  0  0  0  0  0  0
   24.2859   79.6296   16.3469 Cl  0  0  0  0  0  0  0  0  0  0  0  0
   20.9518   78.1573   11.5869 C   0  0  0  0  0  0  0  0  0  0  0  0
   19.6779   77.7302   11.6022 N   0  0  0  0  0  0  0  0  0  0  0  0
   19.2624   77.5287   10.3822 O   0  0  0  0  0  0  0  0  0  0  0  0
   20.2300   77.8119    9.5512 C   0  0  0  0  0  0  0  0  0  0  0  0
   21.2873   78.2039   10.2875 N   0  0  0  0  0  0  0  0  0  0  0  0
   20.1865   77.7206    8.0504 C   0  0  0  0  0  0  0  0  0  0  0  0
   20.8796   78.9640   17.7505 N   0  0  0  0  0  0  0  0  0  0  0  0
   19.7571   79.6871   17.2684 C   0  0  0  0  0  0  0  0  0  0  0  0
   19.1799   80.6427   18.2865 C   0  0  0  0  0  0  0  0  0  0  0  0
   18.8343   79.9193   19.5423 C   0  0  0  0  0  0  0  0  0  0  0  0
   19.9875   79.0606   20.0324 C   0  0  0  0  0  0  0  0  0  0  0  0
   20.4373   78.1781   18.9210 C   0  0  0  0  0  0  0  0  0  0  0  0
   19.9694   81.8768   18.4731 C   0  0  0  0  0  0  0  0  0  0  0  0
   20.8336   82.1151   17.5506 O   0  0  0  0  0  0  0  0  0  0  0  0
   19.8789   82.7905   19.5138 N   0  0  0  0  0  0  0  0  0  0  0  0
   20.6833   83.9714   19.5522 C   0  0  0  0  0  0  0  0  0  0  0  0
   19.9762   85.1667   20.1278 C   0  0  0  0  0  0  0  0  0  0  0  0
   18.9420   84.8892   20.9659 O   0  0  0  0  0  0  0  0  0  0  0  0
   18.1038   83.8570   20.5988 C   0  0  0  0  0  0  0  0  0  0  0  0
   18.9800   82.5934   20.6247 C   0  0  0  0  0  0  0  0  0  0  0  0
  1  2  2  0  0  0
  1  3  2  0  0  0
  1 17  1  0  0  0
  1  4  1  0  0  0
 17 18  1  0  0  0
 17 22  1  0  0  0
 18 19  1  0  0  0
 19 20  1  0  0  0
 19 23  1  0  0  0
 20 21  1  0  0  0
 21 22  1  0  0  0
 23 24  2  0  0  0
 23 25  1  0  0  0
 25 26  1  0  0  0
 25 30  1  0  0  0
 26 27  1  0  0  0
 27 28  1  0  0  0
 28 29  1  0  0  0
 29 30  1  0  0  0
  4  5  2  0  0  0
  4  9  1  0  0  0
  5  6  1  0  0  0
  5 10  1  0  0  0
  6  7  2  0  0  0
  7  8  1  0  0  0
  8  9  2  0  0  0
  8 11  1  0  0  0
 11 12  2  0  0  0
 11 15  1  0  0  0
 12 13  1  0  0  0
 13 14  1  0  0  0
 14 15  2  0  0  0
 14 16  1  0  0  0
M  END
> <minimizedAffinity>
-10.66957

$$$$
2335


 35 38  0  0  0  0  0  0  0  0999 V2000
   20.4534   76.7622   15.6024 N   0  0  0  0  0  0  0  0  0  0  0  0
   19.6995   77.2814   16.6735 C   0  0  0  0  0  0  0  0  0  0  0  0
   19.8227   78.7814   16.8311 C   0  0  0  0  0  0  0  0  0  0  0  0
   21.1012   79.3409   16.3365 C   0  0  0  0  0  0  0  0  0  0  0  0
   22.2166   78.3857   16.1154 C   0  0  0  0  0  0  0  0  0  0  0  0
   21.8217   77.0370   15.5698 C   0  0  0  0  0  0  0  0  0  0  0  0
   19.5993   79.1864   18.2425 C   0  0  0  0  0  0  0  0  0  0  0  0
   19.5862   78.2870   19.1183 O   0  0  0  0  0  0  0  0  0  0  0  0
   19.4057   80.5776   18.5831 N   0  0  0  0  0  0  0  0  0  0  0  0
   19.4254   81.2276   17.7933 H   0  0  0  0  0  0  0  0  0  0  0  0
   19.2000   80.8914   19.9500 C   0  0  0  0  0  0  0  0  0  0  0  0
   20.2912   81.5457   20.7090 C   0  0  0  0  0  0  0  0  0  0  0  0
   20.1956   82.9263   21.0068 N   0  0  0  0  0  0  0  0  0  0  0  0
   19.0176   83.4017   21.5701 C   0  0  0  0  0  0  0  0  0  0  0  0
   18.2063   84.3494   20.7346 C   0  0  0  0  0  0  0  0  0  0  0  0
   18.9940   85.2485   20.0312 O   0  0  0  0  0  0  0  0  0  0  0  0
   19.7625   84.4923   19.1467 C   0  0  0  0  0  0  0  0  0  0  0  0
   20.7845   83.7513   19.9777 C   0  0  0  0  0  0  0  0  0  0  0  0
   19.6993   75.9123   14.3895 S   0  0  0  0  0  0  0  0  0  0  0  0
   18.2284   75.7324   14.7609 O   0  0  0  0  0  0  0  0  0  0  0  0
   20.2416   74.4883   14.3889 O   0  0  0  0  0  0  0  0  0  0  0  0
   19.8390   76.5446   12.7907 C   0  0  0  0  0  0  0  0  0  0  0  0
   20.4492   77.7711   12.5762 C   0  0  0  0  0  0  0  0  0  0  0  0
   20.5979   78.3124   11.3223 C   0  0  0  0  0  0  0  0  0  0  0  0
   20.1143   77.6005   10.2181 C   0  0  0  0  0  0  0  0  0  0  0  0
   19.5187   76.4021   10.4383 C   0  0  0  0  0  0  0  0  0  0  0  0
   19.3704   75.8576   11.7032 C   0  0  0  0  0  0  0  0  0  0  0  0
   18.5008   74.1450   11.8931 Br  0  0  0  0  0  0  0  0  0  0  0  0
   20.3719   78.3558    8.9621 C   0  0  0  0  0  0  0  0  0  0  0  0
   20.5456   79.7669    9.4858 C   0  0  0  0  0  0  0  0  0  0  0  0
   21.1661   79.5000   10.7886 N   0  0  0  0  0  0  0  0  0  0  0  0
   22.1465   80.3153   11.3504 C   0  0  0  0  0  0  0  0  0  0  0  0
   22.5768   81.3291   10.6994 O   0  0  0  0  0  0  0  0  0  0  0  0
   22.7406   80.0927   12.6668 C   0  0  0  0  0  0  0  0  0  0  0  0
   23.8260   79.0196   12.6308 C   0  0  0  0  0  0  0  0  0  0  0  0
 19 20  2  0  0  0
 19 21  2  0  0  0
 19  1  1  0  0  0
 19 22  1  0  0  0
  1  2  1  0  0  0
  1  6  1  0  0  0
  2  3  1  0  0  0
  3  4  1  0  0  0
  3  7  1  0  0  0
  4  5  1  0  0  0
  5  6  1  0  0  0
  7  8  2  0  0  0
  7  9  1  0  0  0
  9 11  1  0  0  0
 11 12  1  0  0  0
 12 13  1  0  0  0
 13 14  1  0  0  0
 13 18  1  0  0  0
 14 15  1  0  0  0
 15 16  1  0  0  0
 16 17  1  0  0  0
 17 18  1  0  0  0
 22 23  2  0  0  0
 22 27  1  0  0  0
 23 24  1  0  0  0
 24 25  2  0  0  0
 24 31  1  0  0  0
 25 26  1  0  0  0
 25 29  1  0  0  0
 26 27  2  0  0  0
 27 28  1  0  0  0
 29 30  1  0  0  0
 30 31  1  0  0  0
 31 32  1  0  0  0
 32 33  2  0  0  0
 32 34  1  0  0  0
 34 35  1  0  0  0
  9 10  1  0  0  0
M  END
> <minimizedAffinity>
-9.98608

$$$$
2345


 27 30  0  0  0  0  0  0  0  0999 V2000
   22.7926   79.6707   12.6526 C   0  0  0  0  0  0  0  0  0  0  0  0
   22.3709   80.6981   13.3038 O   0  0  0  0  0  0  0  0  0  0  0  0
   22.7298   79.7557   11.2577 N   0  0  0  0  0  0  0  0  0  0  0  0
   22.1992   80.9495   10.6195 C   0  0  0  0  0  0  0  0  0  0  0  0
   21.0304   80.5936    9.7060 C   0  0  0  0  0  0  0  0  0  0  0  0
   21.2766   79.3130    9.1115 N   0  0  0  0  0  0  0  0  0  0  0  0
   22.6305   78.8762    8.9547 C   0  0  0  0  0  0  0  0  0  0  0  0
   23.1768   78.6962   10.3847 C   0  0  0  0  0  0  0  0  0  0  0  0
   22.7241   78.2122   15.7294 N   0  0  0  0  0  0  0  0  0  0  0  0
   22.2721   77.9247   14.3735 C   0  0  0  0  0  0  0  0  0  0  0  0
   23.2849   78.5400   13.4486 C   0  0  0  0  0  0  0  0  0  0  0  0
   24.5142   78.8003   14.2537 C   0  0  0  0  0  0  0  0  0  0  0  0
   24.1554   78.3744   15.6265 C   0  0  0  0  0  0  0  0  0  0  0  0
   24.9079   78.1574   16.6316 O   0  0  0  0  0  0  0  0  0  0  0  0
   19.4260   78.6716   20.7178 Cl  0  0  0  0  0  0  0  0  0  0  0  0
   20.3961   78.5303   19.2522 C   0  0  0  0  0  0  0  0  0  0  0  0
   20.5979   77.3122   18.6596 C   0  0  0  0  0  0  0  0  0  0  0  0
   21.3606   77.2156   17.5104 C   0  0  0  0  0  0  0  0  0  0  0  0
   21.9424   78.3143   16.9154 C   0  0  0  0  0  0  0  0  0  0  0  0
   21.7300   79.5340   17.5223 C   0  0  0  0  0  0  0  0  0  0  0  0
   20.9585   79.6419   18.6884 C   0  0  0  0  0  0  0  0  0  0  0  0
   20.2090   78.4900    8.6942 C   0  0  0  0  0  0  0  0  0  0  0  0
   19.5126   77.6076    9.4628 N   0  0  0  0  0  0  0  0  0  0  0  0
   18.5728   77.0210    8.7095 C   0  0  0  0  0  0  0  0  0  0  0  0
   18.6639   77.5299    7.4355 C   0  0  0  0  0  0  0  0  0  0  0  0
   19.6541   78.4041    7.4691 N   0  0  0  0  0  0  0  0  0  0  0  0
   19.7570   77.3420   10.8867 C   0  0  0  0  0  0  0  0  0  0  0  0
 15 16  1  0  0  0
 16 17  2  0  0  0
 16 21  1  0  0  0
 17 18  1  0  0  0
 18 19  2  0  0  0
 19 20  1  0  0  0
 19  9  1  0  0  0
 20 21  2  0  0  0
  9 10  1  0  0  0
  9 13  1  0  0  0
 10 11  1  0  0  0
 11 12  1  0  0  0
 11  1  1  0  0  0
 12 13  1  0  0  0
 13 14  2  0  0  0
  1  2  2  0  0  0
  1  3  1  0  0  0
  3  4  1  0  0  0
  3  8  1  0  0  0
  4  5  1  0  0  0
  5  6  1  0  0  0
  6  7  1  0  0  0
  6 22  1  0  0  0
  7  8  1  0  0  0
 22 23  1  0  0  0
 22 26  2  0  0  0
 23 24  1  0  0  0
 23 27  1  0  0  0
 24 25  2  0  0  0
 25 26  1  0  0  0
M  END
> <minimizedAffinity>
-8.85306

$$$$
2349


 28 31  0  0  0  0  0  0  0  0999 V2000
   20.3173   79.7475   18.9426 N   0  0  0  0  0  0  0  0  0  0  0  0
   19.6453   78.5776   19.4313 C   0  0  0  0  0  0  0  0  0  0  0  0
   18.9359   78.6737   20.4722 O   0  0  0  0  0  0  0  0  0  0  0  0
   19.8307   77.3805   18.6961 N   0  0  0  0  0  0  0  0  0  0  0  0
   20.5401   77.2638   17.6624 C   0  0  0  0  0  0  0  0  0  0  0  0
   21.3319   78.3649   17.0130 C   0  0  0  0  0  0  0  0  0  0  0  0
   22.7660   77.9514   17.1871 C   0  0  0  0  0  0  0  0  0  0  0  0
   23.7078   78.4692   16.2719 N   0  0  0  0  0  0  0  0  0  0  0  0
   23.2924   78.5413   14.9213 C   0  0  0  0  0  0  0  0  0  0  0  0
   21.9698   78.5326   14.6143 C   0  0  0  0  0  0  0  0  0  0  0  0
   21.5996   78.6068   13.2742 C   0  0  0  0  0  0  0  0  0  0  0  0
   22.5691   78.6855   12.2950 C   0  0  0  0  0  0  0  0  0  0  0  0
   23.9195   78.6934   12.6097 C   0  0  0  0  0  0  0  0  0  0  0  0
   24.2761   78.6189   13.9550 C   0  0  0  0  0  0  0  0  0  0  0  0
   22.2033   78.7557   10.8446 C   0  0  0  0  0  0  0  0  0  0  0  0
   20.8764   78.4548   15.6074 C   0  0  0  0  0  0  0  0  0  0  0  0
   24.3331   79.7240   16.6600 C   0  0  0  0  0  0  0  0  0  0  0  0
   21.0981   79.6202   17.7678 C   0  0  0  0  0  0  0  0  0  0  0  0
   21.6205   80.7228   17.3700 O   0  0  0  0  0  0  0  0  0  0  0  0
   20.6441   76.0211   17.0101 O   0  0  0  0  0  0  0  0  0  0  0  0
   24.5254   77.7782   16.2543 H   0  0  0  0  0  0  0  0  0  0  0  0
   19.6101   84.8244   22.0993 Cl  0  0  0  0  0  0  0  0  0  0  0  0
   19.8441   83.3423   21.1915 C   0  0  0  0  0  0  0  0  0  0  0  0
   19.0333   83.0407   20.0968 C   0  0  0  0  0  0  0  0  0  0  0  0
   19.1966   81.8850   19.3818 C   0  0  0  0  0  0  0  0  0  0  0  0
   20.1731   80.9367   19.6930 C   0  0  0  0  0  0  0  0  0  0  0  0
   20.9733   81.2463   20.7805 C   0  0  0  0  0  0  0  0  0  0  0  0
   20.8112   82.4057   21.5002 C   0  0  0  0  0  0  0  0  0  0  0  0
 22 23  1  0  0  0
 23 24  2  0  0  0
 23 28  1  0  0  0
 24 25  1  0  0  0
 25 26  2  0  0  0
 26 27  1  0  0  0
 26  1  1  0  0  0
 27 28  2  0  0  0
  1  2  1  0  0  0
  1 18  1  0  0  0
  2  3  2  0  0  0
  2  4  1  0  0  0
  4  5  2  0  0  0
  5  6  1  0  0  0
  5 20  1  0  0  0
  6  7  1  0  0  0
  6 16  1  0  0  0
  6 18  1  0  0  0
  7  8  1  0  0  0
  8  9  1  0  0  0
  8 17  1  0  0  0
  9 10  2  0  0  0
  9 14  1  0  0  0
 10 11  1  0  0  0
 10 16  1  0  0  0
 11 12  2  0  0  0
 12 13  1  0  0  0
 12 15  1  0  0  0
 13 14  2  0  0  0
 18 19  2  0  0  0
  8 21  1  0  0  0
M  CHG 1   8   1
M  CHG 1  20  -1
M  END
> <minimizedAffinity>
-10.95214

$$$$
2350


 23 26  0  0  0  0  0  0  0  0999 V2000
   22.6516   78.8575   15.7155 N   0  0  0  0  0  0  0  0  0  0  0  0
   22.2285   79.9079   16.6000 C   0  0  0  0  0  0  0  0  0  0  0  0
   22.0241   81.0886   16.2215 O   0  0  0  0  0  0  0  0  0  0  0  0
   22.0759   79.3986   17.9857 C   0  0  0  0  0  0  0  0  0  0  0  0
   20.6728   79.4543   18.4968 C   0  0  0  0  0  0  0  0  0  0  0  0
   19.7514   79.2902   17.3063 C   0  0  0  0  0  0  0  0  0  0  0  0
   20.0703   77.8607   16.8712 C   0  0  0  0  0  0  0  0  0  0  0  0
   21.0130   77.3078   17.9146 C   0  0  0  0  0  0  0  0  0  0  0  0
   22.3846   77.9023   17.8488 C   0  0  0  0  0  0  0  0  0  0  0  0
   23.0459   77.7638   16.5288 C   0  0  0  0  0  0  0  0  0  0  0  0
   23.8191   76.8243   16.2196 O   0  0  0  0  0  0  0  0  0  0  0  0
   20.4705   78.0734   19.1428 C   0  0  0  0  0  0  0  0  0  0  0  0
   18.9311   77.0598   16.9182 O   0  0  0  0  0  0  0  0  0  0  0  0
   18.4540   79.3042   17.7709 O   0  0  0  0  0  0  0  0  0  0  0  0
   18.5102   77.0903   16.0071 H   0  0  0  0  0  0  0  0  0  0  0  0
   18.2535   80.0094   18.4291 H   0  0  0  0  0  0  0  0  0  0  0  0
   22.8626   78.8723    9.7242 Cl  0  0  0  0  0  0  0  0  0  0  0  0
   22.7860   78.8597   11.4849 C   0  0  0  0  0  0  0  0  0  0  0  0
   23.9283   79.0562   12.2374 C   0  0  0  0  0  0  0  0  0  0  0  0
   23.8911   79.0535   13.6112 C   0  0  0  0  0  0  0  0  0  0  0  0
   22.6862   78.8508   14.2950 C   0  0  0  0  0  0  0  0  0  0  0  0
   21.5709   78.6589   13.5135 C   0  0  0  0  0  0  0  0  0  0  0  0
   21.5791   78.6571   12.1390 C   0  0  0  0  0  0  0  0  0  0  0  0
 17 18  1  0  0  0
 18 19  2  0  0  0
 18 23  1  0  0  0
 19 20  1  0  0  0
 20 21  2  0  0  0
 21 22  1  0  0  0
 21  1  1  0  0  0
 22 23  2  0  0  0
  1  2  1  0  0  0
  1 10  1  0  0  0
  2  3  2  0  0  0
  2  4  1  0  0  0
  4  5  1  0  0  0
  4  9  1  0  0  0
  5  6  1  0  0  0
  5 12  1  0  0  0
  6  7  1  0  0  0
  6 14  1  0  0  0
  7  8  1  0  0  0
  7 13  1  0  0  0
  8  9  1  0  0  0
  8 12  1  0  0  0
  9 10  1  0  0  0
 10 11  2  0  0  0
 13 15  1  0  0  0
 14 16  1  0  0  0
M  END
> <minimizedAffinity>
-9.74788

$$$$
2357


 36 39  0  0  0  0  0  0  0  0999 V2000
   22.1319   80.1319   17.1140 C   0  0  0  0  0  0  0  0  0  0  0  0
   21.8853   79.8288   18.3734 C   0  0  0  0  0  0  0  0  0  0  0  0
   20.4412   80.0093   18.6659 C   0  0  0  0  0  0  0  0  0  0  0  0
   19.8494   79.9955   17.3572 N   0  0  0  0  0  0  0  0  0  0  0  0
   20.8787   80.5033   16.5500 N   0  0  0  0  0  0  0  0  0  0  0  0
   18.9656   80.4946   17.2723 H   0  0  0  0  0  0  0  0  0  0  0  0
   20.7303   81.0582   15.6836 H   0  0  0  0  0  0  0  0  0  0  0  0
   23.0272   78.7255   14.3000 N   0  0  0  0  0  0  0  0  0  0  0  0
   23.5113   77.5746   14.9773 C   0  0  0  0  0  0  0  0  0  0  0  0
   23.3693   76.4481   14.3854 O   0  0  0  0  0  0  0  0  0  0  0  0
   24.1148   77.6824   16.2340 N   0  0  0  0  0  0  0  0  0  0  0  0
   24.2576   78.9411   16.8618 C   0  0  0  0  0  0  0  0  0  0  0  0
   25.0554   79.0927   17.8070 O   0  0  0  0  0  0  0  0  0  0  0  0
   23.4527   80.0925   16.3960 C   0  0  0  0  0  0  0  0  0  0  0  0
   23.1775   79.9823   14.9434 C   0  0  0  0  0  0  0  0  0  0  0  0
   23.0776   81.0254   14.2747 O   0  0  0  0  0  0  0  0  0  0  0  0
   24.4597   76.7906   16.6936 H   0  0  0  0  0  0  0  0  0  0  0  0
   20.5128   78.1800    8.8983 Cl  0  0  0  0  0  0  0  0  0  0  0  0
   21.2564   78.3422   10.4949 C   0  0  0  0  0  0  0  0  0  0  0  0
   22.5725   78.7078   10.6263 C   0  0  0  0  0  0  0  0  0  0  0  0
   23.1361   78.8297   11.8802 C   0  0  0  0  0  0  0  0  0  0  0  0
   22.4166   78.5947   13.0235 C   0  0  0  0  0  0  0  0  0  0  0  0
   21.1058   78.2299   12.8924 C   0  0  0  0  0  0  0  0  0  0  0  0
   20.5162   78.1018   11.6278 C   0  0  0  0  0  0  0  0  0  0  0  0
   20.2654   81.2555   19.4024 C   0  0  0  0  0  0  0  0  0  0  0  0
   19.8937   82.3843   18.7041 C   0  0  0  0  0  0  0  0  0  0  0  0
   19.6994   83.6094   19.3093 C   0  0  0  0  0  0  0  0  0  0  0  0
   19.8938   83.6901   20.6945 C   0  0  0  0  0  0  0  0  0  0  0  0
   20.2666   82.5899   21.4354 C   0  0  0  0  0  0  0  0  0  0  0  0
   20.4424   81.3977   20.7616 C   0  0  0  0  0  0  0  0  0  0  0  0
   19.7121   84.8900   21.3443 O   0  0  0  0  0  0  0  0  0  0  0  0
   19.4384   85.7097   20.8201 H   0  0  0  0  0  0  0  0  0  0  0  0
   20.4441   82.7225   22.7802 O   0  0  0  0  0  0  0  0  0  0  0  0
   21.3088   81.9766   23.5865 C   0  0  0  0  0  0  0  0  0  0  0  0
   19.3241   84.7523   18.6150 O   0  0  0  0  0  0  0  0  0  0  0  0
   20.3026   85.3444   17.7853 C   0  0  0  0  0  0  0  0  0  0  0  0
 18 19  1  0  0  0
 19 20  2  0  0  0
 19 24  1  0  0  0
 20 21  1  0  0  0
 21 22  2  0  0  0
 22 23  1  0  0  0
 22  8  1  0  0  0
 23 24  2  0  0  0
  8  9  1  0  0  0
  8 15  1  0  0  0
  9 10  2  0  0  0
  9 11  1  0  0  0
 11 12  1  0  0  0
 12 13  2  0  0  0
 12 14  1  0  0  0
 14 15  1  0  0  0
 14  1  1  0  0  0
 15 16  2  0  0  0
  1  2  2  0  0  0
  1  5  1  0  0  0
  2  3  1  0  0  0
  3  4  1  0  0  0
  3 25  1  0  0  0
  4  5  1  0  0  0
 25 26  2  0  0  0
 25 30  1  0  0  0
 26 27  1  0  0  0
 27 28  2  0  0  0
 27 35  1  0  0  0
 28 29  1  0  0  0
 28 31  1  0  0  0
 29 30  2  0  0  0
 29 33  1  0  0  0
 33 34  1  0  0  0
 35 36  1  0  0  0
 11 17  1  0  0  0
  4  6  1  0  0  0
  5  7  1  0  0  0
 31 32  1  0  0  0
M  END
> <minimizedAffinity>
-9.75483

$$$$
2358


 34 37  0  0  0  0  0  0  0  0999 V2000
   21.6512   78.0236   14.8082 N   0  0  0  0  0  0  0  0  0  0  0  0
   20.8090   76.9194   15.1086 C   0  0  0  0  0  0  0  0  0  0  0  0
   20.3774   76.2176   14.1474 O   0  0  0  0  0  0  0  0  0  0  0  0
   20.4532   76.6003   16.4384 N   0  0  0  0  0  0  0  0  0  0  0  0
   20.9314   77.3800   17.5172 C   0  0  0  0  0  0  0  0  0  0  0  0
   20.7716   77.0073   18.7319 O   0  0  0  0  0  0  0  0  0  0  0  0
   21.6304   78.6455   17.2963 C   0  0  0  0  0  0  0  0  0  0  0  0
   22.1118   78.7839   15.9158 C   0  0  0  0  0  0  0  0  0  0  0  0
   23.0186   79.6479   15.6543 O   0  0  0  0  0  0  0  0  0  0  0  0
   19.8271   75.7777   16.6398 H   0  0  0  0  0  0  0  0  0  0  0  0
   23.2889   79.4599    9.2539 Cl  0  0  0  0  0  0  0  0  0  0  0  0
   22.7890   79.0396   10.8815 C   0  0  0  0  0  0  0  0  0  0  0  0
   21.4480   79.0230   11.2360 C   0  0  0  0  0  0  0  0  0  0  0  0
   21.0914   78.6928   12.5085 C   0  0  0  0  0  0  0  0  0  0  0  0
   22.0285   78.3668   13.4814 C   0  0  0  0  0  0  0  0  0  0  0  0
   23.3587   78.3846   13.1253 C   0  0  0  0  0  0  0  0  0  0  0  0
   23.7498   78.7198   11.8270 C   0  0  0  0  0  0  0  0  0  0  0  0
   20.7679   79.7916   17.7106 C   0  0  0  0  0  0  0  0  0  0  0  0
   19.6702   79.7631   18.4183 C   0  0  0  0  0  0  0  0  0  0  0  0
   19.1982   81.1631   18.5518 C   0  0  0  0  0  0  0  0  0  0  0  0
   19.8912   81.8675   17.4943 N   0  0  0  0  0  0  0  0  0  0  0  0
   21.0748   81.1345   17.3520 N   0  0  0  0  0  0  0  0  0  0  0  0
   19.3326   81.8745   16.6080 H   0  0  0  0  0  0  0  0  0  0  0  0
   21.9877   81.5532   17.0361 H   0  0  0  0  0  0  0  0  0  0  0  0
   19.5781   81.7213   19.8789 C   0  0  0  0  0  0  0  0  0  0  0  0
   18.7940   82.6363   20.5435 C   0  0  0  0  0  0  0  0  0  0  0  0
   19.1384   83.1616   21.7753 C   0  0  0  0  0  0  0  0  0  0  0  0
   20.3078   82.7709   22.3868 C   0  0  0  0  0  0  0  0  0  0  0  0
   21.1037   81.8579   21.7402 C   0  0  0  0  0  0  0  0  0  0  0  0
   20.7516   81.3410   20.5130 C   0  0  0  0  0  0  0  0  0  0  0  0
   18.3096   84.0779   22.3939 O   0  0  0  0  0  0  0  0  0  0  0  0
   17.4549   84.3767   21.9679 H   0  0  0  0  0  0  0  0  0  0  0  0
   20.6708   83.2826   23.6166 O   0  0  0  0  0  0  0  0  0  0  0  0
   20.7954   82.4173   24.7219 C   0  0  0  0  0  0  0  0  0  0  0  0
 11 12  1  0  0  0
 12 13  2  0  0  0
 12 17  1  0  0  0
 13 14  1  0  0  0
 14 15  2  0  0  0
 15 16  1  0  0  0
 15  1  1  0  0  0
 16 17  2  0  0  0
  1  2  1  0  0  0
  1  8  1  0  0  0
  2  3  2  0  0  0
  2  4  1  0  0  0
  4  5  1  0  0  0
  5  6  2  0  0  0
  5  7  1  0  0  0
  7  8  1  0  0  0
  7 18  1  0  0  0
  8  9  2  0  0  0
 18 19  2  0  0  0
 18 22  1  0  0  0
 19 20  1  0  0  0
 20 21  1  0  0  0
 20 25  1  0  0  0
 21 22  1  0  0  0
 25 26  2  0  0  0
 25 30  1  0  0  0
 26 27  1  0  0  0
 27 28  2  0  0  0
 27 31  1  0  0  0
 28 29  1  0  0  0
 28 33  1  0  0  0
 29 30  2  0  0  0
 33 34  1  0  0  0
  4 10  1  0  0  0
 21 23  1  0  0  0
 22 24  1  0  0  0
 31 32  1  0  0  0
M  END
> <minimizedAffinity>
-10.44369

$$$$
2359


 32 35  0  0  0  0  0  0  0  0999 V2000
   20.4933   79.9957   18.7883 N   0  0  0  0  0  0  0  0  0  0  0  0
   20.1289   78.6536   19.1485 C   0  0  0  0  0  0  0  0  0  0  0  0
   19.5606   78.3964   20.2542 O   0  0  0  0  0  0  0  0  0  0  0  0
   20.4354   77.6350   18.2084 N   0  0  0  0  0  0  0  0  0  0  0  0
   21.0832   77.9565   16.9569 C   0  0  0  0  0  0  0  0  0  0  0  0
   20.9206   77.1588   16.0248 O   0  0  0  0  0  0  0  0  0  0  0  0
   21.8728   79.1685   16.8556 C   0  0  0  0  0  0  0  0  0  0  0  0
   21.1266   80.2622   17.5470 C   0  0  0  0  0  0  0  0  0  0  0  0
   21.0190   81.4303   17.0945 O   0  0  0  0  0  0  0  0  0  0  0  0
   20.1805   76.6610   18.4492 H   0  0  0  0  0  0  0  0  0  0  0  0
   19.1398   84.3383   22.6966 Cl  0  0  0  0  0  0  0  0  0  0  0  0
   19.5733   83.0711   21.5864 C   0  0  0  0  0  0  0  0  0  0  0  0
   18.6775   82.7494   20.5762 C   0  0  0  0  0  0  0  0  0  0  0  0
   19.0004   81.7461   19.6820 C   0  0  0  0  0  0  0  0  0  0  0  0
   20.1846   81.0375   19.7417 C   0  0  0  0  0  0  0  0  0  0  0  0
   21.0631   81.3728   20.7537 C   0  0  0  0  0  0  0  0  0  0  0  0
   20.7742   82.3706   21.6667 C   0  0  0  0  0  0  0  0  0  0  0  0
   22.3590   79.5535   15.5503 C   0  0  0  0  0  0  0  0  0  0  0  0
   22.3538   78.8723   14.4276 C   0  0  0  0  0  0  0  0  0  0  0  0
   22.9554   79.6544   13.3196 C   0  0  0  0  0  0  0  0  0  0  0  0
   23.0647   80.9781   13.8878 N   0  0  0  0  0  0  0  0  0  0  0  0
   22.9737   80.8286   15.2698 N   0  0  0  0  0  0  0  0  0  0  0  0
   22.3657   81.6465   13.4978 H   0  0  0  0  0  0  0  0  0  0  0  0
   23.3129   81.5521   15.9379 H   0  0  0  0  0  0  0  0  0  0  0  0
   22.0893   79.7429   12.1382 C   0  0  0  0  0  0  0  0  0  0  0  0
   21.0571   78.8256   12.0140 C   0  0  0  0  0  0  0  0  0  0  0  0
   20.2266   78.8815   10.9196 C   0  0  0  0  0  0  0  0  0  0  0  0
   20.3904   79.8289    9.9361 C   0  0  0  0  0  0  0  0  0  0  0  0
   21.4097   80.7455   10.0440 C   0  0  0  0  0  0  0  0  0  0  0  0
   22.2507   80.6848   11.1556 C   0  0  0  0  0  0  0  0  0  0  0  0
   19.1791   77.9611   10.7829 O   0  0  0  0  0  0  0  0  0  0  0  0
   19.0451   77.2629   11.4932 H   0  0  0  0  0  0  0  0  0  0  0  0
 11 12  1  0  0  0
 12 13  2  0  0  0
 12 17  1  0  0  0
 13 14  1  0  0  0
 14 15  2  0  0  0
 15 16  1  0  0  0
 15  1  1  0  0  0
 16 17  2  0  0  0
  1  2  1  0  0  0
  1  8  1  0  0  0
  2  3  2  0  0  0
  2  4  1  0  0  0
  4  5  1  0  0  0
  5  6  2  0  0  0
  5  7  1  0  0  0
  7  8  1  0  0  0
  7 18  1  0  0  0
  8  9  2  0  0  0
 18 19  2  0  0  0
 18 22  1  0  0  0
 19 20  1  0  0  0
 20 21  1  0  0  0
 20 25  1  0  0  0
 21 22  1  0  0  0
 25 26  2  0  0  0
 25 30  1  0  0  0
 26 27  1  0  0  0
 27 28  2  0  0  0
 27 31  1  0  0  0
 28 29  1  0  0  0
 29 30  2  0  0  0
  4 10  1  0  0  0
 21 23  1  0  0  0
 22 24  1  0  0  0
 31 32  1  0  0  0
M  END
> <minimizedAffinity>
-11.30304

$$$$
2361


 30 33  0  0  0  0  0  0  0  0999 V2000
   22.8999   78.8499   14.0835 N   0  0  0  0  0  0  0  0  0  0  0  0
   23.3609   80.1188   14.5099 C   0  0  0  0  0  0  0  0  0  0  0  0
   23.2846   81.1104   13.7423 O   0  0  0  0  0  0  0  0  0  0  0  0
   23.9131   80.2492   15.8315 N   0  0  0  0  0  0  0  0  0  0  0  0
   24.0004   79.1292   16.7017 C   0  0  0  0  0  0  0  0  0  0  0  0
   24.7725   79.1746   17.6917 O   0  0  0  0  0  0  0  0  0  0  0  0
   23.1845   77.9355   16.4275 C   0  0  0  0  0  0  0  0  0  0  0  0
   23.0028   77.7549   14.9768 C   0  0  0  0  0  0  0  0  0  0  0  0
   22.9317   76.5735   14.4901 O   0  0  0  0  0  0  0  0  0  0  0  0
   24.2645   81.1644   16.1866 H   0  0  0  0  0  0  0  0  0  0  0  0
   20.6340   78.1206    8.5521 Cl  0  0  0  0  0  0  0  0  0  0  0  0
   21.2877   78.3314   10.1674 C   0  0  0  0  0  0  0  0  0  0  0  0
   20.4820   78.2406   11.2825 C   0  0  0  0  0  0  0  0  0  0  0  0
   21.0035   78.4095   12.5599 C   0  0  0  0  0  0  0  0  0  0  0  0
   22.3414   78.6726   12.7595 C   0  0  0  0  0  0  0  0  0  0  0  0
   23.1432   78.7619   11.6432 C   0  0  0  0  0  0  0  0  0  0  0  0
   22.6255   78.5938   10.3719 C   0  0  0  0  0  0  0  0  0  0  0  0
   21.8486   78.0331   17.1060 C   0  0  0  0  0  0  0  0  0  0  0  0
   20.7576   78.6090   16.6727 C   0  0  0  0  0  0  0  0  0  0  0  0
   19.6958   78.4545   17.6795 C   0  0  0  0  0  0  0  0  0  0  0  0
   20.1948   77.4334   18.5567 N   0  0  0  0  0  0  0  0  0  0  0  0
   21.5870   77.4701   18.3808 N   0  0  0  0  0  0  0  0  0  0  0  0
   19.8089   76.5083   18.3460 H   0  0  0  0  0  0  0  0  0  0  0  0
   22.2507   77.1229   19.1102 H   0  0  0  0  0  0  0  0  0  0  0  0
   19.5922   79.7470   18.4045 C   0  0  0  0  0  0  0  0  0  0  0  0
   18.9923   79.8018   19.6397 C   0  0  0  0  0  0  0  0  0  0  0  0
   18.8935   80.9834   20.3093 N   0  0  0  0  0  0  0  0  0  0  0  0
   19.3664   82.1370   19.8107 C   0  0  0  0  0  0  0  0  0  0  0  0
   19.9732   82.1181   18.5753 C   0  0  0  0  0  0  0  0  0  0  0  0
   20.0832   80.9095   17.8725 C   0  0  0  0  0  0  0  0  0  0  0  0
 11 12  1  0  0  0
 12 13  2  0  0  0
 12 17  1  0  0  0
 13 14  1  0  0  0
 14 15  2  0  0  0
 15 16  1  0  0  0
 15  1  1  0  0  0
 16 17  2  0  0  0
  1  2  1  0  0  0
  1  8  1  0  0  0
  2  3  2  0  0  0
  2  4  1  0  0  0
  4  5  1  0  0  0
  5  6  2  0  0  0
  5  7  1  0  0  0
  7  8  1  0  0  0
  7 18  1  0  0  0
  8  9  2  0  0  0
 18 19  2  0  0  0
 18 22  1  0  0  0
 19 20  1  0  0  0
 20 21  1  0  0  0
 20 25  1  0  0  0
 21 22  1  0  0  0
 25 26  2  0  0  0
 25 30  1  0  0  0
 26 27  1  0  0  0
 27 28  2  0  0  0
 28 29  1  0  0  0
 29 30  2  0  0  0
  4 10  1  0  0  0
 21 23  1  0  0  0
 22 24  1  0  0  0
M  END
> <minimizedAffinity>
-10.50282

$$$$
2363


 33 36  0  0  0  0  0  0  0  0999 V2000
   21.8829   79.2188   15.6242 N   0  0  0  0  0  0  0  0  0  0  0  0
   21.4164   78.0823   16.3351 C   0  0  0  0  0  0  0  0  0  0  0  0
   20.8957   78.3679   17.6637 C   0  0  0  0  0  0  0  0  0  0  0  0
   20.9407   79.6095   18.2223 C   0  0  0  0  0  0  0  0  0  0  0  0
   20.4381   79.8082   19.5221 C   0  0  0  0  0  0  0  0  0  0  0  0
   19.8930   78.7966   20.2717 C   0  0  0  0  0  0  0  0  0  0  0  0
   19.8549   77.5411   19.6875 C   0  0  0  0  0  0  0  0  0  0  0  0
   20.3382   77.3425   18.4349 C   0  0  0  0  0  0  0  0  0  0  0  0
   21.4663   80.7455   17.5171 N   0  0  0  0  0  0  0  0  0  0  0  0
   21.9317   80.4946   16.2062 C   0  0  0  0  0  0  0  0  0  0  0  0
   22.4149   81.4494   15.5150 O   0  0  0  0  0  0  0  0  0  0  0  0
   22.5916   77.2699   16.5136 O   0  0  0  0  0  0  0  0  0  0  0  0
   21.4872   81.6738   17.9751 H   0  0  0  0  0  0  0  0  0  0  0  0
   22.3293   76.3132   16.5457 H   0  0  0  0  0  0  0  0  0  0  0  0
   23.6404   78.6205    9.9102 Cl  0  0  0  0  0  0  0  0  0  0  0  0
   23.1152   78.7989   11.5887 C   0  0  0  0  0  0  0  0  0  0  0  0
   24.0148   78.5538   12.6013 C   0  0  0  0  0  0  0  0  0  0  0  0
   23.6077   78.6923   13.9247 C   0  0  0  0  0  0  0  0  0  0  0  0
   22.3273   79.0688   14.2321 C   0  0  0  0  0  0  0  0  0  0  0  0
   21.4495   79.3067   13.1972 C   0  0  0  0  0  0  0  0  0  0  0  0
   21.8209   79.1787   11.8705 C   0  0  0  0  0  0  0  0  0  0  0  0
   20.4886   77.2502   15.5269 C   0  0  0  0  0  0  0  0  0  0  0  0
   19.2753   77.2916   15.7397 O   0  0  0  0  0  0  0  0  0  0  0  0
   21.0412   76.4286   14.5267 N   0  0  0  0  0  0  0  0  0  0  0  0
   22.0809   76.3867   14.3370 H   0  0  0  0  0  0  0  0  0  0  0  0
   20.2210   75.5693   13.6720 C   0  0  0  0  0  0  0  0  0  0  0  0
   20.0601   74.2043   14.2222 C   0  0  0  0  0  0  0  0  0  0  0  0
   19.1341   73.3498   13.5864 N   0  0  0  0  0  0  0  0  0  0  0  0
   18.0587   73.9175   12.8832 C   0  0  0  0  0  0  0  0  0  0  0  0
   17.3732   72.8170   12.0684 C   0  0  0  0  0  0  0  0  0  0  0  0
   17.4246   71.5942   12.7614 O   0  0  0  0  0  0  0  0  0  0  0  0
   18.7172   71.0756   12.7761 C   0  0  0  0  0  0  0  0  0  0  0  0
   19.6851   72.2184   12.9206 C   0  0  0  0  0  0  0  0  0  0  0  0
 15 16  1  0  0  0
 16 17  2  0  0  0
 16 21  1  0  0  0
 17 18  1  0  0  0
 18 19  2  0  0  0
 19 20  1  0  0  0
 19  1  1  0  0  0
 20 21  2  0  0  0
  1  2  1  0  0  0
  1 10  1  0  0  0
  2  3  1  0  0  0
  2 12  1  0  0  0
  2 22  1  0  0  0
  3  4  1  0  0  0
  3  8  2  0  0  0
  4  5  2  0  0  0
  4  9  1  0  0  0
  5  6  1  0  0  0
  6  7  2  0  0  0
  7  8  1  0  0  0
  9 10  1  0  0  0
 10 11  2  0  0  0
 22 23  2  0  0  0
 22 24  1  0  0  0
 24 26  1  0  0  0
 26 27  1  0  0  0
 27 28  1  0  0  0
 28 29  1  0  0  0
 28 33  1  0  0  0
 29 30  1  0  0  0
 30 31  1  0  0  0
 31 32  1  0  0  0
 32 33  1  0  0  0
  9 13  1  0  0  0
 12 14  1  0  0  0
 24 25  1  0  0  0
M  END
> <minimizedAffinity>
-9.02954

$$$$
2364


 33 37  0  0  0  0  0  0  0  0999 V2000
   21.6068   77.4800   16.9228 N   0  0  0  0  0  0  0  0  0  0  0  0
   22.8321   77.6433   16.2195 C   0  0  0  0  0  0  0  0  0  0  0  0
   23.8898   77.9316   16.8664 O   0  0  0  0  0  0  0  0  0  0  0  0
   22.9533   77.4956   14.7655 C   0  0  0  0  0  0  0  0  0  0  0  0
   21.7156   77.4064   14.0641 N   0  0  0  0  0  0  0  0  0  0  0  0
   20.6390   76.7701   14.7510 C   0  0  0  0  0  0  0  0  0  0  0  0
   20.5508   75.2714   14.5968 C   0  0  0  0  0  0  0  0  0  0  0  0
   19.3580   75.4255   13.8283 N   0  0  0  0  0  0  0  0  0  0  0  0
   19.3842   76.8329   13.8963 C   0  0  0  0  0  0  0  0  0  0  0  0
   20.4396   77.2559   16.1411 C   0  0  0  0  0  0  0  0  0  0  0  0
   19.3060   77.4706   16.6406 O   0  0  0  0  0  0  0  0  0  0  0  0
   21.3217   78.7305   13.6775 C   0  0  0  0  0  0  0  0  0  0  0  0
   22.4043   79.6816   14.1038 C   0  0  0  0  0  0  0  0  0  0  0  0
   23.6017   78.7860   14.2444 C   0  0  0  0  0  0  0  0  0  0  0  0
   22.6108   80.7097   13.1941 O   0  0  0  0  0  0  0  0  0  0  0  0
   22.0126   81.4530   13.4502 H   0  0  0  0  0  0  0  0  0  0  0  0
   21.5327   77.5394   18.3719 C   0  0  0  0  0  0  0  0  0  0  0  0
   20.6150   82.6724   18.0292 Cl  0  0  0  0  0  0  0  0  0  0  0  0
   20.2426   81.0889   18.6739 C   0  0  0  0  0  0  0  0  0  0  0  0
   20.9809   79.9838   18.3026 C   0  0  0  0  0  0  0  0  0  0  0  0
   20.7108   78.7263   18.7931 C   0  0  0  0  0  0  0  0  0  0  0  0
   19.6672   78.5897   19.6815 C   0  0  0  0  0  0  0  0  0  0  0  0
   18.9481   79.6865   20.0390 C   0  0  0  0  0  0  0  0  0  0  0  0
   19.2013   80.9519   19.5606 C   0  0  0  0  0  0  0  0  0  0  0  0
   19.2397   74.7548   12.5851 C   0  0  0  0  0  0  0  0  0  0  0  0
   18.7958   73.3574   12.6439 C   0  0  0  0  0  0  0  0  0  0  0  0
   17.5015   73.0329   12.3199 C   0  0  0  0  0  0  0  0  0  0  0  0
   17.0523   71.7102   12.3671 C   0  0  0  0  0  0  0  0  0  0  0  0
   17.9286   70.7197   12.7469 C   0  0  0  0  0  0  0  0  0  0  0  0
   19.2295   71.0165   13.0757 C   0  0  0  0  0  0  0  0  0  0  0  0
   19.6447   72.3454   13.0178 C   0  0  0  0  0  0  0  0  0  0  0  0
   15.7514   71.3801   12.0424 O   0  0  0  0  0  0  0  0  0  0  0  0
   15.5312   70.3377   11.1105 C   0  0  0  0  0  0  0  0  0  0  0  0
 18 19  1  0  0  0
 19 20  2  0  0  0
 19 24  1  0  0  0
 20 21  1  0  0  0
 21 22  2  0  0  0
 21 17  1  0  0  0
 22 23  1  0  0  0
 23 24  2  0  0  0
 17  1  1  0  0  0
  1  2  1  0  0  0
  1 10  1  0  0  0
  2  3  2  0  0  0
  2  4  1  0  0  0
  4  5  1  0  0  0
  4 14  1  0  0  0
  5  6  1  0  0  0
  5 12  1  0  0  0
  6  7  1  0  0  0
  6  9  1  0  0  0
  6 10  1  0  0  0
  7  8  1  0  0  0
  8  9  1  0  0  0
  8 25  1  0  0  0
 25 26  1  0  0  0
 26 27  2  0  0  0
 26 31  1  0  0  0
 27 28  1  0  0  0
 28 29  2  0  0  0
 28 32  1  0  0  0
 29 30  1  0  0  0
 30 31  2  0  0  0
 32 33  1  0  0  0
 10 11  2  0  0  0
 12 13  1  0  0  0
 13 14  1  0  0  0
 13 15  1  0  0  0
 15 16  1  0  0  0
M  END
> <minimizedAffinity>
-10.14791

$$$$
2365


 32 36  0  0  0  0  0  0  0  0999 V2000
   20.1083   76.2374   14.7741 N   0  0  0  0  0  0  0  0  0  0  0  0
   20.8826   77.3499   14.4119 C   0  0  0  0  0  0  0  0  0  0  0  0
   21.0302   77.6030   13.1777 O   0  0  0  0  0  0  0  0  0  0  0  0
   19.9760   76.0156   15.7908 H   0  0  0  0  0  0  0  0  0  0  0  0
   21.5464   78.2568   15.3773 C   0  0  0  0  0  0  0  0  0  0  0  0
   20.5885   78.6564   16.4814 C   0  0  0  0  0  0  0  0  0  0  0  0
   21.2534   79.5863   17.4564 C   0  0  0  0  0  0  0  0  0  0  0  0
   22.4027   78.8105   18.1034 C   0  0  0  0  0  0  0  0  0  0  0  0
   23.3714   78.3791   17.0493 C   0  0  0  0  0  0  0  0  0  0  0  0
   22.6870   77.5028   16.0257 C   0  0  0  0  0  0  0  0  0  0  0  0
   23.9350   79.6032   16.3655 C   0  0  0  0  0  0  0  0  0  0  0  0
   22.7855   80.3493   15.7291 C   0  0  0  0  0  0  0  0  0  0  0  0
   21.8324   80.8034   16.8048 C   0  0  0  0  0  0  0  0  0  0  0  0
   22.1075   79.4867   14.6983 C   0  0  0  0  0  0  0  0  0  0  0  0
   20.2742   79.9154   18.4734 N   0  0  0  0  0  0  0  0  0  0  0  0
   19.1868   79.2650   18.8480 N   0  0  0  0  0  0  0  0  0  0  0  0
   18.5556   79.8802   19.8027 N   0  0  0  0  0  0  0  0  0  0  0  0
   19.2274   80.9812   20.0893 C   0  0  0  0  0  0  0  0  0  0  0  0
   20.3059   81.0056   19.2575 N   0  0  0  0  0  0  0  0  0  0  0  0
   19.7726   74.0512   13.6654 C   0  0  0  0  0  0  0  0  0  0  0  0
   20.5856   73.4503   14.4122 O   0  0  0  0  0  0  0  0  0  0  0  0
   19.5171   75.4340   13.8252 N   0  0  0  0  0  0  0  0  0  0  0  0
   18.8195   75.8682   13.1577 H   0  0  0  0  0  0  0  0  0  0  0  0
   19.0984   73.2336   12.6157 C   0  0  0  0  0  0  0  0  0  0  0  0
   18.4339   72.0220   13.1763 C   0  0  0  0  0  0  0  0  0  0  0  0
   18.1256   74.1065   11.8565 C   0  0  0  0  0  0  0  0  0  0  0  0
   20.4267   77.8994    8.6802 Br  0  0  0  0  0  0  0  0  0  0  0  0
   19.6843   76.2959    9.3944 C   0  0  0  0  0  0  0  0  0  0  0  0
   19.1524   76.0622   10.6467 C   0  0  0  0  0  0  0  0  0  0  0  0
   18.7382   74.7718   10.7309 N   0  0  0  0  0  0  0  0  0  0  0  0
   18.9972   74.2112    9.5812 N   0  0  0  0  0  0  0  0  0  0  0  0
   19.5702   75.0757    8.7241 C   0  0  0  0  0  0  0  0  0  0  0  0
 27 28  1  0  0  0
 28 29  2  0  0  0
 28 32  1  0  0  0
 29 30  1  0  0  0
 30 31  1  0  0  0
 30 26  1  0  0  0
 31 32  2  0  0  0
 26 24  1  0  0  0
 24 25  1  0  0  0
 24 20  1  0  0  0
 20 21  2  0  0  0
 20 22  1  0  0  0
 22  1  1  0  0  0
  1  2  1  0  0  0
  2  3  2  0  0  0
  2  5  1  0  0  0
  5  6  1  0  0  0
  5 10  1  0  0  0
  5 14  1  0  0  0
  6  7  1  0  0  0
  7  8  1  0  0  0
  7 13  1  0  0  0
  7 15  1  0  0  0
  8  9  1  0  0  0
  9 10  1  0  0  0
  9 11  1  0  0  0
 11 12  1  0  0  0
 12 13  1  0  0  0
 12 14  1  0  0  0
 15 16  1  0  0  0
 15 19  1  0  0  0
 16 17  2  0  0  0
 17 18  1  0  0  0
 18 19  2  0  0  0
 22 23  1  0  0  0
  1  4  1  0  0  0
M  END
> <minimizedAffinity>
-10.39247

$$$$
2373


 28 31  0  0  0  0  0  0  0  0999 V2000
   21.4767   78.0153   17.0315 N   0  0  0  0  0  0  0  0  0  0  0  0
   22.1622   78.6959   16.1296 C   0  0  0  0  0  0  0  0  0  0  0  0
   21.8651   78.2726   14.8716 N   0  0  0  0  0  0  0  0  0  0  0  0
   20.9811   77.3045   14.9732 C   0  0  0  0  0  0  0  0  0  0  0  0
   20.7332   77.1440   16.3528 C   0  0  0  0  0  0  0  0  0  0  0  0
   22.4166   78.8576   13.6821 C   0  0  0  0  0  0  0  0  0  0  0  0
   23.8685   78.4216   13.4983 C   0  0  0  0  0  0  0  0  0  0  0  0
   24.4358   78.3475   14.9198 C   0  0  0  0  0  0  0  0  0  0  0  0
   24.3352   79.7180   15.5304 C   0  0  0  0  0  0  0  0  0  0  0  0
   23.1419   79.7641   16.4979 C   0  0  0  0  0  0  0  0  0  0  0  0
   20.3066   76.5132   13.9400 C   0  0  0  0  0  0  0  0  0  0  0  0
   20.1009   76.8870   12.6513 C   0  0  0  0  0  0  0  0  0  0  0  0
   19.3886   76.1151   11.7342 C   0  0  0  0  0  0  0  0  0  0  0  0
   18.8548   74.9126   12.1082 C   0  0  0  0  0  0  0  0  0  0  0  0
   19.0474   74.5041   13.4057 C   0  0  0  0  0  0  0  0  0  0  0  0
   19.7525   75.2797   14.3001 C   0  0  0  0  0  0  0  0  0  0  0  0
   18.1324   74.1143   11.2046 O   0  0  0  0  0  0  0  0  0  0  0  0
   17.7881   72.7825   11.4775 C   0  0  0  0  0  0  0  0  0  0  0  0
   21.4544   78.0982   18.4953 C   0  0  0  0  0  0  0  0  0  0  0  0
   20.2264   78.8171   18.8972 C   0  0  0  0  0  0  0  0  0  0  0  0
   19.1916   78.1105   19.1380 O   0  0  0  0  0  0  0  0  0  0  0  0
   19.8263   84.7720   19.6117 Cl  0  0  0  0  0  0  0  0  0  0  0  0
   19.9410   83.0393   19.4420 C   0  0  0  0  0  0  0  0  0  0  0  0
   19.8948   82.1611   20.4958 C   0  0  0  0  0  0  0  0  0  0  0  0
   19.9893   80.8049   20.3075 C   0  0  0  0  0  0  0  0  0  0  0  0
   20.1379   80.2548   19.0288 C   0  0  0  0  0  0  0  0  0  0  0  0
   20.1833   81.1260   17.9808 C   0  0  0  0  0  0  0  0  0  0  0  0
   20.0882   82.4849   18.1803 C   0  0  0  0  0  0  0  0  0  0  0  0
 22 23  1  0  0  0
 23 24  2  0  0  0
 23 28  1  0  0  0
 24 25  1  0  0  0
 25 26  2  0  0  0
 26 27  1  0  0  0
 26 20  1  0  0  0
 27 28  2  0  0  0
 20 21  2  0  0  0
 20 19  1  0  0  0
 19  1  1  0  0  0
  1  2  2  0  0  0
  1  5  1  0  0  0
  2  3  1  0  0  0
  2 10  1  0  0  0
  3  4  1  0  0  0
  3  6  1  0  0  0
  4  5  2  0  0  0
  4 11  1  0  0  0
 11 12  2  0  0  0
 11 16  1  0  0  0
 12 13  1  0  0  0
 13 14  2  0  0  0
 14 15  1  0  0  0
 14 17  1  0  0  0
 15 16  2  0  0  0
 17 18  1  0  0  0
  6  7  1  0  0  0
  7  8  1  0  0  0
  8  9  1  0  0  0
  9 10  1  0  0  0
M  END
> <minimizedAffinity>
-10.58569

$$$$
2375


 37 40  0  0  0  0  0  0  0  0999 V2000
   18.8537   78.6073    8.7510 C   0  0  0  0  0  0  0  0  0  0  0  0
   18.4321   79.3730    9.8871 C   0  0  0  0  0  0  0  0  0  0  0  0
   22.3311   79.5742   11.9818 C   0  0  0  0  0  0  0  0  0  0  0  0
   23.2231   79.1273   10.9017 C   0  0  0  0  0  0  0  0  0  0  0  0
   22.6012   78.3726    9.7533 C   0  0  0  0  0  0  0  0  0  0  0  0
   21.1762   78.3112    9.7518 N   0  0  0  0  0  0  0  0  0  0  0  0
   20.5889   77.9603   11.0602 C   0  0  0  0  0  0  0  0  0  0  0  0
   21.0287   78.8279   12.1334 C   0  0  0  0  0  0  0  0  0  0  0  0
   20.3333   78.2751    8.6153 C   0  0  0  0  0  0  0  0  0  0  0  0
   20.7714   77.9735    7.5080 O   0  0  0  0  0  0  0  0  0  0  0  0
   22.0063   80.9385   11.7147 O   0  0  0  0  0  0  0  0  0  0  0  0
   22.2679   81.5171   12.4505 H   0  0  0  0  0  0  0  0  0  0  0  0
   25.2006   79.2630   17.3272 Cl  0  0  0  0  0  0  0  0  0  0  0  0
   24.3259   79.3601   15.7800 C   0  0  0  0  0  0  0  0  0  0  0  0
   24.7118   78.5869   14.7099 C   0  0  0  0  0  0  0  0  0  0  0  0
   24.0226   78.6852   13.4920 C   0  0  0  0  0  0  0  0  0  0  0  0
   22.9470   79.5455   13.3283 C   0  0  0  0  0  0  0  0  0  0  0  0
   22.5851   80.2944   14.4006 C   0  0  0  0  0  0  0  0  0  0  0  0
   23.2532   80.2194   15.6163 C   0  0  0  0  0  0  0  0  0  0  0  0
   18.0658   77.5267    8.2067 N   0  0  0  0  0  0  0  0  0  0  0  0
   17.3727   77.5686    6.9981 C   0  0  0  0  0  0  0  0  0  0  0  0
   17.5035   78.8248    6.4397 O   0  0  0  0  0  0  0  0  0  0  0  0
   18.0334   76.7022    8.8963 H   0  0  0  0  0  0  0  0  0  0  0  0
   16.6222   76.7396    6.1784 C   0  0  0  0  0  0  0  0  0  0  0  0
   15.4700   76.3820    5.6950 C   0  0  0  0  0  0  0  0  0  0  0  0
   15.4120   75.2801    4.7251 N   0  0  0  0  0  0  0  0  0  0  0  0
   14.2293   74.7698    4.2275 N   0  0  0  0  0  0  0  0  0  0  0  0
   12.9934   75.2660    4.6102 C   0  0  0  0  0  0  0  0  0  0  0  0
   11.8934   74.8370    4.1787 O   0  0  0  0  0  0  0  0  0  0  0  0
   12.9494   76.3805    5.5869 C   0  0  0  0  0  0  0  0  0  0  0  0
   14.1494   76.8564    6.0594 C   0  0  0  0  0  0  0  0  0  0  0  0
   14.0549   77.8373    7.0529 C   0  0  0  0  0  0  0  0  0  0  0  0
   12.8232   78.2902    7.5034 C   0  0  0  0  0  0  0  0  0  0  0  0
   11.6516   77.7929    6.9953 C   0  0  0  0  0  0  0  0  0  0  0  0
   11.7225   76.8190    6.0223 C   0  0  0  0  0  0  0  0  0  0  0  0
   16.3463   74.8893    4.4250 H   0  0  0  0  0  0  0  0  0  0  0  0
   14.2635   73.9752    3.5307 H   0  0  0  0  0  0  0  0  0  0  0  0
 13 14  1  0  0  0
 14 15  2  0  0  0
 14 19  1  0  0  0
 15 16  1  0  0  0
 16 17  2  0  0  0
 17 18  1  0  0  0
 17  3  1  0  0  0
 18 19  2  0  0  0
  3  4  1  0  0  0
  3  8  1  0  0  0
  3 11  1  0  0  0
  4  5  1  0  0  0
  5  6  1  0  0  0
  6  7  1  0  0  0
  6  9  1  0  0  0
  7  8  1  0  0  0
  9 10  2  0  0  0
  9  1  1  0  0  0
  1 20  1  0  0  0
  1  2  1  0  0  0
 20 21  1  0  0  0
 21 22  2  0  0  0
 21 24  1  0  0  0
 24 25  2  0  0  0
 25 26  1  0  0  0
 25 31  1  0  0  0
 26 27  1  0  0  0
 27 28  1  0  0  0
 28 29  2  0  0  0
 28 30  1  0  0  0
 30 31  2  0  0  0
 30 35  1  0  0  0
 31 32  1  0  0  0
 32 33  2  0  0  0
 33 34  1  0  0  0
 34 35  2  0  0  0
 20 23  1  0  0  0
 26 36  1  0  0  0
 27 37  1  0  0  0
 11 12  1  0  0  0
M  END
> <minimizedAffinity>
-11.64857

$$$$
2377


 33 36  0  0  0  0  0  0  0  0999 V2000
   21.6940   78.2449   16.5418 N   0  0  0  0  0  0  0  0  0  0  0  0
   20.7736   77.3479   15.8500 C   0  0  0  0  0  0  0  0  0  0  0  0
   21.0321   77.3077   14.3609 C   0  0  0  0  0  0  0  0  0  0  0  0
   22.3595   77.8226   14.1273 N   0  0  0  0  0  0  0  0  0  0  0  0
   23.3904   77.3448   15.0310 C   0  0  0  0  0  0  0  0  0  0  0  0
   23.1362   78.0120   16.3820 C   0  0  0  0  0  0  0  0  0  0  0  0
   22.6882   78.7321   13.1011 C   0  0  0  0  0  0  0  0  0  0  0  0
   23.8728   79.1158   12.9857 O   0  0  0  0  0  0  0  0  0  0  0  0
   20.5638   77.5742   19.2442 Cl  0  0  0  0  0  0  0  0  0  0  0  0
   20.6716   79.1811   18.5708 C   0  0  0  0  0  0  0  0  0  0  0  0
   21.1954   79.3186   17.3033 C   0  0  0  0  0  0  0  0  0  0  0  0
   21.2281   80.6397   16.8348 C   0  0  0  0  0  0  0  0  0  0  0  0
   20.7784   81.6633   17.5844 N   0  0  0  0  0  0  0  0  0  0  0  0
   20.2773   81.5396   18.7951 N   0  0  0  0  0  0  0  0  0  0  0  0
   20.2255   80.2955   19.2867 C   0  0  0  0  0  0  0  0  0  0  0  0
   19.7607   80.0911   20.4360 O   0  0  0  0  0  0  0  0  0  0  0  0
   19.8237   82.6794   19.5193 C   0  0  0  0  0  0  0  0  0  0  0  0
   19.1220   82.5649   20.7095 C   0  0  0  0  0  0  0  0  0  0  0  0
   18.6755   83.6582   21.4235 C   0  0  0  0  0  0  0  0  0  0  0  0
   18.9433   84.9158   20.9239 C   0  0  0  0  0  0  0  0  0  0  0  0
   19.6401   85.0663   19.7389 C   0  0  0  0  0  0  0  0  0  0  0  0
   20.0799   83.9375   19.0380 C   0  0  0  0  0  0  0  0  0  0  0  0
   21.6966   79.2675   12.1372 C   0  0  0  0  0  0  0  0  0  0  0  0
   21.7958   78.5502   10.8108 C   0  0  0  0  0  0  0  0  0  0  0  0
   20.5198   78.6168   10.0255 C   0  0  0  0  0  0  0  0  0  0  0  0
   19.9925   77.3232    9.6515 N   0  0  0  0  0  0  0  0  0  0  0  0
   19.9342   76.7919    8.3402 C   0  0  0  0  0  0  0  0  0  0  0  0
   20.3339   77.3642    7.2709 O   0  0  0  0  0  0  0  0  0  0  0  0
   19.3630   75.5020    8.3334 N   0  0  0  0  0  0  0  0  0  0  0  0
   19.0103   75.1558    9.6924 C   0  0  0  0  0  0  0  0  0  0  0  0
   19.4311   76.3193   10.5040 C   0  0  0  0  0  0  0  0  0  0  0  0
   19.3183   76.4221   11.7440 O   0  0  0  0  0  0  0  0  0  0  0  0
   19.1580   74.6570    7.1746 C   0  0  0  0  0  0  0  0  0  0  0  0
  9 10  1  0  0  0
 10 11  2  0  0  0
 10 15  1  0  0  0
 11 12  1  0  0  0
 11  1  1  0  0  0
 12 13  2  0  0  0
 13 14  1  0  0  0
 14 15  1  0  0  0
 14 17  1  0  0  0
 15 16  2  0  0  0
 17 18  2  0  0  0
 17 22  1  0  0  0
 18 19  1  0  0  0
 19 20  2  0  0  0
 20 21  1  0  0  0
 21 22  2  0  0  0
  1  2  1  0  0  0
  1  6  1  0  0  0
  2  3  1  0  0  0
  3  4  1  0  0  0
  4  5  1  0  0  0
  4  7  1  0  0  0
  5  6  1  0  0  0
  7  8  2  0  0  0
  7 23  1  0  0  0
 23 24  1  0  0  0
 24 25  1  0  0  0
 25 26  1  0  0  0
 26 27  1  0  0  0
 26 31  1  0  0  0
 27 28  2  0  0  0
 27 29  1  0  0  0
 29 30  1  0  0  0
 29 33  1  0  0  0
 30 31  1  0  0  0
 31 32  2  0  0  0
M  END
> <minimizedAffinity>
-11.03083

$$$$
2380


 27 30  0  0  0  0  0  0  0  0999 V2000
   20.2575   77.0972   18.7936 Cl  0  0  0  0  0  0  0  0  0  0  0  0
   20.4123   78.8186   18.4583 C   0  0  0  0  0  0  0  0  0  0  0  0
   20.8329   79.1902   17.2035 C   0  0  0  0  0  0  0  0  0  0  0  0
   20.9453   80.5519   16.9727 C   0  0  0  0  0  0  0  0  0  0  0  0
   20.6496   81.4283   17.9485 N   0  0  0  0  0  0  0  0  0  0  0  0
   20.2437   81.0841   19.1595 N   0  0  0  0  0  0  0  0  0  0  0  0
   20.1245   79.7698   19.4173 C   0  0  0  0  0  0  0  0  0  0  0  0
   19.7413   79.3660   20.5521 O   0  0  0  0  0  0  0  0  0  0  0  0
   21.1231   78.2028   16.2380 N   0  0  0  0  0  0  0  0  0  0  0  0
   22.4424   78.0934   15.6259 C   0  0  0  0  0  0  0  0  0  0  0  0
   22.2279   78.4872   14.1516 C   0  0  0  0  0  0  0  0  0  0  0  0
   21.1715   77.7130   13.5788 N   0  0  0  0  0  0  0  0  0  0  0  0
   20.5778   76.6571   14.4260 C   0  0  0  0  0  0  0  0  0  0  0  0
   20.1615   77.2215   15.7694 C   0  0  0  0  0  0  0  0  0  0  0  0
   20.6800   77.9059   12.2613 C   0  0  0  0  0  0  0  0  0  0  0  0
   19.7402   77.1940   11.7960 O   0  0  0  0  0  0  0  0  0  0  0  0
   21.2177   78.9321   11.3509 C   0  0  0  0  0  0  0  0  0  0  0  0
   22.1258   78.3976   10.4894 O   0  0  0  0  0  0  0  0  0  0  0  0
   22.0597   79.0999    9.2927 C   0  0  0  0  0  0  0  0  0  0  0  0
   20.5541   79.2423    9.1195 C   0  0  0  0  0  0  0  0  0  0  0  0
   20.1343   79.5957   10.5309 C   0  0  0  0  0  0  0  0  0  0  0  0
   19.9428   82.0688   20.1598 C   0  0  0  0  0  0  0  0  0  0  0  0
   18.8369   82.8824   20.0238 C   0  0  0  0  0  0  0  0  0  0  0  0
   18.5316   83.8452   20.9900 C   0  0  0  0  0  0  0  0  0  0  0  0
   19.3320   83.9963   22.0937 C   0  0  0  0  0  0  0  0  0  0  0  0
   20.4353   83.1951   22.2415 C   0  0  0  0  0  0  0  0  0  0  0  0
   20.7213   82.2531   21.2836 C   0  0  0  0  0  0  0  0  0  0  0  0
  1  2  1  0  0  0
  2  3  2  0  0  0
  2  7  1  0  0  0
  3  4  1  0  0  0
  3  9  1  0  0  0
  4  5  2  0  0  0
  5  6  1  0  0  0
  6  7  1  0  0  0
  6 22  1  0  0  0
  7  8  2  0  0  0
 22 23  2  0  0  0
 22 27  1  0  0  0
 23 24  1  0  0  0
 24 25  2  0  0  0
 25 26  1  0  0  0
 26 27  2  0  0  0
  9 10  1  0  0  0
  9 14  1  0  0  0
 10 11  1  0  0  0
 11 12  1  0  0  0
 12 13  1  0  0  0
 12 15  1  0  0  0
 13 14  1  0  0  0
 15 16  2  0  0  0
 15 17  1  0  0  0
 17 18  1  0  0  0
 17 21  1  0  0  0
 18 19  1  0  0  0
 19 20  1  0  0  0
 20 21  1  0  0  0
M  END
> <minimizedAffinity>
-9.84290

$$$$
2381


 30 33  0  0  0  0  0  0  0  0999 V2000
   20.3826   78.3586   16.9839 N   0  0  0  0  0  0  0  0  0  0  0  0
   21.5270   78.4631   16.1220 C   0  0  0  0  0  0  0  0  0  0  0  0
   21.2419   77.8937   14.7500 C   0  0  0  0  0  0  0  0  0  0  0  0
   20.3400   76.7706   14.8092 N   0  0  0  0  0  0  0  0  0  0  0  0
   20.0752   76.1612   16.0899 C   0  0  0  0  0  0  0  0  0  0  0  0
   19.4872   77.2190   16.9880 C   0  0  0  0  0  0  0  0  0  0  0  0
   19.7301   76.2820   13.6259 C   0  0  0  0  0  0  0  0  0  0  0  0
   19.9591   76.8158   12.4931 O   0  0  0  0  0  0  0  0  0  0  0  0
   21.6869   80.9967   16.3430 Cl  0  0  0  0  0  0  0  0  0  0  0  0
   20.6424   80.6955   17.7128 C   0  0  0  0  0  0  0  0  0  0  0  0
   20.1097   79.4336   17.8842 C   0  0  0  0  0  0  0  0  0  0  0  0
   19.2904   79.2635   18.9860 C   0  0  0  0  0  0  0  0  0  0  0  0
   19.0271   80.2693   19.8409 N   0  0  0  0  0  0  0  0  0  0  0  0
   19.5293   81.4846   19.6921 N   0  0  0  0  0  0  0  0  0  0  0  0
   20.3309   81.6863   18.6308 C   0  0  0  0  0  0  0  0  0  0  0  0
   20.8099   82.8302   18.4831 O   0  0  0  0  0  0  0  0  0  0  0  0
   19.2450   82.5472   20.6066 C   0  0  0  0  0  0  0  0  0  0  0  0
   19.8409   82.5882   21.8505 C   0  0  0  0  0  0  0  0  0  0  0  0
   19.5721   83.6095   22.7391 C   0  0  0  0  0  0  0  0  0  0  0  0
   18.6998   84.6327   22.4292 C   0  0  0  0  0  0  0  0  0  0  0  0
   18.1015   84.5978   21.1871 C   0  0  0  0  0  0  0  0  0  0  0  0
   18.3727   83.5766   20.3052 C   0  0  0  0  0  0  0  0  0  0  0  0
   18.7940   75.1272   13.6314 C   0  0  0  0  0  0  0  0  0  0  0  0
   19.4733   73.9020   13.6837 O   0  0  0  0  0  0  0  0  0  0  0  0
   18.9276   72.7708   13.1080 C   0  0  0  0  0  0  0  0  0  0  0  0
   19.5115   71.6179   12.7629 N   0  0  0  0  0  0  0  0  0  0  0  0
   18.6422   70.8100   12.2501 O   0  0  0  0  0  0  0  0  0  0  0  0
   17.4426   71.3525   12.2169 C   0  0  0  0  0  0  0  0  0  0  0  0
   17.5933   72.6117   12.7613 C   0  0  0  0  0  0  0  0  0  0  0  0
   16.2493   70.6683   11.6868 C   0  0  0  0  0  0  0  0  0  0  0  0
  9 10  1  0  0  0
 10 11  2  0  0  0
 10 15  1  0  0  0
 11 12  1  0  0  0
 11  1  1  0  0  0
 12 13  2  0  0  0
 13 14  1  0  0  0
 14 15  1  0  0  0
 14 17  1  0  0  0
 15 16  2  0  0  0
 17 18  2  0  0  0
 17 22  1  0  0  0
 18 19  1  0  0  0
 19 20  2  0  0  0
 20 21  1  0  0  0
 21 22  2  0  0  0
  1  2  1  0  0  0
  1  6  1  0  0  0
  2  3  1  0  0  0
  3  4  1  0  0  0
  4  5  1  0  0  0
  4  7  1  0  0  0
  5  6  1  0  0  0
  7  8  2  0  0  0
  7 23  1  0  0  0
 23 24  1  0  0  0
 24 25  1  0  0  0
 25 26  2  0  0  0
 25 29  1  0  0  0
 26 27  1  0  0  0
 27 28  1  0  0  0
 28 29  2  0  0  0
 28 30  1  0  0  0
M  END
> <minimizedAffinity>
-10.71353

$$$$
2386


 30 33  0  0  0  0  0  0  0  0999 V2000
   18.4089   73.9497   13.2544 Cl  0  0  0  0  0  0  0  0  0  0  0  0
   19.3380   75.4385   13.3954 C   0  0  0  0  0  0  0  0  0  0  0  0
   19.7041   76.0730   12.2104 C   0  0  0  0  0  0  0  0  0  0  0  0
   20.4313   77.2381   12.3038 C   0  0  0  0  0  0  0  0  0  0  0  0
   20.7791   77.7500   13.5468 C   0  0  0  0  0  0  0  0  0  0  0  0
   20.4101   77.1108   14.7241 C   0  0  0  0  0  0  0  0  0  0  0  0
   19.6802   75.9397   14.6293 C   0  0  0  0  0  0  0  0  0  0  0  0
   21.5078   78.9143   13.7229 O   0  0  0  0  0  0  0  0  0  0  0  0
   22.4610   79.5129   12.8893 C   0  0  0  0  0  0  0  0  0  0  0  0
   21.9901   79.9127   11.5385 C   0  0  0  0  0  0  0  0  0  0  0  0
   20.8481   79.2267   11.0269 N   0  0  0  0  0  0  0  0  0  0  0  0
   20.7240   77.7653   10.9441 C   0  0  0  0  0  0  0  0  0  0  0  0
   19.7454   79.9882   10.5513 C   0  0  0  0  0  0  0  0  0  0  0  0
   19.8521   81.2347   10.6068 O   0  0  0  0  0  0  0  0  0  0  0  0
   23.0052   80.7605   13.6106 C   0  0  0  0  0  0  0  0  0  0  0  0
   23.3967   80.3144   14.9934 C   0  0  0  0  0  0  0  0  0  0  0  0
   23.2948   78.9446   15.1605 O   0  0  0  0  0  0  0  0  0  0  0  0
   24.0451   78.2359   14.2390 C   0  0  0  0  0  0  0  0  0  0  0  0
   23.6876   78.5899   12.8119 C   0  0  0  0  0  0  0  0  0  0  0  0
   18.5416   79.3713   10.0162 C   0  0  0  0  0  0  0  0  0  0  0  0
   18.4350   79.1955    8.5567 C   0  0  0  0  0  0  0  0  0  0  0  0
   19.2903   78.2127    7.8720 C   0  0  0  0  0  0  0  0  0  0  0  0
   18.7482   76.9917    7.4048 N   0  0  0  0  0  0  0  0  0  0  0  0
   17.6186   76.8601    6.5608 C   0  0  0  0  0  0  0  0  0  0  0  0
   16.8946   77.7727    6.0630 O   0  0  0  0  0  0  0  0  0  0  0  0
   17.4168   75.4741    6.3475 N   0  0  0  0  0  0  0  0  0  0  0  0
   18.6271   74.7579    6.7442 C   0  0  0  0  0  0  0  0  0  0  0  0
   19.2350   75.6992    7.7083 C   0  0  0  0  0  0  0  0  0  0  0  0
   20.0533   75.3730    8.6418 O   0  0  0  0  0  0  0  0  0  0  0  0
   16.5682   75.0042    5.9749 H   0  0  0  0  0  0  0  0  0  0  0  0
  1  2  1  0  0  0
  2  3  2  0  0  0
  2  7  1  0  0  0
  3  4  1  0  0  0
  4  5  2  0  0  0
  4 12  1  0  0  0
  5  6  1  0  0  0
  5  8  1  0  0  0
  6  7  2  0  0  0
  8  9  1  0  0  0
  9 10  1  0  0  0
  9 15  1  0  0  0
  9 19  1  0  0  0
 10 11  1  0  0  0
 11 12  1  0  0  0
 11 13  1  0  0  0
 13 14  2  0  0  0
 13 20  1  0  0  0
 20 21  1  0  0  0
 21 22  1  0  0  0
 22 23  1  0  0  0
 23 24  1  0  0  0
 23 28  1  0  0  0
 24 25  2  0  0  0
 24 26  1  0  0  0
 26 27  1  0  0  0
 27 28  1  0  0  0
 28 29  2  0  0  0
 15 16  1  0  0  0
 16 17  1  0  0  0
 17 18  1  0  0  0
 18 19  1  0  0  0
 26 30  1  0  0  0
M  END
> <minimizedAffinity>
-8.75788

$$$$
2402


 33 36  0  0  0  0  0  0  0  0999 V2000
   21.3033   77.3675   15.1461 C   0  0  0  0  0  0  0  0  0  0  0  0
   20.2656   76.3838   15.2324 N   0  0  0  0  0  0  0  0  0  0  0  0
   19.1459   76.8978   15.9368 C   0  0  0  0  0  0  0  0  0  0  0  0
   17.9869   76.4373   16.0751 O   0  0  0  0  0  0  0  0  0  0  0  0
   19.5425   78.1817   16.5603 C   0  0  0  0  0  0  0  0  0  0  0  0
   18.8218   78.9329   17.2639 O   0  0  0  0  0  0  0  0  0  0  0  0
   20.9295   78.3720   16.1792 C   0  0  0  0  0  0  0  0  0  0  0  0
   21.6991   79.3376   16.6972 C   0  0  0  0  0  0  0  0  0  0  0  0
   22.9996   79.3789   16.1787 O   0  0  0  0  0  0  0  0  0  0  0  0
   21.2397   80.2716   17.7187 C   0  0  0  0  0  0  0  0  0  0  0  0
   20.7844   81.4728   17.6207 O   0  0  0  0  0  0  0  0  0  0  0  0
   20.4657   82.0268   18.7524 C   0  0  0  0  0  0  0  0  0  0  0  0
   20.7275   81.1083   19.7577 C   0  0  0  0  0  0  0  0  0  0  0  0
   21.2205   79.9968   19.0716 C   0  0  0  0  0  0  0  0  0  0  0  0
   20.4781   81.4413   21.0679 C   0  0  0  0  0  0  0  0  0  0  0  0
   19.9708   82.6770   21.3970 C   0  0  0  0  0  0  0  0  0  0  0  0
   19.7053   83.6033   20.3963 C   0  0  0  0  0  0  0  0  0  0  0  0
   19.9541   83.2633   19.1043 C   0  0  0  0  0  0  0  0  0  0  0  0
   19.7009   84.1600   18.0873 O   0  0  0  0  0  0  0  0  0  0  0  0
   20.4282   85.3617   17.8715 C   0  0  0  0  0  0  0  0  0  0  0  0
   22.6601   79.7074    9.6010 Br  0  0  0  0  0  0  0  0  0  0  0  0
   22.1590   78.9719   11.2933 C   0  0  0  0  0  0  0  0  0  0  0  0
   23.1153   78.8905   12.2638 C   0  0  0  0  0  0  0  0  0  0  0  0
   22.7947   78.3708   13.4829 C   0  0  0  0  0  0  0  0  0  0  0  0
   21.5363   77.9076   13.8172 C   0  0  0  0  0  0  0  0  0  0  0  0
   20.5897   78.0019   12.8197 C   0  0  0  0  0  0  0  0  0  0  0  0
   20.8865   78.5276   11.5634 C   0  0  0  0  0  0  0  0  0  0  0  0
   20.3148   75.0526   14.6925 C   0  0  0  0  0  0  0  0  0  0  0  0
   19.3773   74.8959   13.5091 C   0  0  0  0  0  0  0  0  0  0  0  0
   18.6392   73.6800   13.5234 N   0  0  0  0  0  0  0  0  0  0  0  0
   17.4311   73.6720   12.7563 C   0  0  0  0  0  0  0  0  0  0  0  0
   19.4858   72.5521   13.1585 C   0  0  0  0  0  0  0  0  0  0  0  0
   18.3488   73.5009   14.5309 H   0  0  0  0  0  0  0  0  0  0  0  0
 21 22  1  0  0  0
 22 23  2  0  0  0
 22 27  1  0  0  0
 23 24  1  0  0  0
 24 25  2  0  0  0
 25 26  1  0  0  0
 25  1  1  0  0  0
 26 27  2  0  0  0
  1  2  1  0  0  0
  1  7  1  0  0  0
  2  3  1  0  0  0
  2 28  1  0  0  0
  3  4  2  0  0  0
  3  5  1  0  0  0
  5  6  2  0  0  0
  5  7  1  0  0  0
  7  8  2  0  0  0
  8  9  1  0  0  0
  8 10  1  0  0  0
 10 11  1  0  0  0
 10 14  2  0  0  0
 11 12  1  0  0  0
 12 13  2  0  0  0
 12 18  1  0  0  0
 13 14  1  0  0  0
 13 15  1  0  0  0
 15 16  2  0  0  0
 16 17  1  0  0  0
 17 18  2  0  0  0
 18 19  1  0  0  0
 19 20  1  0  0  0
 28 29  1  0  0  0
 29 30  1  0  0  0
 30 31  1  0  0  0
 30 32  1  0  0  0
 30 33  1  0  0  0
M  CHG 1   9  -1
M  CHG 1  30   1
M  END
> <minimizedAffinity>
-8.18023

$$$$
2403


 26 29  0  0  0  0  0  0  0  0999 V2000
   22.0522   77.7588   16.5355 C   0  0  0  0  0  0  0  0  0  0  0  0
   21.8455   78.1452   15.1537 N   0  0  0  0  0  0  0  0  0  0  0  0
   21.0972   77.5775   14.1967 C   0  0  0  0  0  0  0  0  0  0  0  0
   21.2134   78.2735   12.9984 C   0  0  0  0  0  0  0  0  0  0  0  0
   22.0657   79.2915   13.2647 N   0  0  0  0  0  0  0  0  0  0  0  0
   22.4428   79.2189   14.5436 C   0  0  0  0  0  0  0  0  0  0  0  0
   20.5653   77.9248   11.8681 N   0  0  0  0  0  0  0  0  0  0  0  0
   19.7719   76.8401   11.9462 C   0  0  0  0  0  0  0  0  0  0  0  0
   19.1578   76.4987   10.8984 O   0  0  0  0  0  0  0  0  0  0  0  0
   19.6239   76.1341   13.0776 N   0  0  0  0  0  0  0  0  0  0  0  0
   20.2717   76.4803   14.2094 C   0  0  0  0  0  0  0  0  0  0  0  0
   20.1453   75.8386   15.2705 O   0  0  0  0  0  0  0  0  0  0  0  0
   18.7666   74.9644   13.1577 C   0  0  0  0  0  0  0  0  0  0  0  0
   20.7309   78.6930   10.6490 C   0  0  0  0  0  0  0  0  0  0  0  0
   18.4643   83.7076   20.9709 Br  0  0  0  0  0  0  0  0  0  0  0  0
   19.4016   82.5472   19.7852 C   0  0  0  0  0  0  0  0  0  0  0  0
   19.3205   81.1990   20.0042 C   0  0  0  0  0  0  0  0  0  0  0  0
   19.9765   80.3591   19.1764 N   0  0  0  0  0  0  0  0  0  0  0  0
   20.7003   80.8298   18.1498 C   0  0  0  0  0  0  0  0  0  0  0  0
   21.3636   79.9795   17.3125 N   0  0  0  0  0  0  0  0  0  0  0  0
   21.3110   78.6476   17.4921 C   0  0  0  0  0  0  0  0  0  0  0  0
   20.5647   78.1872   18.5483 C   0  0  0  0  0  0  0  0  0  0  0  0
   19.8838   79.0179   19.4110 C   0  0  0  0  0  0  0  0  0  0  0  0
   19.2037   78.6250   20.3711 O   0  0  0  0  0  0  0  0  0  0  0  0
   20.7877   82.1935   17.9201 C   0  0  0  0  0  0  0  0  0  0  0  0
   20.1324   83.0734   18.7449 C   0  0  0  0  0  0  0  0  0  0  0  0
 15 16  1  0  0  0
 16 17  2  0  0  0
 16 26  1  0  0  0
 17 18  1  0  0  0
 18 19  1  0  0  0
 18 23  1  0  0  0
 19 20  2  0  0  0
 19 25  1  0  0  0
 20 21  1  0  0  0
 21 22  2  0  0  0
 21  1  1  0  0  0
 22 23  1  0  0  0
 23 24  2  0  0  0
  1  2  1  0  0  0
  2  3  1  0  0  0
  2  6  1  0  0  0
  3  4  2  0  0  0
  3 11  1  0  0  0
  4  5  1  0  0  0
  4  7  1  0  0  0
  5  6  2  0  0  0
  7  8  1  0  0  0
  7 14  1  0  0  0
  8  9  2  0  0  0
  8 10  1  0  0  0
 10 11  1  0  0  0
 10 13  1  0  0  0
 11 12  2  0  0  0
 25 26  2  0  0  0
M  END
> <minimizedAffinity>
-9.51108

$$$$
2416


 34 37  0  0  0  0  0  0  0  0999 V2000
   20.7515   78.4257    9.6115 N   0  0  0  0  0  0  0  0  0  0  0  0
   22.1339   78.2913    9.5272 C   0  0  0  0  0  0  0  0  0  0  0  0
   22.7927   79.3397   10.4339 C   0  0  0  0  0  0  0  0  0  0  0  0
   22.0407   79.4439   11.6854 N   0  0  0  0  0  0  0  0  0  0  0  0
   20.6372   79.7849   11.5601 C   0  0  0  0  0  0  0  0  0  0  0  0
   20.2994   79.6743   10.0661 C   0  0  0  0  0  0  0  0  0  0  0  0
   22.6812   79.1974   12.9318 C   0  0  0  0  0  0  0  0  0  0  0  0
   23.8958   78.8898   12.9064 O   0  0  0  0  0  0  0  0  0  0  0  0
   19.7115   77.3295    8.9303 S   0  0  0  0  0  0  0  0  0  0  0  0
   18.4141   78.0357    8.5819 O   0  0  0  0  0  0  0  0  0  0  0  0
   20.2071   76.7308    7.6305 O   0  0  0  0  0  0  0  0  0  0  0  0
   19.2758   75.9929   10.0010 C   0  0  0  0  0  0  0  0  0  0  0  0
   18.8928   74.7680    9.5054 C   0  0  0  0  0  0  0  0  0  0  0  0
   18.5575   73.7577   10.3800 C   0  0  0  0  0  0  0  0  0  0  0  0
   18.5847   73.9050   11.7544 C   0  0  0  0  0  0  0  0  0  0  0  0
   18.9721   75.1430   12.2523 C   0  0  0  0  0  0  0  0  0  0  0  0
   19.3056   76.1492   11.3743 C   0  0  0  0  0  0  0  0  0  0  0  0
   18.1666   72.6392   12.8614 Cl  0  0  0  0  0  0  0  0  0  0  0  0
   21.9389   79.3003   14.1878 C   0  0  0  0  0  0  0  0  0  0  0  0
   22.5634   78.5330   15.3440 C   0  0  0  0  0  0  0  0  0  0  0  0
   21.7008   77.5218   15.8958 N   0  0  0  0  0  0  0  0  0  0  0  0
   21.0252   77.4147   17.1407 C   0  0  0  0  0  0  0  0  0  0  0  0
   20.6561   76.2872   17.5634 O   0  0  0  0  0  0  0  0  0  0  0  0
   20.6782   78.5172   18.0634 C   0  0  0  0  0  0  0  0  0  0  0  0
   21.3208   79.7557   18.1687 C   0  0  0  0  0  0  0  0  0  0  0  0
   20.8676   80.6740   19.0727 C   0  0  0  0  0  0  0  0  0  0  0  0
   19.7754   80.4327   19.9081 C   0  0  0  0  0  0  0  0  0  0  0  0
   19.1548   79.1898   19.7783 C   0  0  0  0  0  0  0  0  0  0  0  0
   19.6022   78.2539   18.8717 C   0  0  0  0  0  0  0  0  0  0  0  0
   22.4401   80.1803   17.4055 N   0  0  0  0  0  0  0  0  0  0  0  0
   23.0954   79.4917   16.3359 C   0  0  0  0  0  0  0  0  0  0  0  0
   24.3416   79.7818   16.2622 O   0  0  0  0  0  0  0  0  0  0  0  0
   21.5017   76.6671   15.2866 H   0  0  0  0  0  0  0  0  0  0  0  0
   22.8132   81.0943   17.6601 H   0  0  0  0  0  0  0  0  0  0  0  0
  9 10  2  0  0  0
  9 11  2  0  0  0
  9  1  1  0  0  0
  9 12  1  0  0  0
  1  2  1  0  0  0
  1  6  1  0  0  0
  2  3  1  0  0  0
  3  4  1  0  0  0
  4  5  1  0  0  0
  4  7  1  0  0  0
  5  6  1  0  0  0
  7  8  2  0  0  0
  7 19  1  0  0  0
 19 20  1  0  0  0
 20 21  1  0  0  0
 20 31  1  0  0  0
 21 22  1  0  0  0
 22 23  2  0  0  0
 22 24  1  0  0  0
 24 25  2  0  0  0
 24 29  1  0  0  0
 25 26  1  0  0  0
 25 30  1  0  0  0
 26 27  2  0  0  0
 27 28  1  0  0  0
 28 29  2  0  0  0
 30 31  1  0  0  0
 31 32  2  0  0  0
 12 13  2  0  0  0
 12 17  1  0  0  0
 13 14  1  0  0  0
 14 15  2  0  0  0
 15 16  1  0  0  0
 15 18  1  0  0  0
 16 17  2  0  0  0
 21 33  1  0  0  0
 30 34  1  0  0  0
M  END
> <minimizedAffinity>
-10.69366

$$$$
2417


 27 30  0  0  0  0  0  0  0  0999 V2000
   20.8089   77.3749   16.9249 N   0  0  0  0  0  0  0  0  0  0  0  0
   19.7092   78.3617   17.0297 C   0  0  0  0  0  0  0  0  0  0  0  0
   20.3514   79.4871   17.7020 C   0  0  0  0  0  0  0  0  0  0  0  0
   20.9785   78.7831   18.8948 C   0  0  0  0  0  0  0  0  0  0  0  0
   21.5984   77.5817   18.0625 C   0  0  0  0  0  0  0  0  0  0  0  0
   19.9389   78.1191   19.7509 C   0  0  0  0  0  0  0  0  0  0  0  0
   20.3965   76.8274   20.1218 O   0  0  0  0  0  0  0  0  0  0  0  0
   21.2487   76.9935   20.6820 H   0  0  0  0  0  0  0  0  0  0  0  0
   21.4112   77.5790   15.5987 C   0  0  0  0  0  0  0  0  0  0  0  0
   22.1222   79.5545   13.3889 Cl  0  0  0  0  0  0  0  0  0  0  0  0
   21.1816   78.3787   12.4769 C   0  0  0  0  0  0  0  0  0  0  0  0
   20.6046   77.3453   13.1755 C   0  0  0  0  0  0  0  0  0  0  0  0
   19.7894   76.4852   12.4768 C   0  0  0  0  0  0  0  0  0  0  0  0
   19.4279   75.5424   13.3745 N   0  0  0  0  0  0  0  0  0  0  0  0
   19.9914   75.7933   14.5261 N   0  0  0  0  0  0  0  0  0  0  0  0
   20.7647   76.9384   14.4813 C   0  0  0  0  0  0  0  0  0  0  0  0
   18.4477   74.4766   13.1024 C   0  0  0  0  0  0  0  0  0  0  0  0
   19.5511   76.6155   11.1426 C   0  0  0  0  0  0  0  0  0  0  0  0
   20.1509   77.6694   10.4468 C   0  0  0  0  0  0  0  0  0  0  0  0
   20.9768   78.5526   11.1346 C   0  0  0  0  0  0  0  0  0  0  0  0
   19.4315   80.5880   18.1683 C   0  0  0  0  0  0  0  0  0  0  0  0
   20.1881   81.5023   18.9647 N   0  0  0  0  0  0  0  0  0  0  0  0
   20.4421   82.7604   18.2948 C   0  0  0  0  0  0  0  0  0  0  0  0
   19.9114   83.9620   19.0419 C   0  0  0  0  0  0  0  0  0  0  0  0
   20.3352   84.0412   20.3486 O   0  0  0  0  0  0  0  0  0  0  0  0
   20.4498   82.7941   20.9561 C   0  0  0  0  0  0  0  0  0  0  0  0
   19.5781   81.8102   20.2375 C   0  0  0  0  0  0  0  0  0  0  0  0
 10 11  1  0  0  0
 11 12  2  0  0  0
 11 20  1  0  0  0
 12 13  1  0  0  0
 12 16  1  0  0  0
 13 14  1  0  0  0
 13 18  2  0  0  0
 14 15  1  0  0  0
 14 17  1  0  0  0
 15 16  2  0  0  0
 16  9  1  0  0  0
  9  1  1  0  0  0
  1  2  1  0  0  0
  1  5  1  0  0  0
  2  3  1  0  0  0
  3  4  1  0  0  0
  3 21  1  0  0  0
  4  5  1  0  0  0
  4  6  1  0  0  0
  6  7  1  0  0  0
 21 22  1  0  0  0
 22 23  1  0  0  0
 22 27  1  0  0  0
 23 24  1  0  0  0
 24 25  1  0  0  0
 25 26  1  0  0  0
 26 27  1  0  0  0
 18 19  1  0  0  0
 19 20  2  0  0  0
  7  8  1  0  0  0
M  END
> <minimizedAffinity>
-9.05359

$$$$
2419


 32 36  0  0  0  0  0  0  0  0999 V2000
   21.6571   79.2408   15.3193 C   0  0  0  0  0  0  0  0  0  0  0  0
   21.5117   80.5057   15.9126 C   0  0  0  0  0  0  0  0  0  0  0  0
   20.8494   80.3206   17.0475 N   0  0  0  0  0  0  0  0  0  0  0  0
   20.3630   81.0549   18.0945 C   0  0  0  0  0  0  0  0  0  0  0  0
   19.7579   80.1449   18.9242 C   0  0  0  0  0  0  0  0  0  0  0  0
   19.8966   78.9506   18.3692 N   0  0  0  0  0  0  0  0  0  0  0  0
   20.5794   79.0450   17.1923 C   0  0  0  0  0  0  0  0  0  0  0  0
   21.0740   78.3479   16.1268 N   0  0  0  0  0  0  0  0  0  0  0  0
   19.1401   80.5422   20.1136 C   0  0  0  0  0  0  0  0  0  0  0  0
   19.1361   81.8740   20.4681 C   0  0  0  0  0  0  0  0  0  0  0  0
   19.7502   82.7665   19.6190 C   0  0  0  0  0  0  0  0  0  0  0  0
   20.3656   82.3798   18.4342 C   0  0  0  0  0  0  0  0  0  0  0  0
   19.5146   78.0844   18.7939 H   0  0  0  0  0  0  0  0  0  0  0  0
   24.7353   78.3494   10.0376 Br  0  0  0  0  0  0  0  0  0  0  0  0
   23.7594   78.6314   11.6738 C   0  0  0  0  0  0  0  0  0  0  0  0
   24.3900   78.7011   12.8780 C   0  0  0  0  0  0  0  0  0  0  0  0
   23.6935   78.9015   14.0351 C   0  0  0  0  0  0  0  0  0  0  0  0
   22.3206   79.0426   14.0491 C   0  0  0  0  0  0  0  0  0  0  0  0
   21.6918   78.9734   12.8526 C   0  0  0  0  0  0  0  0  0  0  0  0
   22.3997   78.7662   11.6437 C   0  0  0  0  0  0  0  0  0  0  0  0
   20.9053   76.9308   16.0218 C   0  0  0  0  0  0  0  0  0  0  0  0
   19.6928   76.4395   15.3401 C   0  0  0  0  0  0  0  0  0  0  0  0
   19.8342   75.7593   14.0265 C   0  0  0  0  0  0  0  0  0  0  0  0
   20.1746   74.3614   14.1738 N   0  0  0  0  0  0  0  0  0  0  0  0
   21.0974   74.0823   13.8502 H   0  0  0  0  0  0  0  0  0  0  0  0
   20.2217   74.1957   15.2448 H   0  0  0  0  0  0  0  0  0  0  0  0
   19.1453   73.4764   13.7144 C   0  0  0  0  0  0  0  0  0  0  0  0
   18.1164   74.1074   12.8196 C   0  0  0  0  0  0  0  0  0  0  0  0
   16.8957   73.1757   12.8508 C   0  0  0  0  0  0  0  0  0  0  0  0
   17.2951   71.8530   12.2950 C   0  0  0  0  0  0  0  0  0  0  0  0
   18.5167   71.2574   12.9557 C   0  0  0  0  0  0  0  0  0  0  0  0
   19.6724   72.2645   12.9570 C   0  0  0  0  0  0  0  0  0  0  0  0
 14 15  1  0  0  0
 15 16  2  0  0  0
 15 20  1  0  0  0
 16 17  1  0  0  0
 17 18  2  0  0  0
 18 19  1  0  0  0
 18  1  1  0  0  0
 19 20  2  0  0  0
  1  2  2  0  0  0
  1  8  1  0  0  0
  2  3  1  0  0  0
  3  4  1  0  0  0
  3  7  1  0  0  0
  4  5  2  0  0  0
  4 12  1  0  0  0
  5  6  1  0  0  0
  5  9  1  0  0  0
  6  7  2  0  0  0
  7  8  1  0  0  0
  8 21  1  0  0  0
 21 22  1  0  0  0
 22 23  1  0  0  0
 23 24  1  0  0  0
 24 27  1  0  0  0
 27 28  1  0  0  0
 27 32  1  0  0  0
 28 29  1  0  0  0
 29 30  1  0  0  0
 30 31  1  0  0  0
 31 32  1  0  0  0
  9 10  2  0  0  0
 10 11  1  0  0  0
 11 12  2  0  0  0
  6 13  1  0  0  0
 24 25  1  0  0  0
 24 26  1  0  0  0
M  CHG 1  24   1
M  END
> <minimizedAffinity>
-10.18549

$$$$
2420


 29 32  0  0  0  0  0  0  0  0999 V2000
   23.0359   78.3516   14.3787 N   0  0  0  0  0  0  0  0  0  0  0  0
   23.4649   79.7481   14.4257 C   0  0  0  0  0  0  0  0  0  0  0  0
   23.9949   79.8927   15.8348 C   0  0  0  0  0  0  0  0  0  0  0  0
   24.7797   78.5989   16.0170 C   0  0  0  0  0  0  0  0  0  0  0  0
   24.0443   77.6486   15.1103 C   0  0  0  0  0  0  0  0  0  0  0  0
   24.2753   76.4074   15.0035 O   0  0  0  0  0  0  0  0  0  0  0  0
   19.7303   78.3446    8.1328 Br  0  0  0  0  0  0  0  0  0  0  0  0
   20.4772   78.2348    9.8799 C   0  0  0  0  0  0  0  0  0  0  0  0
   19.8564   77.5040   10.8681 C   0  0  0  0  0  0  0  0  0  0  0  0
   20.3774   77.4143   12.1246 C   0  0  0  0  0  0  0  0  0  0  0  0
   20.0112   76.7900   13.2798 N   0  0  0  0  0  0  0  0  0  0  0  0
   20.9058   77.0447   14.2224 N   0  0  0  0  0  0  0  0  0  0  0  0
   21.8797   77.8302   13.7440 C   0  0  0  0  0  0  0  0  0  0  0  0
   21.5497   78.0676   12.4151 C   0  0  0  0  0  0  0  0  0  0  0  0
   22.1970   78.8121   11.4367 C   0  0  0  0  0  0  0  0  0  0  0  0
   21.6696   78.9013   10.1682 C   0  0  0  0  0  0  0  0  0  0  0  0
   19.1320   76.2162   13.3102 H   0  0  0  0  0  0  0  0  0  0  0  0
   22.9005   79.9749   16.8314 C   0  0  0  0  0  0  0  0  0  0  0  0
   23.0090   79.3039   17.8877 O   0  0  0  0  0  0  0  0  0  0  0  0
   21.7507   80.7732   16.6358 N   0  0  0  0  0  0  0  0  0  0  0  0
   21.6940   81.3194   15.7386 H   0  0  0  0  0  0  0  0  0  0  0  0
   20.6842   80.8583   17.6000 C   0  0  0  0  0  0  0  0  0  0  0  0
   19.4911   80.0684   17.1052 C   0  0  0  0  0  0  0  0  0  0  0  0
   18.9992   79.1244   18.0784 N   0  0  0  0  0  0  0  0  0  0  0  0
   19.0774   77.7978   17.4770 C   0  0  0  0  0  0  0  0  0  0  0  0
   20.4792   77.2194   17.6503 C   0  0  0  0  0  0  0  0  0  0  0  0
   20.7769   76.9358   18.9625 O   0  0  0  0  0  0  0  0  0  0  0  0
   19.9760   77.6894   19.7885 C   0  0  0  0  0  0  0  0  0  0  0  0
   19.8010   79.1062   19.2808 C   0  0  0  0  0  0  0  0  0  0  0  0
  7  8  1  0  0  0
  8  9  2  0  0  0
  8 16  1  0  0  0
  9 10  1  0  0  0
 10 11  1  0  0  0
 10 14  2  0  0  0
 11 12  1  0  0  0
 12 13  2  0  0  0
 13 14  1  0  0  0
 13  1  1  0  0  0
 14 15  1  0  0  0
 15 16  2  0  0  0
  1  2  1  0  0  0
  1  5  1  0  0  0
  2  3  1  0  0  0
  3  4  1  0  0  0
  3 18  1  0  0  0
  4  5  1  0  0  0
  5  6  2  0  0  0
 18 19  2  0  0  0
 18 20  1  0  0  0
 20 22  1  0  0  0
 22 23  1  0  0  0
 23 24  1  0  0  0
 24 25  1  0  0  0
 24 29  1  0  0  0
 25 26  1  0  0  0
 26 27  1  0  0  0
 27 28  1  0  0  0
 28 29  1  0  0  0
 11 17  1  0  0  0
 20 21  1  0  0  0
M  END
> <minimizedAffinity>
-8.72245

$$$$
2432


 26 29  0  0  0  0  0  0  0  0999 V2000
   21.2746   78.1766   16.3997 C   0  0  0  0  0  0  0  0  0  0  0  0
   20.6405   78.2310   15.2430 O   0  0  0  0  0  0  0  0  0  0  0  0
   20.5082   78.3297   17.5441 N   0  0  0  0  0  0  0  0  0  0  0  0
   19.0571   78.5852   17.3753 C   0  0  0  0  0  0  0  0  0  0  0  0
   18.7971   79.9284   18.0031 C   0  0  0  0  0  0  0  0  0  0  0  0
   19.9156   80.4947   18.6881 N   0  0  0  0  0  0  0  0  0  0  0  0
   20.9356   79.7157   19.3745 C   0  0  0  0  0  0  0  0  0  0  0  0
   20.8964   78.2697   18.9042 C   0  0  0  0  0  0  0  0  0  0  0  0
   20.0816   81.9061   18.7237 C   0  0  0  0  0  0  0  0  0  0  0  0
   20.7387   82.5545   17.7438 N   0  0  0  0  0  0  0  0  0  0  0  0
   20.9082   83.8977   17.7627 C   0  0  0  0  0  0  0  0  0  0  0  0
   20.4162   84.6306   18.7763 N   0  0  0  0  0  0  0  0  0  0  0  0
   19.7486   84.0596   19.7917 C   0  0  0  0  0  0  0  0  0  0  0  0
   19.1685   84.5557   20.9002 N   0  0  0  0  0  0  0  0  0  0  0  0
   18.6501   83.5364   21.5555 N   0  0  0  0  0  0  0  0  0  0  0  0
   18.8794   82.3773   20.8951 C   0  0  0  0  0  0  0  0  0  0  0  0
   19.5826   82.6706   19.7565 C   0  0  0  0  0  0  0  0  0  0  0  0
   19.1053   85.9530   21.3299 C   0  0  0  0  0  0  0  0  0  0  0  0
   25.9886   76.1268   15.1254 Cl  0  0  0  0  0  0  0  0  0  0  0  0
   24.7101   77.1620   15.7234 C   0  0  0  0  0  0  0  0  0  0  0  0
   23.3647   76.9529   15.6838 N   0  0  0  0  0  0  0  0  0  0  0  0
   22.6889   77.9614   16.2365 C   0  0  0  0  0  0  0  0  0  0  0  0
   23.6898   78.8525   16.6450 C   0  0  0  0  0  0  0  0  0  0  0  0
   24.9372   78.3666   16.3318 C   0  0  0  0  0  0  0  0  0  0  0  0
   26.4935   79.1085   16.6348 Cl  0  0  0  0  0  0  0  0  0  0  0  0
   23.0122   76.0713   15.2606 H   0  0  0  0  0  0  0  0  0  0  0  0
 19 20  1  0  0  0
 20 21  1  0  0  0
 20 24  2  0  0  0
 21 22  1  0  0  0
 22 23  2  0  0  0
 22  1  1  0  0  0
 23 24  1  0  0  0
 24 25  1  0  0  0
  1  2  2  0  0  0
  1  3  1  0  0  0
  3  4  1  0  0  0
  3  8  1  0  0  0
  4  5  1  0  0  0
  5  6  1  0  0  0
  6  7  1  0  0  0
  6  9  1  0  0  0
  7  8  1  0  0  0
  9 10  2  0  0  0
  9 17  1  0  0  0
 10 11  1  0  0  0
 11 12  2  0  0  0
 12 13  1  0  0  0
 13 14  1  0  0  0
 13 17  2  0  0  0
 14 15  1  0  0  0
 14 18  1  0  0  0
 15 16  2  0  0  0
 16 17  1  0  0  0
 21 26  1  0  0  0
M  END
> <minimizedAffinity>
-8.73551

$$$$
2439


 30 34  0  0  0  0  0  0  0  0999 V2000
   21.0531   77.8813   12.7898 C   0  0  0  0  0  0  0  0  0  0  0  0
   22.2843   78.5260   13.0056 C   0  0  0  0  0  0  0  0  0  0  0  0
   22.7284   78.2166   14.2218 N   0  0  0  0  0  0  0  0  0  0  0  0
   23.7551   78.4383   15.0833 C   0  0  0  0  0  0  0  0  0  0  0  0
   23.4765   77.7399   16.2080 C   0  0  0  0  0  0  0  0  0  0  0  0
   22.3050   77.1186   16.0082 N   0  0  0  0  0  0  0  0  0  0  0  0
   21.8268   77.4043   14.7765 C   0  0  0  0  0  0  0  0  0  0  0  0
   20.7875   77.1871   13.9054 N   0  0  0  0  0  0  0  0  0  0  0  0
   24.3450   77.7632   17.2848 C   0  0  0  0  0  0  0  0  0  0  0  0
   25.5155   78.5027   17.2336 C   0  0  0  0  0  0  0  0  0  0  0  0
   25.8013   79.2191   16.0791 C   0  0  0  0  0  0  0  0  0  0  0  0
   24.9146   79.1721   15.0269 C   0  0  0  0  0  0  0  0  0  0  0  0
   21.8133   76.5027   16.7069 H   0  0  0  0  0  0  0  0  0  0  0  0
   17.8442   78.2126    7.4931 Br  0  0  0  0  0  0  0  0  0  0  0  0
   18.8287   78.1234    9.1118 C   0  0  0  0  0  0  0  0  0  0  0  0
   19.2134   76.9322    9.6544 C   0  0  0  0  0  0  0  0  0  0  0  0
   19.9297   76.9051   10.8350 C   0  0  0  0  0  0  0  0  0  0  0  0
   20.3035   78.0487   11.5397 C   0  0  0  0  0  0  0  0  0  0  0  0
   19.9150   79.2302   10.9887 C   0  0  0  0  0  0  0  0  0  0  0  0
   19.1795   79.2645    9.7792 C   0  0  0  0  0  0  0  0  0  0  0  0
   19.6516   76.3815   14.2095 C   0  0  0  0  0  0  0  0  0  0  0  0
   19.8113   74.9057   13.9487 C   0  0  0  0  0  0  0  0  0  0  0  0
   18.7180   74.2316   13.2475 C   0  0  0  0  0  0  0  0  0  0  0  0
   19.0142   73.3000   12.1991 N   0  0  0  0  0  0  0  0  0  0  0  0
   19.6485   72.0909   12.6930 C   0  0  0  0  0  0  0  0  0  0  0  0
   18.7484   71.0085   13.1146 C   0  0  0  0  0  0  0  0  0  0  0  0
   17.3174   71.1479   12.7498 C   0  0  0  0  0  0  0  0  0  0  0  0
   17.1589   71.8434   11.4443 C   0  0  0  0  0  0  0  0  0  0  0  0
   17.9630   73.0774   11.2712 C   0  0  0  0  0  0  0  0  0  0  0  0
   19.7921   73.7487   11.6652 H   0  0  0  0  0  0  0  0  0  0  0  0
 14 15  1  0  0  0
 15 16  2  0  0  0
 15 20  1  0  0  0
 16 17  1  0  0  0
 17 18  2  0  0  0
 18 19  1  0  0  0
 18  1  1  0  0  0
 19 20  2  0  0  0
  1  2  2  0  0  0
  1  8  1  0  0  0
  2  3  1  0  0  0
  3  4  1  0  0  0
  3  7  1  0  0  0
  4  5  2  0  0  0
  4 12  1  0  0  0
  5  6  1  0  0  0
  5  9  1  0  0  0
  6  7  2  0  0  0
  7  8  1  0  0  0
  8 21  1  0  0  0
 21 22  1  0  0  0
 22 23  1  0  0  0
 23 24  1  0  0  0
 24 25  1  0  0  0
 24 29  1  0  0  0
 25 26  1  0  0  0
 26 27  1  0  0  0
 27 28  1  0  0  0
 28 29  1  0  0  0
  9 10  2  0  0  0
 10 11  1  0  0  0
 11 12  2  0  0  0
  6 13  1  0  0  0
 24 30  1  0  0  0
M  CHG 1  24   1
M  END
> <minimizedAffinity>
-10.10244

$$$$
2440


 33 36  0  0  0  0  0  0  0  0999 V2000
   23.6562   80.8008    9.0547 Cl  0  0  0  0  0  0  0  0  0  0  0  0
   22.2054   80.3910    9.9646 C   0  0  0  0  0  0  0  0  0  0  0  0
   22.3706   79.6039   11.1139 C   0  0  0  0  0  0  0  0  0  0  0  0
   21.2409   79.2881   11.8179 C   0  0  0  0  0  0  0  0  0  0  0  0
   19.9676   79.7341   11.4051 C   0  0  0  0  0  0  0  0  0  0  0  0
   19.8185   80.5030   10.2789 C   0  0  0  0  0  0  0  0  0  0  0  0
   20.9596   80.8185    9.5740 C   0  0  0  0  0  0  0  0  0  0  0  0
   21.6436   78.4785   12.9760 C   0  0  0  0  0  0  0  0  0  0  0  0
   20.9430   77.2521   13.1133 N   0  0  0  0  0  0  0  0  0  0  0  0
   20.8535   76.8565   14.4497 C   0  0  0  0  0  0  0  0  0  0  0  0
   21.1524   78.1056   15.2497 C   0  0  0  0  0  0  0  0  0  0  0  0
   21.3550   79.2225   14.2784 C   0  0  0  0  0  0  0  0  0  0  0  0
   22.5231   80.0158   14.7429 C   0  0  0  0  0  0  0  0  0  0  0  0
   22.8994   81.0859   14.2102 O   0  0  0  0  0  0  0  0  0  0  0  0
   23.0960   79.3388   15.8623 N   0  0  0  0  0  0  0  0  0  0  0  0
   22.4626   78.0527   15.9347 C   0  0  0  0  0  0  0  0  0  0  0  0
   22.9554   77.0595   16.4924 O   0  0  0  0  0  0  0  0  0  0  0  0
   23.0961   78.3223   12.8556 C   0  0  0  0  0  0  0  0  0  0  0  0
   23.8941   77.6775   13.6049 O   0  0  0  0  0  0  0  0  0  0  0  0
   23.5287   79.0351   11.7128 N   0  0  0  0  0  0  0  0  0  0  0  0
   21.1525   76.5276   12.4069 H   0  0  0  0  0  0  0  0  0  0  0  0
   24.5005   79.1515   11.3403 H   0  0  0  0  0  0  0  0  0  0  0  0
   24.0997   79.8164   16.7631 C   0  0  0  0  0  0  0  0  0  0  0  0
   25.4997   79.7699   16.2655 C   0  0  0  0  0  0  0  0  0  0  0  0
   26.3555   78.6705   16.7867 C   0  0  0  0  0  0  0  0  0  0  0  0
   26.1360   77.3699   16.0220 C   0  0  0  0  0  0  0  0  0  0  0  0
   19.6459   76.1392   14.9138 C   0  0  0  0  0  0  0  0  0  0  0  0
   18.8984   75.3196   13.9398 C   0  0  0  0  0  0  0  0  0  0  0  0
   19.4090   73.9756   13.6506 C   0  0  0  0  0  0  0  0  0  0  0  0
   20.3721   73.5129   14.2898 O   0  0  0  0  0  0  0  0  0  0  0  0
   18.8478   73.1345   12.6461 N   0  0  0  0  0  0  0  0  0  0  0  0
   17.9027   72.7171   12.7123 H   0  0  0  0  0  0  0  0  0  0  0  0
   19.4103   72.9278   11.8035 H   0  0  0  0  0  0  0  0  0  0  0  0
  1  2  1  0  0  0
  2  3  2  0  0  0
  2  7  1  0  0  0
  3  4  1  0  0  0
  3 20  1  0  0  0
  4  5  2  0  0  0
  4  8  1  0  0  0
  5  6  1  0  0  0
  6  7  2  0  0  0
  8  9  1  0  0  0
  8 12  1  0  0  0
  8 18  1  0  0  0
  9 10  1  0  0  0
 10 11  1  0  0  0
 10 27  1  0  0  0
 11 12  1  0  0  0
 11 16  1  0  0  0
 12 13  1  0  0  0
 13 14  2  0  0  0
 13 15  1  0  0  0
 15 16  1  0  0  0
 15 23  1  0  0  0
 16 17  2  0  0  0
 23 24  1  0  0  0
 24 25  1  0  0  0
 25 26  1  0  0  0
 27 28  1  0  0  0
 28 29  1  0  0  0
 29 30  2  0  0  0
 29 31  1  0  0  0
 18 19  2  0  0  0
 18 20  1  0  0  0
  9 21  1  0  0  0
 31 32  1  0  0  0
 31 33  1  0  0  0
 20 22  1  0  0  0
M  END
> <minimizedAffinity>
-8.12629

$$$$
2447


 33 36  0  0  0  0  0  0  0  0999 V2000
   22.7480   79.4403   13.7816 C   0  0  0  0  0  0  0  0  0  0  0  0
   23.7878   78.3793   13.6473 C   0  0  0  0  0  0  0  0  0  0  0  0
   24.5760   78.3250   12.6734 O   0  0  0  0  0  0  0  0  0  0  0  0
   23.7965   77.4653   14.6977 O   0  0  0  0  0  0  0  0  0  0  0  0
   23.3953   77.7468   15.9869 C   0  0  0  0  0  0  0  0  0  0  0  0
   22.9631   78.9988   16.2531 C   0  0  0  0  0  0  0  0  0  0  0  0
   22.9478   79.9681   15.1789 C   0  0  0  0  0  0  0  0  0  0  0  0
   23.0937   81.1862   15.3757 O   0  0  0  0  0  0  0  0  0  0  0  0
   22.8738   80.5187   12.7646 C   0  0  0  0  0  0  0  0  0  0  0  0
   21.1180   78.9944    9.3574 N   0  0  0  0  0  0  0  0  0  0  0  0
   21.7251   78.3458   10.4707 C   0  0  0  0  0  0  0  0  0  0  0  0
   21.2650   79.0313   11.7423 C   0  0  0  0  0  0  0  0  0  0  0  0
   21.8762   80.3371   11.7696 N   0  0  0  0  0  0  0  0  0  0  0  0
   22.0922   80.9326   10.5036 C   0  0  0  0  0  0  0  0  0  0  0  0
   21.0232   80.4060    9.5449 C   0  0  0  0  0  0  0  0  0  0  0  0
   19.7037   78.2478    8.7834 S   0  0  0  0  0  0  0  0  0  0  0  0
   18.4396   78.9931    9.1546 O   0  0  0  0  0  0  0  0  0  0  0  0
   19.7552   78.2504    7.2613 O   0  0  0  0  0  0  0  0  0  0  0  0
   19.5254   76.5794    9.2922 C   0  0  0  0  0  0  0  0  0  0  0  0
   22.5353   79.3814   17.6056 C   0  0  0  0  0  0  0  0  0  0  0  0
   21.1488   79.5185   17.7849 N   0  0  0  0  0  0  0  0  0  0  0  0
   20.4159   80.4688   17.0637 C   0  0  0  0  0  0  0  0  0  0  0  0
   19.0913   80.7931   17.7912 C   0  0  0  0  0  0  0  0  0  0  0  0
   19.4702   81.0307   19.1605 N   0  0  0  0  0  0  0  0  0  0  0  0
   19.9087   79.8412   19.8764 C   0  0  0  0  0  0  0  0  0  0  0  0
   20.5413   78.8697   18.8893 C   0  0  0  0  0  0  0  0  0  0  0  0
   19.4315   82.3085   19.7520 C   0  0  0  0  0  0  0  0  0  0  0  0
   19.1427   82.5298   21.0794 C   0  0  0  0  0  0  0  0  0  0  0  0
   19.1222   83.8002   21.6059 C   0  0  0  0  0  0  0  0  0  0  0  0
   19.3864   84.9146   20.8447 C   0  0  0  0  0  0  0  0  0  0  0  0
   19.6774   84.7265   19.5183 C   0  0  0  0  0  0  0  0  0  0  0  0
   19.6986   83.4466   18.9837 C   0  0  0  0  0  0  0  0  0  0  0  0
   18.7484   84.0160   23.2946 Cl  0  0  0  0  0  0  0  0  0  0  0  0
 16 17  2  0  0  0
 16 18  2  0  0  0
 16 10  1  0  0  0
 16 19  1  0  0  0
 10 11  1  0  0  0
 10 15  1  0  0  0
 11 12  1  0  0  0
 12 13  1  0  0  0
 13 14  1  0  0  0
 13  9  1  0  0  0
 14 15  1  0  0  0
  9  1  1  0  0  0
  1  2  1  0  0  0
  1  7  1  0  0  0
  2  3  2  0  0  0
  2  4  1  0  0  0
  4  5  1  0  0  0
  5  6  2  0  0  0
  6  7  1  0  0  0
  6 20  1  0  0  0
  7  8  2  0  0  0
 20 21  1  0  0  0
 21 22  1  0  0  0
 21 26  1  0  0  0
 22 23  1  0  0  0
 23 24  1  0  0  0
 24 25  1  0  0  0
 24 27  1  0  0  0
 25 26  1  0  0  0
 27 28  2  0  0  0
 27 32  1  0  0  0
 28 29  1  0  0  0
 29 30  2  0  0  0
 29 33  1  0  0  0
 30 31  1  0  0  0
 31 32  2  0  0  0
M  END
> <minimizedAffinity>
-10.08511

$$$$
