MODEL 1
REMARK VINA RESULT:    -8.846      0.000      0.000
REMARK INTER + INTRA:         -13.903
REMARK INTER:                 -12.724
REMARK INTRA:                  -1.179
REMARK UNBOUND:                -1.179
REMARK  9 active torsions:
REMARK  status: ('A' for Active; 'I' for Inactive)
REMARK    1  A    between atoms: C_3  and  O_33 
REMARK    2  A    between atoms: C_6  and  C_9 
REMARK    3  A    between atoms: C_7  and  O_8 
REMARK    4  A    between atoms: N_10  and  N_11 
REMARK       I    between atoms: N_11  and  C_12 
REMARK    5  A    between atoms: C_12  and  C_14 
REMARK    6  A    between atoms: N_17  and  C_26 
REMARK    7  A    between atoms: C_18  and  C_19 
REMARK    8  A    between atoms: C_19  and  N_20 
REMARK    9  A    between atoms: C_30  and  N_31 
ROOT
ATOM      1  C   UNK d   1      25.003  13.388  28.277  0.00  0.00     0.176 A 
ATOM      2  N   UNK d   1      25.787  14.195  27.493  0.00  0.00    -0.124 NA
ATOM      3  N   UNK d   1      25.252  15.382  27.422  0.00  0.00    -0.058 NA
ATOM      4  N   UNK d   1      24.131  15.449  28.118  0.00  0.00    -0.191 N 
ATOM      5  C   UNK d   1      23.952  14.231  28.655  0.00  0.00     0.104 A 
ENDROOT
BRANCH   1   6
ATOM      6  C   UNK d   1      25.276  11.996  28.581  0.00  0.00     0.294 C 
ATOM      7  N   UNK d   1      25.544  11.406  29.809  0.00  0.00    -0.242 N 
ATOM      8  H   UNK d   1      25.600  11.878  30.742  0.00  0.00     0.192 HD
ATOM      9  O   UNK d   1      25.263  11.214  27.557  0.00  0.00    -0.264 OA
BRANCH   7  10
ATOM     10  N   UNK d   1      25.779   9.989  29.817  0.00  0.00    -0.183 NA
ATOM     11  C   UNK d   1      24.778   9.188  29.906  0.00  0.00     0.153 C 
BRANCH  11  12
ATOM     12  C   UNK d   1      24.904   7.739  29.922  0.00  0.00     0.019 A 
ATOM     13  C   UNK d   1      24.084   6.964  30.698  0.00  0.00     0.038 A 
ATOM     14  C   UNK d   1      24.189   5.577  30.727  0.00  0.00     0.046 A 
ATOM     15  C   UNK d   1      25.153   4.944  29.947  0.00  0.00     0.103 A 
ATOM     16 Br   UNK d   1      23.033   4.543  31.816  0.00  0.00    -0.048 Br
ATOM     17  C   UNK d   1      25.975   5.709  29.172  0.00  0.00     0.079 A 
ATOM     18 Br   UNK d   1      27.299   4.886  28.095  0.00  0.00    -0.045 Br
ATOM     19  C   UNK d   1      25.853   7.099  29.157  0.00  0.00     0.097 A 
BRANCH  15  20
ATOM     20  O   UNK d   1      25.242   3.560  29.990  0.00  0.00    -0.358 OA
ATOM     21  H   UNK d   1      24.420   2.990  30.103  0.00  0.00     0.217 HD
ENDBRANCH  15  20
BRANCH  19  22
ATOM     22  O   UNK d   1      26.678   7.894  28.376  0.00  0.00    -0.358 OA
ATOM     23  H   UNK d   1      27.359   8.503  28.811  0.00  0.00     0.217 HD
ENDBRANCH  19  22
ENDBRANCH  11  12
ENDBRANCH   7  10
ENDBRANCH   1   6
BRANCH   5  24
ATOM     24  C   UNK d   1      22.863  13.811  29.542  0.00  0.00     0.334 C 
BRANCH  24  25
ATOM     25  N   UNK d   1      23.097  14.091  30.961  0.00  0.00     0.098 N 
ATOM     26  C   UNK d   1      23.288  12.808  31.666  0.00  0.00     0.299 C 
ATOM     27  C   UNK d   1      22.226  11.847  31.260  0.00  0.00     0.198 C 
ATOM     28  O   UNK d   1      20.990  12.414  31.456  0.00  0.00    -0.388 OA
ATOM     29  C   UNK d   1      21.013  13.598  32.145  0.00  0.00     0.198 C 
ATOM     30  C   UNK d   1      21.858  14.679  31.522  0.00  0.00     0.299 C 
ENDBRANCH  24  25
ENDBRANCH   5  24
BRANCH   4  31
ATOM     31  C   UNK d   1      23.349  16.623  28.251  0.00  0.00     0.229 A 
ATOM     32  N   UNK d   1      22.774  17.150  29.353  0.00  0.00    -0.081 NA
ATOM     33  O   UNK d   1      22.146  18.253  29.040  0.00  0.00    -0.103 OA
ATOM     34  N   UNK d   1      22.270  18.501  27.761  0.00  0.00    -0.083 NA
ATOM     35  C   UNK d   1      23.011  17.509  27.239  0.00  0.00     0.201 A 
BRANCH  35  36
ATOM     36  N   UNK d   1      23.368  17.417  25.877  0.00  0.00    -0.379 N 
ATOM     37  H   UNK d   1      22.621  17.289  25.171  0.00  0.00     0.158 HD
ATOM     38  H   UNK d   1      24.350  17.472  25.552  0.00  0.00     0.158 HD
ENDBRANCH  35  36
ENDBRANCH   4  31
TORSDOF 9
ENDMDL
