MODEL 1
REMARK VINA RESULT:    -9.188      0.000      0.000
REMARK INTER + INTRA:         -13.447
REMARK INTER:                 -12.411
REMARK INTRA:                  -1.035
REMARK UNBOUND:                -1.035
REMARK  7 active torsions:
REMARK  status: ('A' for Active; 'I' for Inactive)
REMARK    1  A    between atoms: C_3  and  O_31 
REMARK    2  A    between atoms: C_6  and  C_9 
REMARK    3  A    between atoms: C_7  and  O_8 
REMARK    4  A    between atoms: N_10  and  N_11 
REMARK    5  A    between atoms: N_11  and  C_12 
REMARK    6  A    between atoms: C_14  and  N_24 
REMARK    7  A    between atoms: C_16  and  N_18 
ROOT
ATOM      1  C   UNK d   1      22.704  10.462  30.500  0.00  0.00     0.774 A 
ATOM      2  N   UNK d   1      22.556  11.769  30.701  0.00  0.00     0.133 NA
ATOM      3  C   UNK d   1      21.701  12.278  31.634  0.00  0.00     0.756 A 
ATOM      4  N   UNK d   1      21.011  11.389  32.344  0.00  0.00     0.131 NA
ATOM      5  C   UNK d   1      21.100  10.046  32.205  0.00  0.00     0.756 A 
ATOM      6  N   UNK d   1      21.979   9.622  31.248  0.00  0.00     0.133 NA
ENDROOT
BRANCH   1   7
ATOM      7  N   UNK d   1      23.606   9.971  29.517  0.00  0.00    -0.105 N 
ATOM      8  H   UNK d   1      24.116  10.563  28.853  0.00  0.00     0.208 HD
BRANCH   7   9
ATOM      9  N   UNK d   1      23.835   8.584  29.428  0.00  0.00    -0.171 NA
ATOM     10  C   UNK d   1      24.701   7.974  30.135  0.00  0.00     0.153 C 
BRANCH  10  11
ATOM     11  C   UNK d   1      24.956   6.544  30.062  0.00  0.00     0.019 A 
ATOM     12  C   UNK d   1      24.515   5.717  31.068  0.00  0.00     0.038 A 
ATOM     13  C   UNK d   1      24.744   4.354  31.022  0.00  0.00     0.046 A 
ATOM     14  C   UNK d   1      25.421   3.773  29.972  0.00  0.00     0.103 A 
ATOM     15 Br   UNK d   1      24.119   3.223  32.436  0.00  0.00    -0.048 Br
ATOM     16  C   UNK d   1      25.867   4.596  28.957  0.00  0.00     0.079 A 
ATOM     17 Br   UNK d   1      26.805   3.784  27.504  0.00  0.00    -0.045 Br
ATOM     18  C   UNK d   1      25.633   5.961  29.012  0.00  0.00     0.097 A 
BRANCH  14  19
ATOM     19  O   UNK d   1      25.660   2.402  29.910  0.00  0.00    -0.358 OA
ATOM     20  H   UNK d   1      26.031   2.002  29.064  0.00  0.00     0.217 HD
ENDBRANCH  14  19
BRANCH  18  21
ATOM     21  O   UNK d   1      26.084   6.770  27.995  0.00  0.00    -0.358 OA
ATOM     22  H   UNK d   1      25.513   6.927  27.159  0.00  0.00     0.217 HD
ENDBRANCH  18  21
ENDBRANCH  10  11
ENDBRANCH   7   9
ENDBRANCH   1   7
BRANCH   3  23
ATOM     23  N   UNK d   1      21.559  13.668  31.832  0.00  0.00    -0.209 N 
ATOM     24  C   UNK d   1      20.284  14.224  32.192  0.00  0.00     0.167 C 
ATOM     25  C   UNK d   1      20.047  15.428  31.294  0.00  0.00     0.188 C 
ATOM     26  O   UNK d   1      21.161  16.254  31.226  0.00  0.00    -0.388 OA
ATOM     27  C   UNK d   1      22.271  15.636  30.695  0.00  0.00     0.188 C 
ATOM     28  C   UNK d   1      22.694  14.532  31.672  0.00  0.00     0.167 C 
ENDBRANCH   3  23
BRANCH   5  29
ATOM     29  N   UNK d   1      20.350   9.143  32.979  0.00  0.00    -0.209 N 
ATOM     30  C   UNK d   1      20.615   7.739  32.929  0.00  0.00     0.167 C 
ATOM     31  C   UNK d   1      19.281   7.036  32.665  0.00  0.00     0.188 C 
ATOM     32  O   UNK d   1      18.252   7.934  32.477  0.00  0.00    -0.388 OA
ATOM     33  C   UNK d   1      18.057   8.802  33.522  0.00  0.00     0.188 C 
ATOM     34  C   UNK d   1      19.305   9.621  33.831  0.00  0.00     0.167 C 
ENDBRANCH   5  29
TORSDOF 7
ENDMDL
