/Users/jonathanwahrer/Desktop/Msc/3_Semester/Drug_Design_Praktikum/waehrer_HTS_screening/HTS_experiment/out/docking_results/vina_output/3elj/0004_docked.pdbqt
 OpenBabel03192217133D

 34 37  0  0  0  0  0  0  0  0999 V2000
   22.7040   10.4620   30.5000 C   0  0  0  0  0  0  0  0  0  0  0  0
   22.5560   11.7690   30.7010 N   0  0  0  0  0  4  0  0  0  0  0  0
   21.7010   12.2780   31.6340 C   0  0  0  0  0  0  0  0  0  0  0  0
   21.0110   11.3890   32.3440 N   0  0  0  0  0  0  0  0  0  0  0  0
   21.1000   10.0460   32.2050 C   0  0  0  0  0  0  0  0  0  0  0  0
   21.9790    9.6220   31.2480 N   0  0  0  0  0  2  0  0  0  0  0  0
   23.6060    9.9710   29.5170 N   0  0  0  0  0  0  0  0  0  0  0  0
   24.1160   10.5630   28.8530 H   0  0  0  0  0  0  0  0  0  0  0  0
   23.8350    8.5840   29.4280 N   0  0  0  0  0  0  0  0  0  0  0  0
   24.7010    7.9740   30.1350 C   0  0  0  0  0  3  0  0  0  0  0  0
   24.9560    6.5440   30.0620 C   0  0  0  0  0  0  0  0  0  0  0  0
   24.5150    5.7170   31.0680 C   0  0  0  0  0  3  0  0  0  0  0  0
   24.7440    4.3540   31.0220 C   0  0  0  0  0  0  0  0  0  0  0  0
   25.4210    3.7730   29.9720 C   0  0  0  0  0  0  0  0  0  0  0  0
   24.1190    3.2230   32.4360 Br  0  0  0  0  0  0  0  0  0  0  0  0
   25.8670    4.5960   28.9570 C   0  0  0  0  0  0  0  0  0  0  0  0
   26.8050    3.7840   27.5040 Br  0  0  0  0  0  0  0  0  0  0  0  0
   25.6330    5.9610   29.0120 C   0  0  0  0  0  0  0  0  0  0  0  0
   25.6600    2.4020   29.9100 O   0  0  0  0  0  0  0  0  0  0  0  0
   26.0310    2.0020   29.0640 H   0  0  0  0  0  0  0  0  0  0  0  0
   26.0840    6.7700   27.9950 O   0  0  0  0  0  0  0  0  0  0  0  0
   25.5130    6.9270   27.1590 H   0  0  0  0  0  0  0  0  0  0  0  0
   21.5590   13.6680   31.8320 N   0  0  0  0  0  0  0  0  0  0  0  0
   20.2840   14.2240   32.1920 C   0  0  0  0  0  2  0  0  0  0  0  0
   20.0470   15.4280   31.2940 C   0  0  0  0  0  2  0  0  0  0  0  0
   21.1610   16.2540   31.2260 O   0  0  0  0  0  0  0  0  0  0  0  0
   22.2710   15.6360   30.6950 C   0  0  0  0  0  2  0  0  0  0  0  0
   22.6940   14.5320   31.6720 C   0  0  0  0  0  2  0  0  0  0  0  0
   20.3500    9.1430   32.9790 N   0  0  0  0  0  0  0  0  0  0  0  0
   20.6150    7.7390   32.9290 C   0  0  0  0  0  2  0  0  0  0  0  0
   19.2810    7.0360   32.6650 C   0  0  0  0  0  2  0  0  0  0  0  0
   18.2520    7.9340   32.4770 O   0  0  0  0  0  0  0  0  0  0  0  0
   18.0570    8.8020   33.5220 C   0  0  0  0  0  2  0  0  0  0  0  0
   19.3050    9.6210   33.8310 C   0  0  0  0  0  2  0  0  0  0  0  0
  1  2  2  0  0  0  0
  1  6  1  0  0  0  0
  2  3  2  0  0  0  0
  3 23  1  0  0  0  0
  3  4  1  0  0  0  0
  5  4  2  0  0  0  0
  5 29  1  0  0  0  0
  6  5  1  0  0  0  0
  7  1  1  0  0  0  0
  8  7  1  0  0  0  0
  9  7  1  0  0  0  0
  9 10  2  0  0  0  0
 11 10  1  0  0  0  0
 11 12  1  0  0  0  0
 13 12  2  0  0  0  0
 13 15  1  0  0  0  0
 14 13  1  0  0  0  0
 16 18  1  0  0  0  0
 16 14  2  0  0  0  0
 17 16  1  0  0  0  0
 18 11  2  0  0  0  0
 19 14  1  0  0  0  0
 20 19  1  0  0  0  0
 21 18  1  0  0  0  0
 22 21  1  0  0  0  0
 23 24  1  0  0  0  0
 25 24  1  0  0  0  0
 26 25  1  0  0  0  0
 27 26  1  0  0  0  0
 27 28  1  0  0  0  0
 28 23  1  0  0  0  0
 29 34  1  0  0  0  0
 30 29  1  0  0  0  0
 31 30  1  0  0  0  0
 32 31  1  0  0  0  0
 32 33  1  0  0  0  0
 33 34  1  0  0  0  0
M  END
>  <Pose>
1

>  <Score>
-9.188

$$$$
