MODEL 1
REMARK VINA RESULT:    -9.815      0.000      0.000
REMARK INTER + INTRA:         -12.953
REMARK INTER:                 -12.971
REMARK INTRA:                   0.019
REMARK UNBOUND:                 0.019
REMARK  6 active torsions:
REMARK  status: ('A' for Active; 'I' for Inactive)
REMARK    1  A    between atoms: C_4  and  C_9 
REMARK    2  A    between atoms: N_10  and  N_11 
REMARK       I    between atoms: N_11  and  C_12 
REMARK    3  A    between atoms: C_12  and  C_14 
REMARK    4  A    between atoms: C_14  and  N_15 
REMARK    5  A    between atoms: C_19  and  C_20 
REMARK    6  A    between atoms: C_24  and  N_25 
ROOT
ATOM      1  N   UNK d   1      22.179  12.992  31.620  0.00  0.00    -0.319 N 
ATOM      2  C   UNK d   1      21.540  11.888  32.089  0.00  0.00     0.065 A 
ATOM      3  C   UNK d   1      20.474  12.256  32.862  0.00  0.00     0.086 A 
ATOM      4  N   UNK d   1      20.477  13.598  32.853  0.00  0.00    -0.226 NA
ATOM      5  C   UNK d   1      21.522  14.053  32.092  0.00  0.00     0.167 A 
ATOM      6  C   UNK d   1      19.695  11.270  33.431  0.00  0.00     0.034 A 
ATOM      7  C   UNK d   1      19.963   9.924  33.243  0.00  0.00     0.002 A 
ATOM      8  C   UNK d   1      21.049   9.582  32.456  0.00  0.00     0.002 A 
ATOM      9  C   UNK d   1      21.829  10.567  31.885  0.00  0.00     0.032 A 
ENDROOT
BRANCH   1  10
ATOM     10  C   UNK d   1      23.334  13.039  30.778  0.00  0.00     0.235 C 
BRANCH  10  11
ATOM     11  C   UNK d   1      24.122  11.833  30.706  0.00  0.00     0.256 C 
ATOM     12  N   UNK d   1      23.965  10.860  29.688  0.00  0.00    -0.246 N 
ATOM     13  H   UNK d   1      23.238  11.039  28.962  0.00  0.00     0.192 HD
ATOM     14  O   UNK d   1      24.998  11.606  31.572  0.00  0.00    -0.270 OA
BRANCH  12  15
ATOM     15  N   UNK d   1      24.706   9.694  29.593  0.00  0.00    -0.184 NA
ATOM     16  C   UNK d   1      24.290   8.551  29.984  0.00  0.00     0.153 C 
BRANCH  16  17
ATOM     17  C   UNK d   1      25.153   7.396  29.835  0.00  0.00     0.022 A 
ATOM     18  C   UNK d   1      24.874   6.246  30.508  0.00  0.00     0.136 A 
ATOM     19  C   UNK d   1      25.702   5.153  30.359  0.00  0.00     0.049 A 
ATOM     20  O   UNK d   1      23.770   6.163  31.338  0.00  0.00    -0.190 OA
ATOM     21 Br   UNK d   1      25.294   3.560  31.307  0.00  0.00    -0.048 Br
ATOM     22  C   UNK d   1      26.809   5.224  29.532  0.00  0.00     0.041 A 
ATOM     23  C   UNK d   1      27.073   6.393  28.862  0.00  0.00     0.013 A 
ATOM     24  C   UNK d   1      26.265   7.497  28.991  0.00  0.00     0.035 A 
ATOM     25 Br   UNK d   1      28.607   6.476  27.722  0.00  0.00    -0.051 Br
ENDBRANCH  16  17
ENDBRANCH  12  15
ENDBRANCH  10  11
ENDBRANCH   1  10
BRANCH   5  26
ATOM     26  C   UNK d   1      21.811  15.465  31.873  0.00  0.00     0.187 A 
ATOM     27  N   UNK d   1      21.317  16.216  30.881  0.00  0.00    -0.097 NA
ATOM     28  O   UNK d   1      21.795  17.443  30.997  0.00  0.00    -0.104 OA
ATOM     29  N   UNK d   1      22.581  17.522  32.024  0.00  0.00    -0.077 NA
ATOM     30  C   UNK d   1      22.622  16.303  32.605  0.00  0.00     0.285 A 
BRANCH  30  31
ATOM     31  N   UNK d   1      23.361  15.946  33.758  0.00  0.00    -0.028 N 
ATOM     32  H   UNK d   1      24.266  16.432  33.818  0.00  0.00     0.283 HD
ATOM     33  H   UNK d   1      23.581  14.917  33.656  0.00  0.00     0.283 HD
ATOM     34  H   UNK d   1      22.806  16.051  34.647  0.00  0.00     0.283 HD
ENDBRANCH  30  31
ENDBRANCH   5  26
TORSDOF 6
ENDMDL
