/Users/jonathanwahrer/Desktop/Msc/3_Semester/Drug_Design_Praktikum/waehrer_HTS_screening/HTS_experiment/out/docking_results/vina_output/3elj/0006_docked.pdbqt
 OpenBabel03192217143D

 34 37  0  0  0  0  0  0  0  0999 V2000
   22.1790   12.9920   31.6200 N   0  0  0  0  0  0  0  0  0  0  0  0
   21.5400   11.8880   32.0890 C   0  0  0  0  0  0  0  0  0  0  0  0
   20.4740   12.2560   32.8620 C   0  0  0  0  0  0  0  0  0  0  0  0
   20.4770   13.5980   32.8530 N   0  0  0  0  0  0  0  0  0  0  0  0
   21.5220   14.0530   32.0920 C   0  0  0  0  0  0  0  0  0  0  0  0
   19.6950   11.2700   33.4310 C   0  0  0  0  0  3  0  0  0  0  0  0
   19.9630    9.9240   33.2430 C   0  0  0  0  0  3  0  0  0  0  0  0
   21.0490    9.5820   32.4560 C   0  0  0  0  0  3  0  0  0  0  0  0
   21.8290   10.5670   31.8850 C   0  0  0  0  0  3  0  0  0  0  0  0
   23.3340   13.0390   30.7780 C   0  0  0  0  0  2  0  0  0  0  0  0
   24.1220   11.8330   30.7060 C   0  0  0  0  0  0  0  0  0  0  0  0
   23.9650   10.8600   29.6880 N   0  0  0  0  0  0  0  0  0  0  0  0
   23.2380   11.0390   28.9620 H   0  0  0  0  0  0  0  0  0  0  0  0
   24.9980   11.6060   31.5720 O   0  0  0  0  0  0  0  0  0  0  0  0
   24.7060    9.6940   29.5930 N   0  0  0  0  0  0  0  0  0  0  0  0
   24.2900    8.5510   29.9840 C   0  0  0  0  0  3  0  0  0  0  0  0
   25.1530    7.3960   29.8350 C   0  0  0  0  0  0  0  0  0  0  0  0
   24.8740    6.2460   30.5080 C   0  0  0  0  0  0  0  0  0  0  0  0
   25.7020    5.1530   30.3590 C   0  0  0  0  0  0  0  0  0  0  0  0
   23.7700    6.1630   31.3380 O   0  0  0  0  0  1  0  0  0  0  0  0
   25.2940    3.5600   31.3070 Br  0  0  0  0  0  0  0  0  0  0  0  0
   26.8090    5.2240   29.5320 C   0  0  0  0  0  3  0  0  0  0  0  0
   27.0730    6.3930   28.8620 C   0  0  0  0  0  0  0  0  0  0  0  0
   26.2650    7.4970   28.9910 C   0  0  0  0  0  3  0  0  0  0  0  0
   28.6070    6.4760   27.7220 Br  0  0  0  0  0  0  0  0  0  0  0  0
   21.8110   15.4650   31.8730 C   0  0  0  0  0  0  0  0  0  0  0  0
   21.3170   16.2160   30.8810 N   0  0  0  0  0  0  0  0  0  0  0  0
   21.7950   17.4430   30.9970 O   0  0  0  0  0  0  0  0  0  0  0  0
   22.5810   17.5220   32.0240 N   0  0  0  0  0  0  0  0  0  0  0  0
   22.6220   16.3030   32.6050 C   0  0  0  0  0  0  0  0  0  0  0  0
   23.3610   15.9460   33.7580 N   0  0  0  0  0  4  0  0  0  0  0  0
   24.2660   16.4320   33.8180 H   0  0  0  0  0  0  0  0  0  0  0  0
   23.5810   14.9170   33.6560 H   0  0  0  0  0  0  0  0  0  0  0  0
   22.8060   16.0510   34.6470 H   0  0  0  0  0  0  0  0  0  0  0  0
  1  2  1  0  0  0  0
  1  5  1  0  0  0  0
  2  3  1  0  0  0  0
  3  6  2  0  0  0  0
  4  3  1  0  0  0  0
  5  4  2  0  0  0  0
  7  6  1  0  0  0  0
  8  7  2  0  0  0  0
  9  2  2  0  0  0  0
  9  8  1  0  0  0  0
 10  1  1  0  0  0  0
 11 10  1  0  0  0  0
 11 14  2  0  0  0  0
 12 11  1  0  0  0  0
 13 12  1  0  0  0  0
 15 12  1  0  0  0  0
 15 16  2  0  0  0  0
 17 16  1  0  0  0  0
 17 18  1  0  0  0  0
 18 20  1  0  0  0  0
 19 18  2  0  0  0  0
 19 21  1  0  0  0  0
 22 19  1  0  0  0  0
 23 24  1  0  0  0  0
 23 22  2  0  0  0  0
 24 17  2  0  0  0  0
 25 23  1  0  0  0  0
 26  5  1  0  0  0  0
 26 30  1  0  0  0  0
 27 28  1  0  0  0  0
 27 26  2  0  0  0  0
 28 29  1  0  0  0  0
 29 30  2  0  0  0  0
 30 31  1  0  0  0  0
 31 32  1  0  0  0  0
 31 34  1  0  0  0  0
 33 31  1  0  0  0  0
M  END
>  <Pose>
1

>  <Score>
-9.815

$$$$
