MODEL 1
REMARK VINA RESULT:    -9.713      0.000      0.000
REMARK INTER + INTRA:         -16.110
REMARK INTER:                 -14.540
REMARK INTRA:                  -1.570
REMARK UNBOUND:                -1.570
REMARK  9 active torsions:
REMARK  status: ('A' for Active; 'I' for Inactive)
REMARK    1  A    between atoms: C_4  and  O_29 
REMARK    2  A    between atoms: C_6  and  C_8 
REMARK    3  A    between atoms: C_8  and  N_9 
REMARK    4  A    between atoms: N_9  and  N_10 
REMARK       I    between atoms: N_10  and  C_11 
REMARK    5  A    between atoms: C_11  and  C_13 
REMARK    6  A    between atoms: C_13  and  N_14 
REMARK    7  A    between atoms: C_18  and  C_19 
REMARK    8  A    between atoms: C_23  and  N_24 
REMARK    9  A    between atoms: O_29  and  C_30 
ROOT
ATOM      1  N   UNK d   1      22.952  14.964  30.403  0.00  0.00    -0.319 N 
ATOM      2  C   UNK d   1      23.545  13.716  30.512  0.00  0.00     0.065 A 
ATOM      3  C   UNK d   1      24.115  13.443  29.325  0.00  0.00     0.086 A 
ATOM      4  N   UNK d   1      23.881  14.480  28.536  0.00  0.00    -0.226 NA
ATOM      5  C   UNK d   1      23.146  15.448  29.205  0.00  0.00     0.167 A 
ATOM      6  C   UNK d   1      24.805  12.267  29.077  0.00  0.00     0.034 A 
ATOM      7  C   UNK d   1      24.882  11.372  30.117  0.00  0.00     0.002 A 
ATOM      8  C   UNK d   1      24.312  11.599  31.355  0.00  0.00     0.002 A 
ATOM      9  C   UNK d   1      23.631  12.800  31.549  0.00  0.00     0.032 A 
ENDROOT
BRANCH   1  10
ATOM     10  C   UNK d   1      22.295  15.524  31.511  0.00  0.00     0.236 C 
BRANCH  10  11
ATOM     11  C   UNK d   1      20.784  15.205  31.514  0.00  0.00     0.264 C 
ATOM     12  N   UNK d   1      20.528  14.071  32.214  0.00  0.00    -0.202 N 
ATOM     13  H   UNK d   1      19.163  14.264  31.939  0.00  0.00     0.205 HD
ATOM     14  O   UNK d   1      20.123  16.030  30.887  0.00  0.00    -0.269 OA
BRANCH  12  15
ATOM     15  N   UNK d   1      20.293  13.042  32.850  0.00  0.00    -0.335 NA
BRANCH  15  16
ATOM     16  C   UNK d   1      20.150  12.030  33.443  0.00  0.00     0.220 C 
BRANCH  16  17
ATOM     17  C   UNK d   1      20.116  10.656  33.079  0.00  0.00    -0.001 A 
ATOM     18  C   UNK d   1      21.257  10.039  32.546  0.00  0.00     0.053 A 
ATOM     19  C   UNK d   1      21.343   8.727  32.179  0.00  0.00     0.107 A 
ATOM     20  C   UNK d   1      20.190   7.924  32.350  0.00  0.00     0.157 A 
ATOM     21  C   UNK d   1      19.046   8.490  32.868  0.00  0.00     0.051 A 
ATOM     22  O   UNK d   1      20.283   6.612  31.986  0.00  0.00    -0.188 OA
ATOM     23 Br   UNK d   1      17.492   7.433  33.135  0.00  0.00    -0.048 Br
ATOM     24  C   UNK d   1      19.026   9.825  33.220  0.00  0.00     0.036 A 
BRANCH  19  25
ATOM     25  O   UNK d   1      22.478   8.133  31.659  0.00  0.00    -0.348 OA
BRANCH  25  26
ATOM     26  C   UNK d   1      22.836   8.227  30.323  0.00  0.00     0.171 C 
ATOM     27  C   UNK d   1      23.469   7.006  29.719  0.00  0.00     0.034 C 
ENDBRANCH  25  26
ENDBRANCH  19  25
ENDBRANCH  16  17
ENDBRANCH  15  16
ENDBRANCH  12  15
ENDBRANCH  10  11
ENDBRANCH   1  10
BRANCH   5  28
ATOM     28  C   UNK d   1      22.835  16.651  28.454  0.00  0.00     0.187 A 
ATOM     29  N   UNK d   1      21.914  17.594  28.906  0.00  0.00    -0.097 NA
ATOM     30  O   UNK d   1      21.833  18.565  28.090  0.00  0.00    -0.104 OA
ATOM     31  N   UNK d   1      22.616  18.385  27.103  0.00  0.00    -0.077 NA
ATOM     32  C   UNK d   1      23.269  17.188  27.296  0.00  0.00     0.285 A 
BRANCH  32  33
ATOM     33  N   UNK d   1      24.231  16.708  26.383  0.00  0.00    -0.028 N 
ATOM     34  H   UNK d   1      23.980  15.677  26.138  0.00  0.00     0.283 HD
ATOM     35  H   UNK d   1      25.145  16.624  26.845  0.00  0.00     0.283 HD
ATOM     36  H   UNK d   1      24.161  17.170  25.481  0.00  0.00     0.283 HD
ENDBRANCH  32  33
ENDBRANCH   5  28
TORSDOF 9
ENDMDL
