/Users/jonathanwahrer/Desktop/Msc/3_Semester/Drug_Design_Praktikum/waehrer_HTS_screening/HTS_experiment/out/docking_results/vina_output/3elj/0011_docked.pdbqt
 OpenBabel03192217143D

 36 39  0  0  0  0  0  0  0  0999 V2000
   22.9520   14.9640   30.4030 N   0  0  0  0  0  0  0  0  0  0  0  0
   23.5450   13.7160   30.5120 C   0  0  0  0  0  0  0  0  0  0  0  0
   24.1150   13.4430   29.3250 C   0  0  0  0  0  0  0  0  0  0  0  0
   23.8810   14.4800   28.5360 N   0  0  0  0  0  0  0  0  0  0  0  0
   23.1460   15.4480   29.2050 C   0  0  0  0  0  0  0  0  0  0  0  0
   24.8050   12.2670   29.0770 C   0  0  0  0  0  3  0  0  0  0  0  0
   24.8820   11.3720   30.1170 C   0  0  0  0  0  3  0  0  0  0  0  0
   24.3120   11.5990   31.3550 C   0  0  0  0  0  3  0  0  0  0  0  0
   23.6310   12.8000   31.5490 C   0  0  0  0  0  3  0  0  0  0  0  0
   22.2950   15.5240   31.5110 C   0  0  0  0  0  2  0  0  0  0  0  0
   20.7840   15.2050   31.5140 C   0  0  0  0  0  0  0  0  0  0  0  0
   20.5280   14.0710   32.2140 N   0  0  0  0  0  0  0  0  0  0  0  0
   19.1630   14.2640   31.9390 H   0  0  0  0  0  0  0  0  0  0  0  0
   20.1230   16.0300   30.8870 O   0  0  0  0  0  0  0  0  0  0  0  0
   20.2930   13.0420   32.8500 N   0  0  0  0  0  2  0  0  0  0  0  0
   20.1500   12.0300   33.4430 C   0  0  0  0  0  2  0  0  0  0  0  0
   20.1160   10.6560   33.0790 C   0  0  0  0  0  0  0  0  0  0  0  0
   21.2570   10.0390   32.5460 C   0  0  0  0  0  3  0  0  0  0  0  0
   21.3430    8.7270   32.1790 C   0  0  0  0  0  0  0  0  0  0  0  0
   20.1900    7.9240   32.3500 C   0  0  0  0  0  0  0  0  0  0  0  0
   19.0460    8.4900   32.8680 C   0  0  0  0  0  0  0  0  0  0  0  0
   20.2830    6.6120   31.9860 O   0  0  0  0  0  1  0  0  0  0  0  0
   17.4920    7.4330   33.1350 Br  0  0  0  0  0  0  0  0  0  0  0  0
   19.0260    9.8250   33.2200 C   0  0  0  0  0  3  0  0  0  0  0  0
   22.4780    8.1330   31.6590 O   0  0  0  0  0  0  0  0  0  0  0  0
   22.8360    8.2270   30.3230 C   0  0  0  0  0  2  0  0  0  0  0  0
   23.4690    7.0060   29.7190 C   0  0  0  0  0  1  0  0  0  0  0  0
   22.8350   16.6510   28.4540 C   0  0  0  0  0  0  0  0  0  0  0  0
   21.9140   17.5940   28.9060 N   0  0  0  0  0  0  0  0  0  0  0  0
   21.8330   18.5650   28.0900 O   0  0  0  0  0  0  0  0  0  0  0  0
   22.6160   18.3850   27.1030 N   0  0  0  0  0  0  0  0  0  0  0  0
   23.2690   17.1880   27.2960 C   0  0  0  0  0  0  0  0  0  0  0  0
   24.2310   16.7080   26.3830 N   0  0  0  0  0  4  0  0  0  0  0  0
   23.9800   15.6770   26.1380 H   0  0  0  0  0  0  0  0  0  0  0  0
   25.1450   16.6240   26.8450 H   0  0  0  0  0  0  0  0  0  0  0  0
   24.1610   17.1700   25.4810 H   0  0  0  0  0  0  0  0  0  0  0  0
  1  2  1  0  0  0  0
  1 10  1  0  0  0  0
  2  9  1  0  0  0  0
  3  2  2  0  0  0  0
  4  5  2  0  0  0  0
  4  3  1  0  0  0  0
  5  1  1  0  0  0  0
  6  3  1  0  0  0  0
  6  7  2  0  0  0  0
  7  8  1  0  0  0  0
  8  9  2  0  0  0  0
 10 11  1  0  0  0  0
 11 12  1  0  0  0  0
 12 15  1  0  0  0  0
 13 12  1  0  0  0  0
 14 11  2  0  0  0  0
 15 16  1  0  0  0  0
 17 24  1  0  0  0  0
 17 16  1  0  0  0  0
 18 17  2  0  0  0  0
 19 20  2  0  0  0  0
 19 18  1  0  0  0  0
 20 21  1  0  0  0  0
 21 23  1  0  0  0  0
 21 24  2  0  0  0  0
 22 20  1  0  0  0  0
 25 19  1  0  0  0  0
 26 25  1  0  0  0  0
 27 26  1  0  0  0  0
 28 29  2  0  0  0  0
 28  5  1  0  0  0  0
 30 29  1  0  0  0  0
 31 32  2  0  0  0  0
 31 30  1  0  0  0  0
 32 28  1  0  0  0  0
 33 35  1  0  0  0  0
 33 32  1  0  0  0  0
 34 33  1  0  0  0  0
 36 33  1  0  0  0  0
M  END
>  <Pose>
1

>  <Score>
-9.713

$$$$
