/Users/jonathanwahrer/Desktop/Msc/3_Semester/Drug_Design_Praktikum/waehrer_HTS_screening/HTS_experiment/out/docking_results/vina_output/3elj/0017_docked.pdbqt
 OpenBabel03192217153D

 38 41  0  0  0  0  0  0  0  0999 V2000
   24.4390   13.3660   28.7750 C   0  0  0  0  0  0  0  0  0  0  0  0
   25.3570   13.8800   27.9470 N   0  0  0  0  0  0  0  0  0  0  0  0
   25.0310   15.1120   27.6400 N   0  0  0  0  0  0  0  0  0  0  0  0
   23.8850   15.4660   28.2500 N   0  0  0  0  0  0  0  0  0  0  0  0
   23.5010   14.4000   28.9580 C   0  0  0  0  0  0  0  0  0  0  0  0
   24.3870   12.0380   29.3720 C   0  0  0  0  0  0  0  0  0  0  0  0
   23.6180   10.9960   28.8070 N   0  0  0  0  0  0  0  0  0  0  0  0
   23.0670   11.2030   27.9240 H   0  0  0  0  0  0  0  0  0  0  0  0
   25.0410   11.8140   30.4100 O   0  0  0  0  0  0  0  0  0  0  0  0
   23.5260    9.7250   29.3170 N   0  0  0  0  0  0  0  0  0  0  0  0
   22.5700    9.2780   30.0450 C   0  0  0  0  0  3  0  0  0  0  0  0
   22.5590    7.9110   30.5410 C   0  0  0  0  0  0  0  0  0  0  0  0
   21.5160    7.3800   31.2840 C   0  0  0  0  0  3  0  0  0  0  0  0
   21.5320    6.0830   31.7420 C   0  0  0  0  0  0  0  0  0  0  0  0
   22.6310    5.3140   31.4350 C   0  0  0  0  0  0  0  0  0  0  0  0
   23.6940    5.8140   30.6920 C   0  0  0  0  0  0  0  0  0  0  0  0
   25.2110    4.7410   30.2710 Br  0  0  0  0  0  0  0  0  0  0  0  0
   23.6390    7.1060   30.2570 C   0  0  0  0  0  3  0  0  0  0  0  0
   20.5180    5.5230   32.4800 O   0  0  0  0  0  0  0  0  0  0  0  0
   19.6590    6.1780   33.3560 C   0  0  0  0  0  2  0  0  0  0  0  0
   18.5180    6.8920   32.7070 C   0  0  0  0  0  1  0  0  0  0  0  0
   22.7020    3.9940   31.8700 O   0  0  0  0  0  0  0  0  0  0  0  0
   22.8600    3.7950   32.8510 H   0  0  0  0  0  0  0  0  0  0  0  0
   22.3070   14.2240   29.7870 C   0  0  0  0  0  2  0  0  0  0  0  0
   22.5130   14.0660   31.2050 N   0  0  0  0  0  0  0  0  0  0  0  0
   22.0180   15.3180   31.7910 C   0  0  0  0  0  2  0  0  0  0  0  0
   20.5870   15.5950   31.5550 C   0  0  0  0  0  2  0  0  0  0  0  0
   19.8460   14.4250   31.4940 O   0  0  0  0  0  0  0  0  0  0  0  0
   20.4190   13.5040   32.3450 C   0  0  0  0  0  2  0  0  0  0  0  0
   21.6810   12.9660   31.6980 C   0  0  0  0  0  2  0  0  0  0  0  0
   23.2730   16.7490   28.0830 C   0  0  0  0  0  0  0  0  0  0  0  0
   22.5710   17.4720   28.9700 N   0  0  0  0  0  0  0  0  0  0  0  0
   22.1950   18.5960   28.4070 O   0  0  0  0  0  0  0  0  0  0  0  0
   22.6220   18.6530   27.1690 N   0  0  0  0  0  0  0  0  0  0  0  0
   23.2990   17.5120   26.9410 C   0  0  0  0  0  0  0  0  0  0  0  0
   23.9190   17.2060   25.7020 N   0  0  0  0  0  0  0  0  0  0  0  0
   23.8270   17.7900   24.8450 H   0  0  0  0  0  0  0  0  0  0  0  0
   24.5190   16.3480   25.5980 H   0  0  0  0  0  0  0  0  0  0  0  0
  1  5  2  0  0  0  0
  1  6  1  0  0  0  0
  2  1  1  0  0  0  0
  3  2  2  0  0  0  0
  3  4  1  0  0  0  0
  4  5  1  0  0  0  0
  5 24  1  0  0  0  0
  6  9  2  0  0  0  0
  7 10  1  0  0  0  0
  7  6  1  0  0  0  0
  8  7  1  0  0  0  0
 10 11  2  0  0  0  0
 11 12  1  0  0  0  0
 12 13  1  0  0  0  0
 13 14  2  0  0  0  0
 14 19  1  0  0  0  0
 15 14  1  0  0  0  0
 15 22  1  0  0  0  0
 16 15  2  0  0  0  0
 17 16  1  0  0  0  0
 18 12  2  0  0  0  0
 18 16  1  0  0  0  0
 19 20  1  0  0  0  0
 21 20  1  0  0  0  0
 22 23  1  0  0  0  0
 24 25  1  0  0  0  0
 25 30  1  0  0  0  0
 25 26  1  0  0  0  0
 27 26  1  0  0  0  0
 28 27  1  0  0  0  0
 28 29  1  0  0  0  0
 30 29  1  0  0  0  0
 31  4  1  0  0  0  0
 31 32  2  0  0  0  0
 33 32  1  0  0  0  0
 34 33  1  0  0  0  0
 35 34  2  0  0  0  0
 35 31  1  0  0  0  0
 36 35  1  0  0  0  0
 37 36  1  0  0  0  0
 38 36  1  0  0  0  0
M  END
>  <Pose>
1

>  <Score>
-9.416

$$$$
