MODEL 1
REMARK VINA RESULT:    -9.416      0.000      0.000
REMARK INTER + INTRA:         -15.703
REMARK INTER:                 -14.371
REMARK INTRA:                  -1.332
REMARK UNBOUND:                -1.332
REMARK  10 active torsions:
REMARK  status: ('A' for Active; 'I' for Inactive)
REMARK    1  A    between atoms: C_3  and  O_34 
REMARK    2  A    between atoms: C_4  and  O_31 
REMARK    3  A    between atoms: C_6  and  C_8 
REMARK    4  A    between atoms: N_9  and  N_10 
REMARK       I    between atoms: N_10  and  C_11 
REMARK    5  A    between atoms: C_11  and  C_13 
REMARK    6  A    between atoms: N_16  and  C_25 
REMARK    7  A    between atoms: C_17  and  C_18 
REMARK    8  A    between atoms: C_18  and  N_19 
REMARK    9  A    between atoms: C_29  and  N_30 
REMARK   10  A    between atoms: O_31  and  C_32 
ROOT
ATOM      1  C   UNK d   1      24.439  13.366  28.775  0.00  0.00     0.176 A 
ATOM      2  N   UNK d   1      25.357  13.880  27.947  0.00  0.00    -0.124 NA
ATOM      3  N   UNK d   1      25.031  15.112  27.640  0.00  0.00    -0.058 NA
ATOM      4  N   UNK d   1      23.885  15.466  28.250  0.00  0.00    -0.191 N 
ATOM      5  C   UNK d   1      23.501  14.400  28.958  0.00  0.00     0.104 A 
ENDROOT
BRANCH   1   6
ATOM      6  C   UNK d   1      24.387  12.038  29.372  0.00  0.00     0.294 C 
ATOM      7  N   UNK d   1      23.618  10.996  28.807  0.00  0.00    -0.242 N 
ATOM      8  H   UNK d   1      23.067  11.203  27.924  0.00  0.00     0.192 HD
ATOM      9  O   UNK d   1      25.041  11.814  30.410  0.00  0.00    -0.264 OA
BRANCH   7  10
ATOM     10  N   UNK d   1      23.526   9.725  29.317  0.00  0.00    -0.183 NA
ATOM     11  C   UNK d   1      22.570   9.278  30.045  0.00  0.00     0.150 C 
BRANCH  11  12
ATOM     12  C   UNK d   1      22.559   7.911  30.541  0.00  0.00    -0.013 A 
ATOM     13  C   UNK d   1      21.516   7.380  31.284  0.00  0.00     0.052 A 
ATOM     14  C   UNK d   1      21.532   6.083  31.742  0.00  0.00     0.104 A 
ATOM     15  C   UNK d   1      22.631   5.314  31.435  0.00  0.00     0.116 A 
ATOM     16  C   UNK d   1      23.694   5.814  30.692  0.00  0.00     0.047 A 
ATOM     17 Br   UNK d   1      25.211   4.741  30.271  0.00  0.00    -0.048 Br
ATOM     18  C   UNK d   1      23.639   7.106  30.257  0.00  0.00     0.035 A 
BRANCH  14  19
ATOM     19  O   UNK d   1      20.518   5.523  32.480  0.00  0.00    -0.349 OA
BRANCH  19  20
ATOM     20  C   UNK d   1      19.659   6.178  33.356  0.00  0.00     0.171 C 
ATOM     21  C   UNK d   1      18.518   6.892  32.707  0.00  0.00     0.034 C 
ENDBRANCH  19  20
ENDBRANCH  14  19
BRANCH  15  22
ATOM     22  O   UNK d   1      22.702   3.994  31.870  0.00  0.00    -0.357 OA
ATOM     23  H   UNK d   1      22.860   3.795  32.851  0.00  0.00     0.218 HD
ENDBRANCH  15  22
ENDBRANCH  11  12
ENDBRANCH   7  10
ENDBRANCH   1   6
BRANCH   5  24
ATOM     24  C   UNK d   1      22.307  14.224  29.787  0.00  0.00     0.334 C 
BRANCH  24  25
ATOM     25  N   UNK d   1      22.513  14.066  31.205  0.00  0.00     0.098 N 
ATOM     26  C   UNK d   1      22.018  15.318  31.791  0.00  0.00     0.299 C 
ATOM     27  C   UNK d   1      20.587  15.595  31.555  0.00  0.00     0.198 C 
ATOM     28  O   UNK d   1      19.846  14.425  31.494  0.00  0.00    -0.388 OA
ATOM     29  C   UNK d   1      20.419  13.504  32.345  0.00  0.00     0.198 C 
ATOM     30  C   UNK d   1      21.681  12.966  31.698  0.00  0.00     0.299 C 
ENDBRANCH  24  25
ENDBRANCH   5  24
BRANCH   4  31
ATOM     31  C   UNK d   1      23.273  16.749  28.083  0.00  0.00     0.229 A 
ATOM     32  N   UNK d   1      22.571  17.472  28.970  0.00  0.00    -0.081 NA
ATOM     33  O   UNK d   1      22.195  18.596  28.407  0.00  0.00    -0.103 OA
ATOM     34  N   UNK d   1      22.622  18.653  27.169  0.00  0.00    -0.083 NA
ATOM     35  C   UNK d   1      23.299  17.512  26.941  0.00  0.00     0.201 A 
BRANCH  35  36
ATOM     36  N   UNK d   1      23.919  17.206  25.702  0.00  0.00    -0.379 N 
ATOM     37  H   UNK d   1      23.827  17.790  24.845  0.00  0.00     0.158 HD
ATOM     38  H   UNK d   1      24.519  16.348  25.598  0.00  0.00     0.158 HD
ENDBRANCH  35  36
ENDBRANCH   4  31
TORSDOF 10
ENDMDL
