/Users/jonathanwahrer/Desktop/Msc/3_Semester/Drug_Design_Praktikum/waehrer_HTS_screening/HTS_experiment/out/docking_results/vina_output/3elj/0018_docked.pdbqt
 OpenBabel03192217153D

 37 40  0  0  0  0  0  0  0  0999 V2000
   24.5850   12.9830   28.6160 C   0  0  0  0  0  0  0  0  0  0  0  0
   25.3950   13.7590   27.9860 N   0  0  0  0  0  0  0  0  0  0  0  0
   24.8770   14.9720   27.8910 N   0  0  0  0  0  0  0  0  0  0  0  0
   23.6880   14.9740   28.4750 N   0  0  0  0  0  0  0  0  0  0  0  0
   23.3740   13.7800   28.9590 C   0  0  0  0  0  0  0  0  0  0  0  0
   24.7060   11.7620   29.3790 C   0  0  0  0  0  0  0  0  0  0  0  0
   23.9990   10.5700   28.9660 N   0  0  0  0  0  0  0  0  0  0  0  0
   23.2800   10.2300   28.4800 H   0  0  0  0  0  0  0  0  0  0  0  0
   25.4760   11.7230   30.3380 O   0  0  0  0  0  0  0  0  0  0  0  0
   24.8770    9.4120   29.6260 N   0  0  0  0  0  2  0  0  0  0  0  0
   23.8300    8.6210   29.9300 C   0  0  0  0  0  2  0  0  0  0  0  0
   23.4390    7.4360   30.4850 C   0  0  0  0  0  0  0  0  0  0  0  0
   22.1900    7.0580   30.9440 C   0  0  0  0  0  3  0  0  0  0  0  0
   21.9020    5.8280   31.4890 C   0  0  0  0  0  0  0  0  0  0  0  0
   22.9150    4.9150   31.5810 C   0  0  0  0  0  0  0  0  0  0  0  0
   24.1800    5.2420   31.1390 C   0  0  0  0  0  0  0  0  0  0  0  0
   25.5910    3.9360   31.3130 Br  0  0  0  0  0  0  0  0  0  0  0  0
   24.4650    6.4280   30.6130 C   0  0  0  0  0  3  0  0  0  0  0  0
   20.6090    5.5400   31.9420 O   0  0  0  0  0  0  0  0  0  0  0  0
   19.7760    6.6260   32.3970 C   0  0  0  0  0  1  0  0  0  0  0  0
   22.6800    3.6470   32.1210 O   0  0  0  0  0  0  0  0  0  0  0  0
   22.6950    3.5480   33.1580 H   0  0  0  0  0  0  0  0  0  0  0  0
   22.3200   13.2610   29.7820 C   0  0  0  0  0  2  0  0  0  0  0  0
   22.3290   13.6000   31.2070 N   0  0  0  0  0  0  0  0  0  0  0  0
   22.5580   12.4620   32.0360 C   0  0  0  0  0  2  0  0  0  0  0  0
   21.4430   11.4560   32.0490 C   0  0  0  0  0  2  0  0  0  0  0  0
   20.3800   11.9520   32.7860 O   0  0  0  0  0  0  0  0  0  0  0  0
   20.4090   13.3510   32.8150 C   0  0  0  0  0  2  0  0  0  0  0  0
   20.8520   13.8700   31.4880 C   0  0  0  0  0  2  0  0  0  0  0  0
   23.0850   16.2220   28.8950 C   0  0  0  0  0  0  0  0  0  0  0  0
   22.5540   16.6300   29.9710 N   0  0  0  0  0  0  0  0  0  0  0  0
   22.0800   17.8720   29.8670 O   0  0  0  0  0  0  0  0  0  0  0  0
   22.3320   18.2550   28.6680 N   0  0  0  0  0  0  0  0  0  0  0  0
   22.9560   17.3050   27.9710 C   0  0  0  0  0  0  0  0  0  0  0  0
   23.3760   17.3410   26.6310 N   0  0  0  0  0  0  0  0  0  0  0  0
   22.8190   17.7830   25.8780 H   0  0  0  0  0  0  0  0  0  0  0  0
   24.3130   16.9190   26.3150 H   0  0  0  0  0  0  0  0  0  0  0  0
  1  5  2  0  0  0  0
  1  6  1  0  0  0  0
  2  1  1  0  0  0  0
  3  2  2  0  0  0  0
  3  4  1  0  0  0  0
  4 30  1  0  0  0  0
  4  5  1  0  0  0  0
  5 23  1  0  0  0  0
  6  9  2  0  0  0  0
  7  6  1  0  0  0  0
  7 10  1  0  0  0  0
  8  7  1  0  0  0  0
 10 11  1  0  0  0  0
 11 12  1  0  0  0  0
 12 18  2  0  0  0  0
 12 13  1  0  0  0  0
 13 14  2  0  0  0  0
 14 15  1  0  0  0  0
 14 19  1  0  0  0  0
 15 21  1  0  0  0  0
 16 17  1  0  0  0  0
 16 15  2  0  0  0  0
 18 16  1  0  0  0  0
 19 20  1  0  0  0  0
 21 22  1  0  0  0  0
 23 24  1  0  0  0  0
 24 29  1  0  0  0  0
 24 25  1  0  0  0  0
 25 26  1  0  0  0  0
 26 27  1  0  0  0  0
 27 28  1  0  0  0  0
 29 28  1  0  0  0  0
 30 31  2  0  0  0  0
 32 31  1  0  0  0  0
 33 32  1  0  0  0  0
 34 33  2  0  0  0  0
 34 30  1  0  0  0  0
 35 34  1  0  0  0  0
 36 35  1  0  0  0  0
 37 35  1  0  0  0  0
M  END
>  <Pose>
1

>  <Score>
-8.796

$$$$
