MODEL 1
REMARK VINA RESULT:    -8.796      0.000      0.000
REMARK INTER + INTRA:         -14.102
REMARK INTER:                 -12.909
REMARK INTRA:                  -1.193
REMARK UNBOUND:                -1.193
REMARK  9 active torsions:
REMARK  status: ('A' for Active; 'I' for Inactive)
REMARK    1  A    between atoms: C_3  and  O_33 
REMARK    2  A    between atoms: C_4  and  O_31 
REMARK    3  A    between atoms: C_6  and  C_8 
REMARK    4  A    between atoms: N_9  and  N_10 
REMARK       I    between atoms: N_10  and  C_11 
REMARK    5  A    between atoms: C_11  and  C_13 
REMARK    6  A    between atoms: N_16  and  C_25 
REMARK    7  A    between atoms: C_17  and  C_18 
REMARK    8  A    between atoms: C_18  and  N_19 
REMARK    9  A    between atoms: C_29  and  N_30 
ROOT
ATOM      1  C   UNK d   1      24.585  12.983  28.616  0.00  0.00     0.170 A 
ATOM      2  N   UNK d   1      25.395  13.759  27.986  0.00  0.00    -0.152 NA
ATOM      3  N   UNK d   1      24.877  14.972  27.891  0.00  0.00     0.012 NA
ATOM      4  N   UNK d   1      23.688  14.974  28.475  0.00  0.00    -0.215 N 
ATOM      5  C   UNK d   1      23.374  13.780  28.959  0.00  0.00     0.098 A 
ENDROOT
BRANCH   1   6
ATOM      6  C   UNK d   1      24.706  11.762  29.379  0.00  0.00     0.293 C 
ATOM      7  N   UNK d   1      23.999  10.570  28.966  0.00  0.00    -0.242 N 
ATOM      8  H   UNK d   1      23.280  10.230  28.480  0.00  0.00     0.192 HD
ATOM      9  O   UNK d   1      25.476  11.723  30.338  0.00  0.00    -0.264 OA
BRANCH   7  10
ATOM     10  N   UNK d   1      24.877   9.412  29.626  0.00  0.00    -0.183 NA
ATOM     11  C   UNK d   1      23.830   8.621  29.930  0.00  0.00     0.150 C 
BRANCH  11  12
ATOM     12  C   UNK d   1      23.439   7.436  30.485  0.00  0.00    -0.013 A 
ATOM     13  C   UNK d   1      22.190   7.058  30.944  0.00  0.00     0.052 A 
ATOM     14  C   UNK d   1      21.902   5.828  31.489  0.00  0.00     0.103 A 
ATOM     15  C   UNK d   1      22.915   4.915  31.581  0.00  0.00     0.116 A 
ATOM     16  C   UNK d   1      24.180   5.242  31.139  0.00  0.00     0.047 A 
ATOM     17 Br   UNK d   1      25.591   3.936  31.313  0.00  0.00    -0.048 Br
ATOM     18  C   UNK d   1      24.465   6.428  30.613  0.00  0.00     0.035 A 
BRANCH  14  19
ATOM     19  O   UNK d   1      20.609   5.540  31.942  0.00  0.00    -0.353 OA
ATOM     20  C   UNK d   1      19.776   6.626  32.397  0.00  0.00     0.210 C 
ENDBRANCH  14  19
BRANCH  15  21
ATOM     21  O   UNK d   1      22.680   3.647  32.121  0.00  0.00    -0.357 OA
ATOM     22  H   UNK d   1      22.695   3.548  33.158  0.00  0.00     0.218 HD
ENDBRANCH  15  21
ENDBRANCH  11  12
ENDBRANCH   7  10
ENDBRANCH   1   6
BRANCH   5  23
ATOM     23  C   UNK d   1      22.320  13.261  29.782  0.00  0.00     0.334 C 
BRANCH  23  24
ATOM     24  N   UNK d   1      22.329  13.600  31.207  0.00  0.00     0.098 N 
ATOM     25  C   UNK d   1      22.558  12.462  32.036  0.00  0.00     0.299 C 
ATOM     26  C   UNK d   1      21.443  11.456  32.049  0.00  0.00     0.198 C 
ATOM     27  O   UNK d   1      20.380  11.952  32.786  0.00  0.00    -0.388 OA
ATOM     28  C   UNK d   1      20.409  13.351  32.815  0.00  0.00     0.198 C 
ATOM     29  C   UNK d   1      20.852  13.870  31.488  0.00  0.00     0.299 C 
ENDBRANCH  23  24
ENDBRANCH   5  23
BRANCH   4  30
ATOM     30  C   UNK d   1      23.085  16.222  28.895  0.00  0.00     0.225 A 
ATOM     31  N   UNK d   1      22.554  16.630  29.971  0.00  0.00    -0.081 NA
ATOM     32  O   UNK d   1      22.080  17.872  29.867  0.00  0.00    -0.103 OA
ATOM     33  N   UNK d   1      22.332  18.255  28.668  0.00  0.00    -0.083 NA
ATOM     34  C   UNK d   1      22.956  17.305  27.971  0.00  0.00     0.201 A 
BRANCH  34  35
ATOM     35  N   UNK d   1      23.376  17.341  26.631  0.00  0.00    -0.379 N 
ATOM     36  H   UNK d   1      22.819  17.783  25.878  0.00  0.00     0.158 HD
ATOM     37  H   UNK d   1      24.313  16.919  26.315  0.00  0.00     0.158 HD
ENDBRANCH  34  35
ENDBRANCH   4  30
TORSDOF 9
ENDMDL
