/Users/jonathanwahrer/Desktop/Msc/3_Semester/Drug_Design_Praktikum/waehrer_HTS_screening/HTS_experiment/out/docking_results/vina_output/3elj/0023_docked.pdbqt
 OpenBabel03192217163D

 37 40  0  0  1  0  0  0  0  0999 V2000
   26.9020    4.1130   31.3290 C   0  0  1  0  0  3  0  0  0  0  0  0
   28.3320    4.1440   31.5510 N   0  0  0  0  0  0  0  0  0  0  0  0
   29.0370    4.2960   30.3520 C   0  0  0  0  0  0  0  0  0  0  0  0
   30.2670    4.2320   30.2110 O   0  0  0  0  0  0  0  0  0  0  0  0
   28.0580    4.5430   29.2930 C   0  0  0  0  0  0  0  0  0  0  0  0
   28.3890    4.7180   28.0920 O   0  0  0  0  0  0  0  0  0  0  0  0
   26.7410    4.5400   29.8910 C   0  0  1  0  0  3  0  0  0  0  0  0
   25.6270    4.8120   29.2650 C   0  0  1  0  0  3  0  0  0  0  0  0
   25.4820    4.4480   27.9360 O   0  0  0  0  0  1  0  0  0  0  0  0
   24.5260    5.4780   29.9160 C   0  0  0  0  0  0  0  0  0  0  0  0
   24.3890    6.8350   29.5930 C   0  0  0  0  0  3  0  0  0  0  0  0
   23.3640    7.5870   30.1110 C   0  0  0  0  0  0  0  0  0  0  0  0
   22.4480    7.0130   30.9620 C   0  0  0  0  0  0  0  0  0  0  0  0
   23.0460    9.0360   29.9020 C   0  0  0  0  0  2  0  0  0  0  0  0
   22.6050    5.6740   31.2660 C   0  0  0  0  0  3  0  0  0  0  0  0
   21.5170    8.0040   31.3360 O   0  0  0  0  0  0  0  0  0  0  0  0
   23.6270    4.9030   30.7550 C   0  0  0  0  0  3  0  0  0  0  0  0
   22.0720    9.2800   31.0310 C   0  0  1  0  0  3  0  0  0  0  0  0
   22.8550    9.8540   32.1970 C   0  0  0  0  0  1  0  0  0  0  0  0
   26.4600    2.7060   31.5170 C   0  0  0  0  0  0  0  0  0  0  0  0
   25.5620    2.4790   32.5480 C   0  0  0  0  0  3  0  0  0  0  0  0
   25.0720    1.2460   32.8240 C   0  0  0  0  0  0  0  0  0  0  0  0
   25.4880    0.1740   32.0450 C   0  0  0  0  0  0  0  0  0  0  0  0
   26.3970    0.4060   31.0030 C   0  0  0  0  0  0  0  0  0  0  0  0
   26.9630   -1.0580   29.9390 Br  0  0  0  0  0  0  0  0  0  0  0  0
   26.8890    1.6670   30.7300 C   0  0  0  0  0  3  0  0  0  0  0  0
   24.1670    1.0210   33.8630 O   0  0  0  0  0  0  0  0  0  0  0  0
   24.5230    1.0710   35.2180 C   0  0  0  0  0  1  0  0  0  0  0  0
   25.0010   -1.0800   32.3130 O   0  0  0  0  0  0  0  0  0  0  0  0
   24.9110   -1.7510   31.5900 H   0  0  0  0  0  0  0  0  0  0  0  0
   28.8900    4.0210   32.8820 C   0  0  0  0  0  2  0  0  0  0  0  0
   29.5790    2.7600   33.1940 C   0  0  0  0  0  2  0  0  0  0  0  0
   29.4810    2.2330   34.5780 C   0  0  0  0  0  2  0  0  0  0  0  0
   28.1730    1.7380   34.9320 N   0  0  0  0  0  4  0  0  0  0  0  0
   27.9890    1.8750   36.3850 C   0  0  0  0  0  1  0  0  0  0  0  0
   28.1560    0.3180   34.6350 C   0  0  0  0  0  1  0  0  0  0  0  0
   27.3920    2.1680   34.4290 H   0  0  0  0  0  0  0  0  0  0  0  0
  1 20  1  6  0  0  0
  1  2  1  0  0  0  0
  2 31  1  0  0  0  0
  3  2  1  0  0  0  0
  4  3  2  0  0  0  0
  5  7  1  0  0  0  0
  5  3  1  0  0  0  0
  6  5  2  0  0  0  0
  7  8  1  6  0  0  0
  7  1  1  0  0  0  0
  8  9  1  1  0  0  0
  8 10  1  0  0  0  0
 10 17  1  0  0  0  0
 11 10  2  0  0  0  0
 11 12  1  0  0  0  0
 12 13  2  0  0  0  0
 13 15  1  0  0  0  0
 13 16  1  0  0  0  0
 14 12  1  0  0  0  0
 14 18  1  0  0  0  0
 17 15  2  0  0  0  0
 18 16  1  0  0  0  0
 18 19  1  1  0  0  0
 20 21  1  0  0  0  0
 21 22  2  0  0  0  0
 22 27  1  0  0  0  0
 23 29  1  0  0  0  0
 23 22  1  0  0  0  0
 24 23  2  0  0  0  0
 25 24  1  0  0  0  0
 26 24  1  0  0  0  0
 26 20  2  0  0  0  0
 27 28  1  0  0  0  0
 30 29  1  0  0  0  0
 31 32  1  0  0  0  0
 32 33  1  0  0  0  0
 33 34  1  0  0  0  0
 34 35  1  0  0  0  0
 36 34  1  0  0  0  0
 37 34  1  0  0  0  0
M  END
>  <Pose>
1

>  <Score>
-6.068

$$$$
