MODEL 1
REMARK VINA RESULT:    -6.068      0.000      0.000
REMARK INTER + INTRA:         -10.941
REMARK INTER:                  -9.083
REMARK INTRA:                  -1.858
REMARK UNBOUND:                -1.858
REMARK  9 active torsions:
REMARK  status: ('A' for Active; 'I' for Inactive)
REMARK    1  A    between atoms: C_3  and  O_35 
REMARK    2  A    between atoms: C_4  and  O_33 
REMARK    3  A    between atoms: C_6  and  C_8 
REMARK    4  A    between atoms: N_9  and  C_27 
REMARK    5  A    between atoms: C_14  and  C_15 
REMARK    6  A    between atoms: C_15  and  C_17 
REMARK    7  A    between atoms: C_27  and  C_28 
REMARK    8  A    between atoms: C_28  and  C_29 
REMARK    9  A    between atoms: C_29  and  N_30 
ROOT
ATOM      1  C   UNK d   1      26.902   4.113  31.329  0.00  0.00     0.161 C 
ATOM      2  N   UNK d   1      28.332   4.144  31.551  0.00  0.00    -0.332 N 
ATOM      3  C   UNK d   1      29.037   4.296  30.352  0.00  0.00     0.295 C 
ATOM      4  O   UNK d   1      30.267   4.232  30.211  0.00  0.00    -0.264 OA
ATOM      5  C   UNK d   1      28.058   4.543  29.293  0.00  0.00     0.250 C 
ATOM      6  O   UNK d   1      28.389   4.718  28.092  0.00  0.00    -0.282 OA
ATOM      7  C   UNK d   1      26.741   4.540  29.891  0.00  0.00     0.062 C 
ENDROOT
BRANCH   7   8
ATOM      8  C   UNK d   1      25.627   4.812  29.265  0.00  0.00     0.130 C 
ATOM      9  O   UNK d   1      25.482   4.448  27.936  0.00  0.00    -0.190 OA
BRANCH   8  10
ATOM     10  C   UNK d   1      24.526   5.478  29.916  0.00  0.00     0.002 A 
ATOM     11  C   UNK d   1      24.389   6.835  29.593  0.00  0.00     0.024 A 
ATOM     12  C   UNK d   1      23.364   7.587  30.111  0.00  0.00    -0.021 A 
ATOM     13  C   UNK d   1      22.448   7.013  30.962  0.00  0.00     0.075 A 
ATOM     14  C   UNK d   1      23.046   9.036  29.902  0.00  0.00     0.073 C 
ATOM     15  C   UNK d   1      22.605   5.674  31.266  0.00  0.00     0.038 A 
ATOM     16  O   UNK d   1      21.517   8.004  31.336  0.00  0.00    -0.345 OA
ATOM     17  C   UNK d   1      23.627   4.903  30.755  0.00  0.00     0.017 A 
ATOM     18  C   UNK d   1      22.072   9.280  31.031  0.00  0.00     0.129 C 
ATOM     19  C   UNK d   1      22.855   9.854  32.197  0.00  0.00     0.040 C 
ENDBRANCH   8  10
ENDBRANCH   7   8
BRANCH   1  20
ATOM     20  C   UNK d   1      26.460   2.706  31.517  0.00  0.00    -0.026 A 
ATOM     21  C   UNK d   1      25.562   2.479  32.548  0.00  0.00     0.049 A 
ATOM     22  C   UNK d   1      25.072   1.246  32.824  0.00  0.00     0.103 A 
ATOM     23  C   UNK d   1      25.488   0.174  32.045  0.00  0.00     0.116 A 
ATOM     24  C   UNK d   1      26.397   0.406  31.003  0.00  0.00     0.047 A 
ATOM     25 Br   UNK d   1      26.963  -1.058  29.939  0.00  0.00    -0.048 Br
ATOM     26  C   UNK d   1      26.889   1.667  30.730  0.00  0.00     0.031 A 
BRANCH  22  27
ATOM     27  O   UNK d   1      24.167   1.021  33.863  0.00  0.00    -0.353 OA
ATOM     28  C   UNK d   1      24.523   1.071  35.218  0.00  0.00     0.210 C 
ENDBRANCH  22  27
BRANCH  23  29
ATOM     29  O   UNK d   1      25.001  -1.080  32.313  0.00  0.00    -0.357 OA
ATOM     30  H   UNK d   1      24.911  -1.751  31.590  0.00  0.00     0.218 HD
ENDBRANCH  23  29
ENDBRANCH   1  20
BRANCH   2  31
ATOM     31  C   UNK d   1      28.890   4.021  32.882  0.00  0.00     0.129 C 
BRANCH  31  32
ATOM     32  C   UNK d   1      29.579   2.760  33.194  0.00  0.00     0.048 C 
BRANCH  32  33
ATOM     33  C   UNK d   1      29.481   2.233  34.578  0.00  0.00     0.235 C 
BRANCH  33  34
ATOM     34  N   UNK d   1      28.173   1.738  34.932  0.00  0.00    -0.079 N 
ATOM     35  C   UNK d   1      27.989   1.875  36.385  0.00  0.00     0.269 C 
ATOM     36  C   UNK d   1      28.156   0.318  34.635  0.00  0.00     0.269 C 
ATOM     37  H   UNK d   1      27.392   2.168  34.429  0.00  0.00     0.278 HD
ENDBRANCH  33  34
ENDBRANCH  32  33
ENDBRANCH  31  32
ENDBRANCH   2  31
TORSDOF 9
ENDMDL
