MODEL 1
REMARK VINA RESULT:    -9.552      0.000      0.000
REMARK INTER + INTRA:         -10.947
REMARK INTER:                 -10.947
REMARK INTRA:                   0.001
REMARK UNBOUND:                 0.001
REMARK  3 active torsions:
REMARK  status: ('A' for Active; 'I' for Inactive)
REMARK    1  A    between atoms: C_3  and  O_25 
REMARK    2  A    between atoms: C_6  and  C_8 
REMARK    3  A    between atoms: C_10  and  C_21 
ROOT
ATOM      1  C   UNK d   1      23.297  10.418  32.027  0.00  0.00     0.270 C 
ATOM      2  N   UNK d   1      24.114   9.658  31.175  0.00  0.00    -0.047 N 
ATOM      3  C   UNK d   1      23.793   8.306  30.921  0.00  0.00     0.291 C 
ATOM      4  C   UNK d   1      22.891   7.654  31.934  0.00  0.00     0.086 C 
ATOM      5  C   UNK d   1      21.750   8.525  32.305  0.00  0.00    -0.018 A 
ATOM      6  C   UNK d   1      20.450   8.254  32.636  0.00  0.00    -0.001 A 
ATOM      7  C   UNK d   1      19.878   9.490  32.879  0.00  0.00     0.043 A 
ATOM      8  N   UNK d   1      20.816  10.457  32.696  0.00  0.00    -0.356 N 
ATOM      9  C   UNK d   1      21.966   9.869  32.344  0.00  0.00     0.052 A 
ATOM     10  C   UNK d   1      18.547   9.498  33.239  0.00  0.00     0.030 A 
ATOM     11  C   UNK d   1      17.819   8.333  33.351  0.00  0.00     0.002 A 
ATOM     12  C   UNK d   1      18.391   7.101  33.108  0.00  0.00     0.001 A 
ATOM     13  C   UNK d   1      19.728   7.075  32.746  0.00  0.00     0.014 A 
ATOM     14  H   UNK d   1      24.265  10.139  30.242  0.00  0.00     0.279 HD
ATOM     15  H   UNK d   1      25.105   9.677  31.579  0.00  0.00     0.279 HD
ATOM     16  H   UNK d   1      20.583  11.465  32.832  0.00  0.00     0.166 HD
ENDROOT
BRANCH   1  17
ATOM     17  C   UNK d   1      23.067  11.761  31.423  0.00  0.00    -0.019 A 
ATOM     18  C   UNK d   1      22.127  12.640  31.917  0.00  0.00     0.031 A 
ATOM     19  C   UNK d   1      22.000  13.852  31.274  0.00  0.00     0.046 A 
ATOM     20  C   UNK d   1      22.754  14.223  30.181  0.00  0.00     0.100 A 
ATOM     21 Br   UNK d   1      20.709  15.091  31.931  0.00  0.00    -0.048 Br
ATOM     22  C   UNK d   1      23.690  13.342  29.694  0.00  0.00     0.046 A 
ATOM     23 Br   UNK d   1      24.749  13.816  28.189  0.00  0.00    -0.048 Br
ATOM     24  C   UNK d   1      23.835  12.106  30.332  0.00  0.00     0.031 A 
BRANCH  20  25
ATOM     25  O   UNK d   1      22.563  15.483  29.579  0.00  0.00    -0.358 OA
ATOM     26  H   UNK d   1      21.988  16.155  30.069  0.00  0.00     0.217 HD
ENDBRANCH  20  25
ENDBRANCH   1  17
BRANCH   3  27
ATOM     27  C   UNK d   1      23.171   8.101  29.584  0.00  0.00     0.205 C 
ATOM     28  O   UNK d   1      23.015   6.912  29.142  0.00  0.00    -0.646 OA
ATOM     29  O   UNK d   1      22.774   9.198  28.836  0.00  0.00    -0.646 OA
ENDBRANCH   3  27
TORSDOF 3
ENDMDL
