MODEL 1
REMARK VINA RESULT:    -9.035      0.000      0.000
REMARK INTER + INTRA:         -13.066
REMARK INTER:                 -12.204
REMARK INTRA:                  -0.863
REMARK UNBOUND:                -0.863
REMARK  7 active torsions:
REMARK  status: ('A' for Active; 'I' for Inactive)
REMARK    1  A    between atoms: C_3  and  O_30 
REMARK    2  A    between atoms: C_5  and  O_29 
REMARK    3  A    between atoms: C_7  and  C_8 
REMARK    4  A    between atoms: N_9  and  N_10 
REMARK    5  A    between atoms: N_10  and  C_11 
REMARK    6  A    between atoms: C_13  and  N_23 
REMARK    7  A    between atoms: C_15  and  N_17 
ROOT
ATOM      1  C   UNK d   1      23.896  11.919  31.303  0.00  0.00     0.774 A 
ATOM      2  N   UNK d   1      22.778  12.471  31.783  0.00  0.00     0.133 NA
ATOM      3  C   UNK d   1      22.154  13.506  31.158  0.00  0.00     0.756 A 
ATOM      4  N   UNK d   1      22.683  13.987  30.021  0.00  0.00     0.131 NA
ATOM      5  C   UNK d   1      23.804  13.454  29.514  0.00  0.00     0.756 A 
ATOM      6  N   UNK d   1      24.402  12.415  30.170  0.00  0.00     0.133 NA
ENDROOT
BRANCH   1   7
ATOM      7  N   UNK d   1      24.488  10.842  31.995  0.00  0.00    -0.105 N 
ATOM      8  H   UNK d   1      25.481  10.939  32.293  0.00  0.00     0.208 HD
BRANCH   7   9
ATOM      9  N   UNK d   1      23.768   9.652  32.290  0.00  0.00    -0.172 NA
ATOM     10  C   UNK d   1      22.868   9.209  31.474  0.00  0.00     0.152 C 
BRANCH  10  11
ATOM     11  C   UNK d   1      22.088   8.015  31.685  0.00  0.00     0.006 A 
ATOM     12  C   UNK d   1      20.890   8.028  32.359  0.00  0.00     0.056 A 
ATOM     13 Br   UNK d   1      20.272   9.708  33.015  0.00  0.00    -0.047 Br
ATOM     14  C   UNK d   1      20.149   6.879  32.565  0.00  0.00     0.086 A 
ATOM     15  C   UNK d   1      20.621   5.669  32.078  0.00  0.00     0.074 A 
ATOM     16  C   UNK d   1      21.819   5.629  31.400  0.00  0.00     0.069 A 
ATOM     17  C   UNK d   1      22.533   6.803  31.214  0.00  0.00     0.051 A 
BRANCH  14  18
ATOM     18  O   UNK d   1      18.947   6.924  33.247  0.00  0.00    -0.359 OA
ATOM     19  H   UNK d   1      18.970   7.076  34.247  0.00  0.00     0.217 HD
ENDBRANCH  14  18
BRANCH  16  20
ATOM     20  O   UNK d   1      22.254   4.400  30.931  0.00  0.00    -0.361 OA
ATOM     21  H   UNK d   1      22.685   4.255  30.028  0.00  0.00     0.217 HD
ENDBRANCH  16  20
ENDBRANCH  10  11
ENDBRANCH   7   9
ENDBRANCH   1   7
BRANCH   3  22
ATOM     22  N   UNK d   1      20.982  14.017  31.751  0.00  0.00    -0.209 N 
ATOM     23  C   UNK d   1      20.444  15.267  31.286  0.00  0.00     0.167 C 
ATOM     24  C   UNK d   1      18.997  14.953  30.874  0.00  0.00     0.188 C 
ATOM     25  O   UNK d   1      18.361  14.537  32.044  0.00  0.00    -0.388 OA
ATOM     26  C   UNK d   1      18.824  13.300  32.480  0.00  0.00     0.188 C 
ATOM     27  C   UNK d   1      20.301  13.329  32.820  0.00  0.00     0.167 C 
ENDBRANCH   3  22
BRANCH   5  28
ATOM     28  N   UNK d   1      24.373  13.961  28.307  0.00  0.00    -0.209 N 
ATOM     29  C   UNK d   1      25.442  13.305  27.592  0.00  0.00     0.167 C 
ATOM     30  C   UNK d   1      26.507  14.300  27.185  0.00  0.00     0.188 C 
ATOM     31  O   UNK d   1      26.219  15.589  27.608  0.00  0.00    -0.388 OA
ATOM     32  C   UNK d   1      24.971  15.975  27.081  0.00  0.00     0.188 C 
ATOM     33  C   UNK d   1      23.860  15.203  27.765  0.00  0.00     0.167 C 
ENDBRANCH   5  28
TORSDOF 7
ENDMDL
