/Users/jonathanwahrer/Desktop/Msc/3_Semester/Drug_Design_Praktikum/waehrer_HTS_screening/HTS_experiment/out/docking_results/vina_output/3elj/0035_docked.pdbqt
 OpenBabel03192217173D

 33 36  0  0  0  0  0  0  0  0999 V2000
   23.8960   11.9190   31.3030 C   0  0  0  0  0  0  0  0  0  0  0  0
   22.7780   12.4710   31.7830 N   0  0  0  0  0  4  0  0  0  0  0  0
   22.1540   13.5060   31.1580 C   0  0  0  0  0  0  0  0  0  0  0  0
   22.6830   13.9870   30.0210 N   0  0  0  0  0  0  0  0  0  0  0  0
   23.8040   13.4540   29.5140 C   0  0  0  0  0  0  0  0  0  0  0  0
   24.4020   12.4150   30.1700 N   0  0  0  0  0  2  0  0  0  0  0  0
   24.4880   10.8420   31.9950 N   0  0  0  0  0  0  0  0  0  0  0  0
   25.4810   10.9390   32.2930 H   0  0  0  0  0  0  0  0  0  0  0  0
   23.7680    9.6520   32.2900 N   0  0  0  0  0  0  0  0  0  0  0  0
   22.8680    9.2090   31.4740 C   0  0  0  0  0  3  0  0  0  0  0  0
   22.0880    8.0150   31.6850 C   0  0  0  0  0  0  0  0  0  0  0  0
   20.8900    8.0280   32.3590 C   0  0  0  0  0  0  0  0  0  0  0  0
   20.2720    9.7080   33.0150 Br  0  0  0  0  0  0  0  0  0  0  0  0
   20.1490    6.8790   32.5650 C   0  0  0  0  0  0  0  0  0  0  0  0
   20.6210    5.6690   32.0780 C   0  0  0  0  0  3  0  0  0  0  0  0
   21.8190    5.6290   31.4000 C   0  0  0  0  0  0  0  0  0  0  0  0
   22.5330    6.8030   31.2140 C   0  0  0  0  0  3  0  0  0  0  0  0
   18.9470    6.9240   33.2470 O   0  0  0  0  0  0  0  0  0  0  0  0
   18.9700    7.0760   34.2470 H   0  0  0  0  0  0  0  0  0  0  0  0
   22.2540    4.4000   30.9310 O   0  0  0  0  0  0  0  0  0  0  0  0
   22.6850    4.2550   30.0280 H   0  0  0  0  0  0  0  0  0  0  0  0
   20.9820   14.0170   31.7510 N   0  0  0  0  0  0  0  0  0  0  0  0
   20.4440   15.2670   31.2860 C   0  0  0  0  0  2  0  0  0  0  0  0
   18.9970   14.9530   30.8740 C   0  0  0  0  0  2  0  0  0  0  0  0
   18.3610   14.5370   32.0440 O   0  0  0  0  0  0  0  0  0  0  0  0
   18.8240   13.3000   32.4800 C   0  0  0  0  0  2  0  0  0  0  0  0
   20.3010   13.3290   32.8200 C   0  0  0  0  0  2  0  0  0  0  0  0
   24.3730   13.9610   28.3070 N   0  0  0  0  0  0  0  0  0  0  0  0
   25.4420   13.3050   27.5920 C   0  0  0  0  0  2  0  0  0  0  0  0
   26.5070   14.3000   27.1850 C   0  0  0  0  0  2  0  0  0  0  0  0
   26.2190   15.5890   27.6080 O   0  0  0  0  0  0  0  0  0  0  0  0
   24.9710   15.9750   27.0810 C   0  0  0  0  0  2  0  0  0  0  0  0
   23.8600   15.2030   27.7650 C   0  0  0  0  0  2  0  0  0  0  0  0
  1  2  2  0  0  0  0
  1  7  1  0  0  0  0
  3 22  1  0  0  0  0
  3  2  2  0  0  0  0
  4  3  1  0  0  0  0
  5  4  2  0  0  0  0
  5  6  1  0  0  0  0
  6  1  1  0  0  0  0
  7  9  1  0  0  0  0
  7  8  1  0  0  0  0
 10 11  1  0  0  0  0
 10  9  2  0  0  0  0
 11 12  1  0  0  0  0
 12 14  2  0  0  0  0
 12 13  1  0  0  0  0
 14 18  1  0  0  0  0
 15 14  1  0  0  0  0
 16 15  2  0  0  0  0
 17 16  1  0  0  0  0
 17 11  2  0  0  0  0
 18 19  1  0  0  0  0
 20 16  1  0  0  0  0
 21 20  1  0  0  0  0
 22 27  1  0  0  0  0
 23 22  1  0  0  0  0
 24 23  1  0  0  0  0
 24 25  1  0  0  0  0
 25 26  1  0  0  0  0
 26 27  1  0  0  0  0
 28  5  1  0  0  0  0
 29 28  1  0  0  0  0
 30 29  1  0  0  0  0
 30 31  1  0  0  0  0
 32 31  1  0  0  0  0
 32 33  1  0  0  0  0
 33 28  1  0  0  0  0
M  END
>  <Pose>
1

>  <Score>
-9.035

$$$$
