/Users/jonathanwahrer/Desktop/Msc/3_Semester/Drug_Design_Praktikum/waehrer_HTS_screening/HTS_experiment/out/docking_results/vina_output/3elj/0037_docked.pdbqt
 OpenBabel03192217183D

 27 30  0  0  1  0  0  0  0  0999 V2000
   22.5900   10.7260   31.4090 N   0  0  0  0  0  0  0  0  0  0  0  0
   22.5700   11.6280   30.2820 C   0  0  0  0  0  2  0  0  0  0  0  0
   23.7870   12.4860   30.5480 C   0  0  1  0  0  3  0  0  0  0  0  0
   24.8130   11.4310   30.9240 C   0  0  0  0  0  2  0  0  0  0  0  0
   23.9530   10.5360   31.7440 C   0  0  0  0  0  0  0  0  0  0  0  0
   24.3850    9.7370   32.6010 O   0  0  0  0  0  0  0  0  0  0  0  0
   24.1980   13.2560   29.3560 C   0  0  0  0  0  0  0  0  0  0  0  0
   25.1250   12.8560   28.6110 O   0  0  0  0  0  0  0  0  0  0  0  0
   23.5300   14.4610   29.0570 N   0  0  0  0  0  0  0  0  0  0  0  0
   22.7650   14.7990   29.6670 H   0  0  0  0  0  0  0  0  0  0  0  0
   23.8970   15.2430   27.9020 C   0  0  0  0  0  2  0  0  0  0  0  0
   23.3280   16.6180   27.9790 C   0  0  0  0  0  0  0  0  0  0  0  0
   23.3910   17.5980   27.0420 N   0  0  0  0  0  0  0  0  0  0  0  0
   22.7510   18.6890   27.4940 C   0  0  0  0  0  0  0  0  0  0  0  0
   23.9400   17.8130   25.7160 C   0  0  0  0  0  2  0  0  0  0  0  0
   22.2960   18.3520   28.7280 N   0  0  0  0  0  0  0  0  0  0  0  0
   22.8010   19.7950   26.4820 C   0  0  0  0  0  2  0  0  0  0  0  0
   22.6400   17.1140   29.0200 N   0  0  0  0  0  0  0  0  0  0  0  0
   23.8840   19.3160   25.5410 C   0  0  0  0  0  2  0  0  0  0  0  0
   21.4250   10.1730   32.0060 C   0  0  0  0  0  0  0  0  0  0  0  0
   21.0440    8.8540   31.8830 C   0  0  0  0  0  3  0  0  0  0  0  0
   19.9280    8.3050   32.4520 C   0  0  0  0  0  0  0  0  0  0  0  0
   19.1170    9.1430   33.2090 C   0  0  0  0  0  0  0  0  0  0  0  0
   19.5480    6.8740   32.3000 C   0  0  0  0  0  1  0  0  0  0  0  0
   17.5520    8.4110   34.0140 Br  0  0  0  0  0  0  0  0  0  0  0  0
   19.4440   10.4740   33.3690 C   0  0  0  0  0  3  0  0  0  0  0  0
   20.5830   10.9810   32.7740 C   0  0  0  0  0  3  0  0  0  0  0  0
  1  5  1  0  0  0  0
  1 20  1  0  0  0  0
  2  3  1  0  0  0  0
  2  1  1  0  0  0  0
  3  7  1  6  0  0  0
  3  4  1  0  0  0  0
  4  5  1  0  0  0  0
  5  6  2  0  0  0  0
  8  7  2  0  0  0  0
  9  7  1  0  0  0  0
  9 10  1  0  0  0  0
 11 12  1  0  0  0  0
 11  9  1  0  0  0  0
 12 18  2  0  0  0  0
 13 14  1  0  0  0  0
 13 12  1  0  0  0  0
 14 16  2  0  0  0  0
 15 13  1  0  0  0  0
 16 18  1  0  0  0  0
 17 14  1  0  0  0  0
 19 15  1  0  0  0  0
 19 17  1  0  0  0  0
 20 27  1  0  0  0  0
 21 20  2  0  0  0  0
 21 22  1  0  0  0  0
 22 23  2  0  0  0  0
 23 26  1  0  0  0  0
 23 25  1  0  0  0  0
 24 22  1  0  0  0  0
 27 26  2  0  0  0  0
M  END
>  <Pose>
1

>  <Score>
-9.956

$$$$
