MODEL 1
REMARK VINA RESULT:    -7.354      0.000      0.000
REMARK INTER + INTRA:          -8.860
REMARK INTER:                  -8.643
REMARK INTRA:                  -0.217
REMARK UNBOUND:                -0.217
REMARK  3 active torsions:
REMARK  status: ('A' for Active; 'I' for Inactive)
REMARK    1  A    between atoms: C_3  and  N_9 
REMARK       I    between atoms: N_9  and  C_10 
REMARK    2  A    between atoms: C_10  and  C_12 
REMARK    3  A    between atoms: C_12  and  N_13 
ROOT
ATOM      1  N   UNK d   1      22.179  11.322  32.112  0.00  0.00    -0.325 N 
ATOM      2  C   UNK d   1      22.532  11.925  30.904  0.00  0.00     0.248 C 
ATOM      3  O   UNK d   1      22.167  11.457  29.816  0.00  0.00    -0.271 OA
ATOM      4  H   UNK d   1      22.540  11.799  32.992  0.00  0.00     0.169 HD
ENDROOT
BRANCH   2   5
ATOM      5  C   UNK d   1      23.358  13.148  30.930  0.00  0.00     0.340 C 
BRANCH   5   6
ATOM      6  N   UNK d   1      22.651  14.376  31.094  0.00  0.00    -0.054 N 
ATOM      7  C   UNK d   1      22.889  14.843  32.469  0.00  0.00     0.268 C 
ATOM      8  C   UNK d   1      22.678  16.337  32.473  0.00  0.00     0.300 C 
ATOM      9  N   UNK d   1      21.533  16.584  31.597  0.00  0.00     0.093 N 
ATOM     10  C   UNK d   1      22.069  16.555  30.239  0.00  0.00     0.300 C 
ATOM     11  C   UNK d   1      20.603  15.472  31.704  0.00  0.00     0.300 C 
ATOM     12  C   UNK d   1      23.072  15.413  30.156  0.00  0.00     0.268 C 
ATOM     13  C   UNK d   1      21.212  14.261  30.977  0.00  0.00     0.268 C 
ENDBRANCH   5   6
ENDBRANCH   2   5
BRANCH   1  14
ATOM     14  C   UNK d   1      21.403  10.159  32.323  0.00  0.00     0.052 A 
ATOM     15  C   UNK d   1      20.158  10.241  32.963  0.00  0.00     0.038 A 
ATOM     16 Br   UNK d   1      19.606  11.999  33.512  0.00  0.00    -0.049 Br
ATOM     17  C   UNK d   1      19.360   9.148  33.195  0.00  0.00     0.028 A 
ATOM     18  C   UNK d   1      19.741   7.885  32.808  0.00  0.00    -0.061 A 
ATOM     19  C   UNK d   1      20.957   7.779  32.180  0.00  0.00     0.009 A 
ATOM     20  C   UNK d   1      18.881   6.688  33.056  0.00  0.00     0.048 C 
ATOM     21  C   UNK d   1      21.774   8.887  31.941  0.00  0.00     0.031 A 
ENDBRANCH   1  14
TORSDOF 3
ENDMDL
