/Users/jonathanwahrer/Desktop/Msc/3_Semester/Drug_Design_Praktikum/waehrer_HTS_screening/HTS_experiment/out/docking_results/vina_output/3elj/0039_docked.pdbqt
 OpenBabel03192217183D

 21 23  0  0  1  0  0  0  0  0999 V2000
   22.1790   11.3220   32.1120 N   0  0  0  0  0  0  0  0  0  0  0  0
   22.5320   11.9250   30.9040 C   0  0  0  0  0  0  0  0  0  0  0  0
   22.1670   11.4570   29.8160 O   0  0  0  0  0  0  0  0  0  0  0  0
   22.5400   11.7990   32.9920 H   0  0  0  0  0  0  0  0  0  0  0  0
   23.3580   13.1480   30.9300 C   0  0  0  0  0  2  0  0  0  0  0  0
   22.6510   14.3760   31.0940 N   0  0  1  0  0  4  0  0  0  0  0  0
   22.8890   14.8430   32.4690 C   0  0  0  0  0  2  0  0  0  0  0  0
   22.6780   16.3370   32.4730 C   0  0  0  0  0  2  0  0  0  0  0  0
   21.5330   16.5840   31.5970 N   0  0  1  0  0  0  0  0  0  0  0  0
   22.0690   16.5550   30.2390 C   0  0  0  0  0  2  0  0  0  0  0  0
   20.6030   15.4720   31.7040 C   0  0  0  0  0  2  0  0  0  0  0  0
   23.0720   15.4130   30.1560 C   0  0  0  0  0  2  0  0  0  0  0  0
   21.2120   14.2610   30.9770 C   0  0  0  0  0  2  0  0  0  0  0  0
   21.4030   10.1590   32.3230 C   0  0  0  0  0  0  0  0  0  0  0  0
   20.1580   10.2410   32.9630 C   0  0  0  0  0  0  0  0  0  0  0  0
   19.6060   11.9990   33.5120 Br  0  0  0  0  0  0  0  0  0  0  0  0
   19.3600    9.1480   33.1950 C   0  0  0  0  0  3  0  0  0  0  0  0
   19.7410    7.8850   32.8080 C   0  0  0  0  0  0  0  0  0  0  0  0
   20.9570    7.7790   32.1800 C   0  0  0  0  0  3  0  0  0  0  0  0
   18.8810    6.6880   33.0560 C   0  0  0  0  0  1  0  0  0  0  0  0
   21.7740    8.8870   31.9410 C   0  0  0  0  0  3  0  0  0  0  0  0
  1 14  1  0  0  0  0
  1  4  1  0  0  0  0
  2  5  1  0  0  0  0
  2  1  1  0  0  0  0
  3  2  2  0  0  0  0
  6  5  1  6  0  0  0
  6  7  1  0  0  0  0
  7  8  1  0  0  0  0
  9 10  1  6  0  0  0
  9 11  1  0  0  0  0
  9  8  1  0  0  0  0
 12 10  1  0  0  0  0
 12  6  1  0  0  0  0
 13  6  1  0  0  0  0
 13 11  1  0  0  0  0
 14 15  1  0  0  0  0
 15 17  2  0  0  0  0
 15 16  1  0  0  0  0
 18 20  1  0  0  0  0
 18 17  1  0  0  0  0
 19 18  2  0  0  0  0
 21 19  1  0  0  0  0
 21 14  2  0  0  0  0
M  END
>  <Pose>
1

>  <Score>
-7.354

$$$$
