MODEL 1
REMARK VINA RESULT:    -5.686      0.000      0.000
REMARK INTER + INTRA:          -6.395
REMARK INTER:                  -6.185
REMARK INTRA:                  -0.210
REMARK UNBOUND:                -0.210
REMARK  2 active torsions:
REMARK  status: ('A' for Active; 'I' for Inactive)
REMARK    1  A    between atoms: C_3  and  C_8 
REMARK    2  A    between atoms: C_12  and  N_16 
ROOT
ATOM      1  C   UNK d   1      23.059  10.251  31.656  0.00  0.00     0.084 A 
ATOM      2  C   UNK d   1      24.165  10.969  31.196  0.00  0.00     0.166 A 
ATOM      3  C   UNK d   1      24.807  11.277  29.889  0.00  0.00     0.295 C 
ATOM      4  N   UNK d   1      24.117  12.582  29.729  0.00  0.00    -0.209 NA
ATOM      5  C   UNK d   1      22.896  12.437  30.138  0.00  0.00     0.124 C 
ATOM      6  C   UNK d   1      22.746  11.079  30.556  0.00  0.00     0.146 A 
ATOM      7  C   UNK d   1      22.482  10.261  29.334  0.00  0.00     0.080 C 
ATOM      8  N   UNK d   1      22.252   9.603  28.378  0.00  0.00    -0.196 NA
ATOM      9  O   UNK d   1      26.168  11.505  30.116  0.00  0.00    -0.333 OA
ATOM     10  C   UNK d   1      26.865  10.724  29.215  0.00  0.00     0.199 C 
ATOM     11  C   UNK d   1      25.857  10.547  28.092  0.00  0.00     0.199 C 
ATOM     12  O   UNK d   1      24.677  10.425  28.867  0.00  0.00    -0.333 OA
ATOM     13  C   UNK d   1      24.532  12.105  32.115  0.00  0.00     0.080 C 
ATOM     14  N   UNK d   1      24.801  12.992  32.847  0.00  0.00    -0.196 NA
ENDROOT
BRANCH   1  15
ATOM     15  C   UNK d   1      23.122   8.770  31.550  0.00  0.00    -0.032 A 
ATOM     16  C   UNK d   1      22.032   7.974  31.796  0.00  0.00     0.017 A 
ATOM     17 Br   UNK d   1      20.338   8.710  32.278  0.00  0.00    -0.051 Br
ATOM     18  C   UNK d   1      22.174   6.598  31.681  0.00  0.00     0.019 A 
ATOM     19  C   UNK d   1      23.395   6.014  31.323  0.00  0.00     0.001 A 
ATOM     20  C   UNK d   1      24.473   6.830  31.082  0.00  0.00     0.001 A 
ATOM     21  C   UNK d   1      24.324   8.205  31.198  0.00  0.00     0.009 A 
ENDBRANCH   1  15
BRANCH   5  22
ATOM     22  N   UNK d   1      21.886  13.471  30.160  0.00  0.00    -0.386 N 
ATOM     23  H   UNK d   1      20.887  13.241  30.319  0.00  0.00     0.157 HD
ATOM     24  H   UNK d   1      22.144  14.465  30.018  0.00  0.00     0.157 HD
ENDBRANCH   5  22
TORSDOF 2
ENDMDL
