/Users/jonathanwahrer/Desktop/Msc/3_Semester/Drug_Design_Praktikum/waehrer_HTS_screening/HTS_experiment/out/docking_results/vina_output/3elj/0064_docked.pdbqt
 OpenBabel03192217183D

 22 25  0  0  1  0  0  0  0  0999 V2000
   22.9930   11.6270   30.8800 N   0  0  0  0  0  0  0  0  0  0  0  0
   22.8250   10.5400   29.9840 C   0  0  0  0  0  0  0  0  0  0  0  0
   21.8300   10.3790   29.2560 O   0  0  0  0  0  0  0  0  0  0  0  0
   23.9890    9.6250   30.0320 C   0  0  2  0  0  3  0  0  0  0  0  0
   23.6510    8.2690   30.5470 C   0  0  1  0  0  0  0  0  0  0  0  0
   24.5770    8.0250   31.5970 O   0  0  0  0  0  0  0  0  0  0  0  0
   24.3250    9.2270   32.3080 C   0  0  1  0  0  3  0  0  0  0  0  0
   24.7970   10.1920   31.2130 C   0  0  2  0  0  3  0  0  0  0  0  0
   24.3050   11.5580   31.4450 C   0  0  0  0  0  0  0  0  0  0  0  0
   24.8890   12.5040   32.0180 O   0  0  0  0  0  0  0  0  0  0  0  0
   22.8510    9.1810   32.4040 C   0  0  0  0  0  2  0  0  0  0  0  0
   22.4290    8.4190   31.3960 C   0  0  0  0  0  2  0  0  0  0  0  0
   22.0740   12.6520   31.2280 C   0  0  0  0  0  0  0  0  0  0  0  0
   22.0530   13.8950   30.6370 C   0  0  0  0  0  0  0  0  0  0  0  0
   23.3590   14.2300   29.2600 Br  0  0  0  0  0  0  0  0  0  0  0  0
   21.1520   14.8730   30.9950 C   0  0  0  0  0  3  0  0  0  0  0  0
   20.2190   14.6530   31.9730 C   0  0  0  0  0  3  0  0  0  0  0  0
   20.2110   13.4090   32.5920 C   0  0  0  0  0  3  0  0  0  0  0  0
   21.1220   12.4390   32.2200 C   0  0  0  0  0  3  0  0  0  0  0  0
   23.5820    7.1680   29.5760 C   0  0  0  0  0  2  0  0  0  0  0  0
   24.8500    7.0300   28.9800 O   0  0  0  0  0  0  0  0  0  0  0  0
   25.5550    7.2900   29.6420 H   0  0  0  0  0  0  0  0  0  0  0  0
  1 13  1  0  0  0  0
  1  9  1  0  0  0  0
  2  1  1  0  0  0  0
  3  2  2  0  0  0  0
  4  2  1  1  0  0  0
  4  5  1  0  0  0  0
  4  8  1  0  0  0  0
  5 20  1  6  0  0  0
  5 12  1  0  0  0  0
  5  6  1  0  0  0  0
  6  7  1  0  0  0  0
  7 11  1  6  0  0  0
  8  9  1  1  0  0  0
  8  7  1  0  0  0  0
  9 10  2  0  0  0  0
 12 11  1  0  0  0  0
 13 19  1  0  0  0  0
 14 16  1  0  0  0  0
 14 13  2  0  0  0  0
 15 14  1  0  0  0  0
 16 17  2  0  0  0  0
 17 18  1  0  0  0  0
 19 18  2  0  0  0  0
 21 20  1  0  0  0  0
 21 22  1  0  0  0  0
M  END
>  <Pose>
1

>  <Score>
-6.957

$$$$
