MODEL 1
REMARK VINA RESULT:    -6.957      0.000      0.000
REMARK INTER + INTRA:          -8.637
REMARK INTER:                  -7.973
REMARK INTRA:                  -0.664
REMARK UNBOUND:                -0.664
REMARK  3 active torsions:
REMARK  status: ('A' for Active; 'I' for Inactive)
REMARK    1  A    between atoms: C_3  and  N_8 
REMARK    2  A    between atoms: C_12  and  C_20 
REMARK    3  A    between atoms: C_20  and  O_21 
ROOT
ATOM      1  N   UNK d   1      22.993  11.627  30.880  0.00  0.00    -0.250 N 
ATOM      2  C   UNK d   1      22.825  10.540  29.984  0.00  0.00     0.239 C 
ATOM      3  O   UNK d   1      21.830  10.379  29.256  0.00  0.00    -0.272 OA
ATOM      4  C   UNK d   1      23.989   9.625  30.032  0.00  0.00     0.135 C 
ATOM      5  C   UNK d   1      23.651   8.269  30.547  0.00  0.00     0.113 C 
ATOM      6  O   UNK d   1      24.577   8.025  31.597  0.00  0.00    -0.363 OA
ATOM      7  C   UNK d   1      24.325   9.227  32.308  0.00  0.00     0.159 C 
ATOM      8  C   UNK d   1      24.797  10.192  31.213  0.00  0.00     0.128 C 
ATOM      9  C   UNK d   1      24.305  11.558  31.445  0.00  0.00     0.239 C 
ATOM     10  O   UNK d   1      24.889  12.504  32.018  0.00  0.00    -0.272 OA
ATOM     11  C   UNK d   1      22.851   9.181  32.404  0.00  0.00     0.005 C 
ATOM     12  C   UNK d   1      22.429   8.419  31.396  0.00  0.00     0.012 C 
ENDROOT
BRANCH   1  13
ATOM     13  C   UNK d   1      22.074  12.652  31.228  0.00  0.00     0.062 A 
ATOM     14  C   UNK d   1      22.053  13.895  30.637  0.00  0.00     0.038 A 
ATOM     15 Br   UNK d   1      23.359  14.230  29.260  0.00  0.00    -0.049 Br
ATOM     16  C   UNK d   1      21.152  14.873  30.995  0.00  0.00     0.021 A 
ATOM     17  C   UNK d   1      20.219  14.653  31.973  0.00  0.00     0.002 A 
ATOM     18  C   UNK d   1      20.211  13.409  32.592  0.00  0.00     0.002 A 
ATOM     19  C   UNK d   1      21.122  12.439  32.220  0.00  0.00     0.031 A 
ENDBRANCH   1  13
BRANCH   5  20
ATOM     20  C   UNK d   1      23.582   7.168  29.576  0.00  0.00     0.207 C 
BRANCH  20  21
ATOM     21  O   UNK d   1      24.850   7.030  28.980  0.00  0.00    -0.398 OA
ATOM     22  H   UNK d   1      25.555   7.290  29.642  0.00  0.00     0.209 HD
ENDBRANCH  20  21
ENDBRANCH   5  20
TORSDOF 3
ENDMDL
