MODEL 1
REMARK VINA RESULT:    -8.031      0.000      0.000
REMARK INTER + INTRA:          -9.136
REMARK INTER:                  -8.970
REMARK INTRA:                  -0.165
REMARK UNBOUND:                -0.165
REMARK  2 active torsions:
REMARK  status: ('A' for Active; 'I' for Inactive)
REMARK    1  A    between atoms: N_4  and  C_8 
REMARK    2  A    between atoms: C_8  and  C_9 
ROOT
ATOM      1  C   UNK d   1      23.769  11.672  31.075  0.00  0.00     0.168 A 
ATOM      2  N   UNK d   1      24.226  11.888  29.829  0.00  0.00    -0.148 NA
ATOM      3  N   UNK d   1      23.918  13.130  29.452  0.00  0.00    -0.206 N 
ATOM      4  C   UNK d   1      23.253  13.738  30.456  0.00  0.00     0.169 A 
ATOM      5  N   UNK d   1      23.175  12.822  31.439  0.00  0.00    -0.209 NA
ATOM      6  C   UNK d   1      22.829  15.042  30.291  0.00  0.00     0.079 A 
ATOM      7  C   UNK d   1      23.061  15.753  29.131  0.00  0.00     0.162 A 
ATOM      8  N   UNK d   1      22.545  16.994  29.236  0.00  0.00    -0.256 N 
ATOM      9  N   UNK d   1      21.994  17.087  30.431  0.00  0.00    -0.182 NA
ATOM     10  C   UNK d   1      22.144  15.913  31.113  0.00  0.00     0.158 A 
ATOM     11  C   UNK d   1      22.567  18.061  28.250  0.00  0.00     0.182 C 
ATOM     12  N   UNK d   1      23.727  15.110  28.154  0.00  0.00    -0.222 NA
ATOM     13  C   UNK d   1      24.141  13.826  28.323  0.00  0.00     0.239 A 
ENDROOT
BRANCH   1  14
ATOM     14  C   UNK d   1      23.896  10.412  31.887  0.00  0.00     0.233 C 
BRANCH  14  15
ATOM     15  N   UNK d   1      22.604   9.823  32.152  0.00  0.00    -0.265 N 
ATOM     16  C   UNK d   1      22.278   8.550  31.885  0.00  0.00     0.046 A 
ATOM     17  C   UNK d   1      20.976   8.391  32.282  0.00  0.00     0.060 A 
ATOM     18  C   UNK d   1      23.132   7.481  31.277  0.00  0.00     0.071 C 
ATOM     19 Br   UNK d   1      19.939   6.805  32.164  0.00  0.00    -0.047 Br
ATOM     20  C   UNK d   1      20.525   9.582  32.789  0.00  0.00     0.070 A 
ATOM     21  N   UNK d   1      21.568  10.437  32.688  0.00  0.00    -0.176 NA
ATOM     22  C   UNK d   1      19.161   9.895  33.348  0.00  0.00     0.074 C 
ENDBRANCH  14  15
ENDBRANCH   1  14
TORSDOF 2
ENDMDL
