/Users/jonathanwahrer/Desktop/Msc/3_Semester/Drug_Design_Praktikum/waehrer_HTS_screening/HTS_experiment/out/docking_results/vina_output/3elj/0081_docked.pdbqt
 OpenBabel03192217183D

 22 25  0  0  0  0  0  0  0  0999 V2000
   23.7690   11.6720   31.0750 C   0  0  0  0  0  0  0  0  0  0  0  0
   24.2260   11.8880   29.8290 N   0  0  0  0  0  0  0  0  0  0  0  0
   23.9180   13.1300   29.4520 N   0  0  0  0  0  0  0  0  0  0  0  0
   23.2530   13.7380   30.4560 C   0  0  0  0  0  0  0  0  0  0  0  0
   23.1750   12.8220   31.4390 N   0  0  0  0  0  0  0  0  0  0  0  0
   22.8290   15.0420   30.2910 C   0  0  0  0  0  0  0  0  0  0  0  0
   23.0610   15.7530   29.1310 C   0  0  0  0  0  0  0  0  0  0  0  0
   22.5450   16.9940   29.2360 N   0  0  0  0  0  0  0  0  0  0  0  0
   21.9940   17.0870   30.4310 N   0  0  0  0  0  0  0  0  0  0  0  0
   22.1440   15.9130   31.1130 C   0  0  0  0  0  3  0  0  0  0  0  0
   22.5670   18.0610   28.2500 C   0  0  0  0  0  1  0  0  0  0  0  0
   23.7270   15.1100   28.1540 N   0  0  0  0  0  0  0  0  0  0  0  0
   24.1410   13.8260   28.3230 C   0  0  0  0  0  3  0  0  0  0  0  0
   23.8960   10.4120   31.8870 C   0  0  0  0  0  2  0  0  0  0  0  0
   22.6040    9.8230   32.1520 N   0  0  0  0  0  0  0  0  0  0  0  0
   22.2780    8.5500   31.8850 C   0  0  0  0  0  0  0  0  0  0  0  0
   20.9760    8.3910   32.2820 C   0  0  0  0  0  0  0  0  0  0  0  0
   23.1320    7.4810   31.2770 C   0  0  0  0  0  1  0  0  0  0  0  0
   19.9390    6.8050   32.1640 Br  0  0  0  0  0  0  0  0  0  0  0  0
   20.5250    9.5820   32.7890 C   0  0  0  0  0  0  0  0  0  0  0  0
   21.5680   10.4370   32.6880 N   0  0  0  0  0  0  0  0  0  0  0  0
   19.1610    9.8950   33.3480 C   0  0  0  0  0  1  0  0  0  0  0  0
  1  5  1  0  0  0  0
  1 14  1  0  0  0  0
  2  1  2  0  0  0  0
  3  2  1  0  0  0  0
  3  4  1  0  0  0  0
  4  5  2  0  0  0  0
  6  4  1  0  0  0  0
  6 10  1  0  0  0  0
  7  8  1  0  0  0  0
  7  6  2  0  0  0  0
  8  9  1  0  0  0  0
  9 10  2  0  0  0  0
 11  8  1  0  0  0  0
 12 13  2  0  0  0  0
 12  7  1  0  0  0  0
 13  3  1  0  0  0  0
 14 15  1  0  0  0  0
 15 21  1  0  0  0  0
 16 15  1  0  0  0  0
 16 17  2  0  0  0  0
 17 20  1  0  0  0  0
 18 16  1  0  0  0  0
 19 17  1  0  0  0  0
 20 22  1  0  0  0  0
 21 20  2  0  0  0  0
M  END
>  <Pose>
1

>  <Score>
-8.031

$$$$
