MODEL 1
REMARK VINA RESULT:    -8.327      0.000      0.000
REMARK INTER + INTRA:         -10.245
REMARK INTER:                  -9.788
REMARK INTRA:                  -0.458
REMARK UNBOUND:                -0.458
REMARK  3 active torsions:
REMARK  status: ('A' for Active; 'I' for Inactive)
REMARK    1  A    between atoms: C_3  and  C_8 
REMARK       I    between atoms: C_8  and  N_10 
REMARK    2  A    between atoms: N_10  and  C_11 
REMARK    3  A    between atoms: C_17  and  N_20 
ROOT
ATOM      1  C   UNK d   1      22.924  10.306  31.615  0.00  0.00     0.069 A 
ATOM      2  C   UNK d   1      21.740  10.839  32.164  0.00  0.00     0.146 A 
ATOM      3  N   UNK d   1      20.699  10.228  32.791  0.00  0.00    -0.101 NA
ATOM      4  O   UNK d   1      19.850  11.155  33.113  0.00  0.00    -0.106 OA
ATOM      5  N   UNK d   1      20.278  12.319  32.734  0.00  0.00    -0.101 NA
ATOM      6  C   UNK d   1      21.465  12.181  32.130  0.00  0.00     0.146 A 
ATOM      7  C   UNK d   1      22.325  13.097  31.559  0.00  0.00     0.064 A 
ATOM      8  C   UNK d   1      23.484  12.570  31.021  0.00  0.00     0.034 A 
ATOM      9  C   UNK d   1      23.774  11.207  31.050  0.00  0.00     0.034 A 
ENDROOT
BRANCH   1  10
ATOM     10  N   UNK d   1      23.100   8.902  31.708  0.00  0.00    -0.319 N 
ATOM     11  C   UNK d   1      22.917   7.995  30.669  0.00  0.00     0.275 C 
ATOM     12  O   UNK d   1      22.563   8.416  29.505  0.00  0.00    -0.266 OA
ATOM     13  H   UNK d   1      23.410   8.477  32.633  0.00  0.00     0.169 HD
BRANCH  11  14
ATOM     14  C   UNK d   1      23.106   6.535  30.807  0.00  0.00     0.139 A 
ATOM     15  C   UNK d   1      22.317   5.626  31.433  0.00  0.00     0.064 A 
ATOM     16 Br   UNK d   1      20.647   5.887  32.321  0.00  0.00    -0.047 Br
ATOM     17  C   UNK d   1      22.954   4.376  31.300  0.00  0.00     0.160 A 
ATOM     18  N   UNK d   1      24.065   4.617  30.613  0.00  0.00    -0.183 NA
ATOM     19  N   UNK d   1      24.203   5.878  30.296  0.00  0.00    -0.268 N 
ATOM     20  C   UNK d   1      25.289   6.469  29.559  0.00  0.00     0.180 C 
ENDBRANCH  11  14
ENDBRANCH   1  10
BRANCH   7  21
ATOM     21  N   UNK d   1      22.057  14.477  31.516  0.00  0.00    -0.375 N 
ATOM     22  C   UNK d   1      22.387  15.211  30.297  0.00  0.00     0.149 C 
ATOM     23  C   UNK d   1      22.203  16.693  30.474  0.00  0.00     0.187 C 
ATOM     24  O   UNK d   1      22.585  17.202  31.672  0.00  0.00    -0.388 OA
ATOM     25  C   UNK d   1      22.488  16.410  32.778  0.00  0.00     0.187 C 
ATOM     26  C   UNK d   1      21.482  15.305  32.533  0.00  0.00     0.149 C 
ENDBRANCH   7  21
TORSDOF 3
ENDMDL
