MODEL 1
REMARK VINA RESULT:    -8.726      0.000      0.000
REMARK INTER + INTRA:         -10.925
REMARK INTER:                 -10.767
REMARK INTRA:                  -0.158
REMARK UNBOUND:                -0.158
REMARK  4 active torsions:
REMARK  status: ('A' for Active; 'I' for Inactive)
REMARK    1  A    between atoms: C_4  and  C_13 
REMARK    2  A    between atoms: C_5  and  N_8 
REMARK       I    between atoms: C_13  and  N_15 
REMARK    3  A    between atoms: N_15  and  C_16 
REMARK    4  A    between atoms: C_16  and  C_17 
ROOT
ATOM      1  C   UNK d   1      22.757   9.760  29.844  0.00  0.00     0.254 C 
ATOM      2  O   UNK d   1      22.730   9.637  28.577  0.00  0.00    -0.268 OA
ATOM      3  N   UNK d   1      22.746   8.734  30.759  0.00  0.00    -0.350 N 
ATOM      4  H   UNK d   1      22.691   7.819  29.751  0.00  0.00     0.163 HD
ENDROOT
BRANCH   1   5
ATOM      5  C   UNK d   1      22.804  11.181  30.355  0.00  0.00     0.062 A 
ATOM      6  C   UNK d   1      21.738  11.738  31.014  0.00  0.00     0.038 A 
ATOM      7  C   UNK d   1      21.836  13.063  31.455  0.00  0.00     0.012 A 
ATOM      8 Br   UNK d   1      20.378  13.855  32.366  0.00  0.00    -0.051 Br
ATOM      9  C   UNK d   1      22.979  13.791  31.230  0.00  0.00     0.021 A 
ATOM     10  C   UNK d   1      24.051  13.230  30.566  0.00  0.00     0.034 A 
ATOM     11  C   UNK d   1      23.948  11.899  30.127  0.00  0.00     0.077 A 
BRANCH  11  12
ATOM     12  N   UNK d   1      25.011  11.258  29.447  0.00  0.00    -0.205 N 
ATOM     13  N   UNK d   1      25.329  11.501  28.190  0.00  0.00    -0.040 NA
ATOM     14  N   UNK d   1      26.355  10.766  27.816  0.00  0.00    -0.023 NA
ATOM     15  N   UNK d   1      26.724  10.021  28.845  0.00  0.00    -0.122 NA
ATOM     16  C   UNK d   1      25.892  10.328  29.846  0.00  0.00     0.262 A 
ENDBRANCH  11  12
ENDBRANCH   1   5
BRANCH   3  17
ATOM     17  C   UNK d   1      22.736   7.713  31.667  0.00  0.00     0.203 C 
BRANCH  17  18
ATOM     18  C   UNK d   1      21.348   7.175  31.976  0.00  0.00     0.152 A 
ATOM     19  N   UNK d   1      20.341   7.894  32.518  0.00  0.00    -0.290 N 
ATOM     20  C   UNK d   1      19.252   7.128  32.661  0.00  0.00     0.157 A 
ATOM     21  C   UNK d   1      20.297   9.199  32.908  0.00  0.00     0.100 A 
ATOM     22  N   UNK d   1      19.594   5.916  32.197  0.00  0.00    -0.130 NA
ATOM     23  C   UNK d   1      18.074   7.657  33.205  0.00  0.00     0.053 A 
ATOM     24  N   UNK d   1      20.869   5.942  31.780  0.00  0.00    -0.132 NA
ATOM     25  C   UNK d   1      18.024   8.966  33.597  0.00  0.00     0.005 A 
ATOM     26  C   UNK d   1      19.147   9.755  33.449  0.00  0.00     0.018 A 
ENDBRANCH  17  18
ENDBRANCH   3  17
TORSDOF 4
ENDMDL
