/Users/jonathanwahrer/Desktop/Msc/3_Semester/Drug_Design_Praktikum/waehrer_HTS_screening/HTS_experiment/out/docking_results/vina_output/3elj/0095_docked.pdbqt
 OpenBabel03192217183D

 26 29  0  0  0  0  0  0  0  0999 V2000
   22.7570    9.7600   29.8440 C   0  0  0  0  0  0  0  0  0  0  0  0
   22.7300    9.6370   28.5770 O   0  0  0  0  0  0  0  0  0  0  0  0
   22.7460    8.7340   30.7590 N   0  0  0  0  0  0  0  0  0  0  0  0
   22.6910    7.8190   29.7510 H   0  0  0  0  0  0  0  0  0  0  0  0
   22.8040   11.1810   30.3550 C   0  0  0  0  0  0  0  0  0  0  0  0
   21.7380   11.7380   31.0140 C   0  0  0  0  0  3  0  0  0  0  0  0
   21.8360   13.0630   31.4550 C   0  0  0  0  0  0  0  0  0  0  0  0
   20.3780   13.8550   32.3660 Br  0  0  0  0  0  0  0  0  0  0  0  0
   22.9790   13.7910   31.2300 C   0  0  0  0  0  3  0  0  0  0  0  0
   24.0510   13.2300   30.5660 C   0  0  0  0  0  3  0  0  0  0  0  0
   23.9480   11.8990   30.1270 C   0  0  0  0  0  0  0  0  0  0  0  0
   25.0110   11.2580   29.4470 N   0  0  0  0  0  0  0  0  0  0  0  0
   25.3290   11.5010   28.1900 N   0  0  0  0  0  0  0  0  0  0  0  0
   26.3550   10.7660   27.8160 N   0  0  0  0  0  0  0  0  0  0  0  0
   26.7240   10.0210   28.8450 N   0  0  0  0  0  0  0  0  0  0  0  0
   25.8920   10.3280   29.8460 C   0  0  0  0  0  3  0  0  0  0  0  0
   22.7360    7.7130   31.6670 C   0  0  0  0  0  2  0  0  0  0  0  0
   21.3480    7.1750   31.9760 C   0  0  0  0  0  0  0  0  0  0  0  0
   20.3410    7.8940   32.5180 N   0  0  0  0  0  0  0  0  0  0  0  0
   19.2520    7.1280   32.6610 C   0  0  0  0  0  0  0  0  0  0  0  0
   20.2970    9.1990   32.9080 C   0  0  0  0  0  3  0  0  0  0  0  0
   19.5940    5.9160   32.1970 N   0  0  0  0  0  0  0  0  0  0  0  0
   18.0740    7.6570   33.2050 C   0  0  0  0  0  3  0  0  0  0  0  0
   20.8690    5.9420   31.7800 N   0  0  0  0  0  0  0  0  0  0  0  0
   18.0240    8.9660   33.5970 C   0  0  0  0  0  3  0  0  0  0  0  0
   19.1470    9.7550   33.4490 C   0  0  0  0  0  3  0  0  0  0  0  0
  1  5  1  0  0  0  0
  1  3  1  0  0  0  0
  2  1  2  0  0  0  0
  3 17  1  0  0  0  0
  4  3  1  0  0  0  0
  5  6  1  0  0  0  0
  6  7  2  0  0  0  0
  7  8  1  0  0  0  0
  9  7  1  0  0  0  0
 10  9  2  0  0  0  0
 11  5  2  0  0  0  0
 11 10  1  0  0  0  0
 12 16  1  0  0  0  0
 12 11  1  0  0  0  0
 13 12  1  0  0  0  0
 14 13  2  0  0  0  0
 14 15  1  0  0  0  0
 15 16  2  0  0  0  0
 17 18  1  0  0  0  0
 18 19  1  0  0  0  0
 19 20  1  0  0  0  0
 19 21  1  0  0  0  0
 20 23  1  0  0  0  0
 21 26  2  0  0  0  0
 22 20  2  0  0  0  0
 23 25  2  0  0  0  0
 24 18  2  0  0  0  0
 24 22  1  0  0  0  0
 26 25  1  0  0  0  0
M  END
>  <Pose>
1

>  <Score>
-8.726

$$$$
