MODEL 1
REMARK VINA RESULT:    -9.263      0.000      0.000
REMARK INTER + INTRA:         -12.371
REMARK INTER:                 -11.429
REMARK INTRA:                  -0.942
REMARK UNBOUND:                -0.942
REMARK  4 active torsions:
REMARK  status: ('A' for Active; 'I' for Inactive)
REMARK    1  A    between atoms: C_4  and  C_10 
REMARK    2  A    between atoms: C_5  and  O_8 
REMARK    3  A    between atoms: C_18  and  C_19 
REMARK    4  A    between atoms: C_19  and  N_20 
ROOT
ATOM      1  C   UNK d   1      21.546   5.335  32.071  0.00  0.00     0.055 C 
ATOM      2  C   UNK d   1      21.059   6.520  32.318  0.00  0.00     0.128 A 
ATOM      3  O   UNK d   1      21.751   7.707  32.136  0.00  0.00    -0.305 OA
ATOM      4  C   UNK d   1      20.988   8.807  32.481  0.00  0.00     0.101 A 
ATOM      5  C   UNK d   1      19.742   8.414  32.914  0.00  0.00     0.051 A 
ATOM      6  C   UNK d   1      18.817   9.357  33.309  0.00  0.00     0.021 A 
ATOM      7  C   UNK d   1      19.152  10.693  33.268  0.00  0.00     0.041 A 
ATOM      8  C   UNK d   1      20.434  11.069  32.821  0.00  0.00     0.118 A 
ATOM      9  C   UNK d   1      21.363  10.157  32.425  0.00  0.00     0.039 A 
ATOM     10  O   UNK d   1      20.633  12.459  32.835  0.00  0.00    -0.191 OA
ATOM     11  C   UNK d   1      19.751   6.950  32.822  0.00  0.00     0.218 A 
ATOM     12  O   UNK d   1      18.809   6.183  33.121  0.00  0.00    -0.284 OA
ENDROOT
BRANCH   1  13
ATOM     13  C   UNK d   1      22.877   5.037  31.572  0.00  0.00     0.001 A 
ATOM     14  C   UNK d   1      23.452   5.716  30.520  0.00  0.00     0.033 A 
ATOM     15  C   UNK d   1      24.695   5.443  30.026  0.00  0.00     0.011 A 
ATOM     16 Br   UNK d   1      25.518   6.361  28.574  0.00  0.00    -0.051 Br
ATOM     17  C   UNK d   1      25.410   4.415  30.632  0.00  0.00     0.022 A 
ATOM     18  C   UNK d   1      24.883   3.694  31.697  0.00  0.00     0.039 A 
ATOM     19  C   UNK d   1      23.632   4.011  32.149  0.00  0.00     0.078 A 
BRANCH  19  20
ATOM     20  O   UNK d   1      23.077   3.311  33.203  0.00  0.00    -0.355 OA
ATOM     21  C   UNK d   1      23.751   2.213  33.758  0.00  0.00     0.210 C 
ENDBRANCH  19  20
ENDBRANCH   1  13
BRANCH   9  22
ATOM     22  C   UNK d   1      22.677  10.482  31.942  0.00  0.00     0.279 C 
BRANCH  22  23
ATOM     23  N   UNK d   1      23.039  10.384  30.588  0.00  0.00    -0.063 N 
ATOM     24  C   UNK d   1      23.239  11.630  29.900  0.00  0.00     0.261 C 
ATOM     25  C   UNK d   1      24.601  12.242  30.117  0.00  0.00     0.195 C 
ATOM     26  O   UNK d   1      25.378  11.555  31.041  0.00  0.00    -0.388 OA
ATOM     27  C   UNK d   1      25.513  10.260  30.552  0.00  0.00     0.195 C 
ATOM     28  C   UNK d   1      24.223   9.529  30.384  0.00  0.00     0.261 C 
ATOM     29  H   UNK d   1      22.300   9.862  30.075  0.00  0.00     0.280 HD
ENDBRANCH  22  23
ENDBRANCH   9  22
TORSDOF 4
ENDMDL
