/Users/jonathanwahrer/Desktop/Msc/3_Semester/Drug_Design_Praktikum/waehrer_HTS_screening/HTS_experiment/out/docking_results/vina_output/3elj/0127_docked.pdbqt
 OpenBabel03192217193D

 29 32  0  0  0  0  0  0  0  0999 V2000
   24.3240    9.8730   30.9330 N   0  0  0  0  0  0  0  0  0  0  0  0
   24.5300   10.7670   32.0110 C   0  0  0  0  0  2  0  0  0  0  0  0
   24.4230   12.2090   31.6900 C   0  0  0  0  0  2  0  0  0  0  0  0
   23.1990   12.4990   31.0150 N   0  0  0  0  0  0  0  0  0  0  0  0
   22.5200   11.4310   30.3390 C   0  0  0  0  0  2  0  0  0  0  0  0
   23.4270   10.2980   29.9160 C   0  0  0  0  0  2  0  0  0  0  0  0
   22.6500   13.8080   30.9670 C   0  0  0  0  0  0  0  0  0  0  0  0
   22.9820   14.5880   29.9410 C   0  0  0  0  0  0  0  0  0  0  0  0
   23.8040   14.4450   28.7960 N   0  0  0  0  0  0  0  0  0  0  0  0
   22.3870   15.9420   29.9290 C   0  0  0  0  0  0  0  0  0  0  0  0
   23.7050   15.6800   28.1140 N   0  0  0  0  0  0  0  0  0  0  0  0
   24.5740   13.2870   28.4130 C   0  0  0  0  0  1  0  0  0  0  0  0
   22.8450   16.5370   28.8380 C   0  0  0  0  0  0  0  0  0  0  0  0
   24.2160   15.8570   27.2240 H   0  0  0  0  0  0  0  0  0  0  0  0
   22.4650   17.9290   28.4760 C   0  0  0  0  0  1  0  0  0  0  0  0
   21.5140   16.3440   30.9790 N   0  0  0  0  0  0  0  0  0  0  0  0
   21.2240   15.5500   31.9490 C   0  0  0  0  0  3  0  0  0  0  0  0
   21.7600   14.2490   32.0130 N   0  0  0  0  0  0  0  0  0  0  0  0
   21.5570   13.5760   32.7720 H   0  0  0  0  0  0  0  0  0  0  0  0
   24.3160    8.4970   31.2430 C   0  0  0  0  0  2  0  0  0  0  0  0
   23.2240    7.7470   30.6200 C   0  0  0  0  0  0  0  0  0  0  0  0
   23.3330    7.3940   29.4170 O   0  0  0  0  0  0  0  0  0  0  0  0
   22.0400    7.4310   31.4110 C   0  0  0  0  0  0  0  0  0  0  0  0
   21.2810    8.4290   31.9630 C   0  0  0  0  0  3  0  0  0  0  0  0
   20.1480    8.1630   32.7220 C   0  0  0  0  0  0  0  0  0  0  0  0
   19.0960    9.5520   33.4860 Br  0  0  0  0  0  0  0  0  0  0  0  0
   19.7740    6.8540   32.9300 C   0  0  0  0  0  3  0  0  0  0  0  0
   20.5520    5.8530   32.3640 C   0  0  0  0  0  3  0  0  0  0  0  0
   21.6700    6.1220   31.6150 C   0  0  0  0  0  3  0  0  0  0  0  0
  1 20  1  0  0  0  0
  1  2  1  0  0  0  0
  3  2  1  0  0  0  0
  4  3  1  0  0  0  0
  5  4  1  0  0  0  0
  6  5  1  0  0  0  0
  6  1  1  0  0  0  0
  7  4  1  0  0  0  0
  7 18  1  0  0  0  0
  8  7  2  0  0  0  0
  9  8  1  0  0  0  0
 10  8  1  0  0  0  0
 10 16  1  0  0  0  0
 11  9  1  0  0  0  0
 11 13  1  0  0  0  0
 12  9  1  0  0  0  0
 13 10  2  0  0  0  0
 14 11  1  0  0  0  0
 15 13  1  0  0  0  0
 16 17  2  0  0  0  0
 17 18  1  0  0  0  0
 18 19  1  0  0  0  0
 21 20  1  0  0  0  0
 21 23  1  0  0  0  0
 22 21  2  0  0  0  0
 23 29  2  0  0  0  0
 23 24  1  0  0  0  0
 24 25  2  0  0  0  0
 25 27  1  0  0  0  0
 25 26  1  0  0  0  0
 28 27  2  0  0  0  0
 29 28  1  0  0  0  0
M  END
>  <Pose>
1

>  <Score>
-9.440

$$$$
