MODEL 1
REMARK VINA RESULT:    -8.278      0.000      0.000
REMARK INTER + INTRA:         -10.170
REMARK INTER:                  -9.730
REMARK INTRA:                  -0.440
REMARK UNBOUND:                -0.440
REMARK  3 active torsions:
REMARK  status: ('A' for Active; 'I' for Inactive)
REMARK    1  A    between atoms: C_4  and  C_8 
REMARK       I    between atoms: C_8  and  N_10 
REMARK    2  A    between atoms: N_10  and  C_11 
REMARK    3  A    between atoms: C_11  and  C_13 
REMARK       I    between atoms: C_13  and  N_15 
ROOT
ATOM      1  C   UNK d   1      23.300   6.491  30.106  0.00  0.00     0.242 C 
ATOM      2  O   UNK d   1      22.875   7.102  29.076  0.00  0.00    -0.271 OA
ATOM      3  N   UNK d   1      24.624   5.966  30.141  0.00  0.00    -0.350 N 
ATOM      4  C   UNK d   1      25.099   5.126  31.211  0.00  0.00     0.129 C 
ATOM      5  C   UNK d   1      25.338   3.771  30.505  0.00  0.00     0.068 C 
ATOM      6  C   UNK d   1      26.588   3.980  29.694  0.00  0.00     0.204 C 
ATOM      7  N   UNK d   1      26.649   2.877  28.736  0.00  0.00     0.099 N 
ATOM      8  C   UNK d   1      26.629   1.601  29.347  0.00  0.00     0.277 C 
ATOM      9  C   UNK d   1      27.840   1.342  30.225  0.00  0.00     0.091 C 
ATOM     10  C   UNK d   1      28.314   2.573  30.884  0.00  0.00     0.062 A 
ATOM     11  N   UNK d   1      29.307   2.732  31.774  0.00  0.00    -0.246 NA
ATOM     12  C   UNK d   1      29.366   4.047  32.080  0.00  0.00     0.207 A 
ATOM     13  N   UNK d   1      28.402   4.688  31.372  0.00  0.00    -0.350 N 
ATOM     14  C   UNK d   1      27.729   3.796  30.620  0.00  0.00     0.074 A 
ATOM     15  C   UNK d   1      26.650   5.257  28.933  0.00  0.00     0.068 C 
ATOM     16  C   UNK d   1      25.542   6.242  29.094  0.00  0.00     0.129 C 
ATOM     17  H   UNK d   1      27.439   2.991  28.051  0.00  0.00     0.317 HD
ATOM     18  H   UNK d   1      28.299   5.717  31.479  0.00  0.00     0.166 HD
ENDROOT
BRANCH   1  19
ATOM     19  C   UNK d   1      22.366   6.350  31.214  0.00  0.00     0.173 C 
ATOM     20  C   UNK d   1      21.439   5.172  30.957  0.00  0.00     0.042 C 
BRANCH  19  21
ATOM     21  N   UNK d   1      21.715   7.552  31.586  0.00  0.00    -0.344 N 
ATOM     22  C   UNK d   1      22.356   8.715  32.002  0.00  0.00     0.252 C 
ATOM     23  O   UNK d   1      23.543   8.976  32.097  0.00  0.00    -0.268 OA
ATOM     24  H   UNK d   1      20.656   7.551  31.481  0.00  0.00     0.163 HD
BRANCH  22  25
ATOM     25  C   UNK d   1      21.402   9.814  32.407  0.00  0.00     0.033 A 
ATOM     26  C   UNK d   1      21.735  11.102  32.045  0.00  0.00     0.036 A 
ATOM     27  C   UNK d   1      20.918  12.140  32.425  0.00  0.00     0.011 A 
ATOM     28 Br   UNK d   1      21.369  13.941  31.910  0.00  0.00    -0.051 Br
ATOM     29  C   UNK d   1      19.771  11.937  33.164  0.00  0.00     0.019 A 
ATOM     30  C   UNK d   1      19.485  10.614  33.506  0.00  0.00     0.002 A 
ATOM     31  C   UNK d   1      20.283   9.566  33.135  0.00  0.00     0.017 A 
ENDBRANCH  22  25
ENDBRANCH  19  21
ENDBRANCH   1  19
TORSDOF 3
ENDMDL
