MODEL 1
REMARK VINA RESULT:    -8.380      0.000      0.000
REMARK INTER + INTRA:         -10.241
REMARK INTER:                  -9.850
REMARK INTRA:                  -0.391
REMARK UNBOUND:                -0.391
REMARK  3 active torsions:
REMARK  status: ('A' for Active; 'I' for Inactive)
REMARK    1  A    between atoms: C_4  and  C_8 
REMARK       I    between atoms: C_8  and  N_10 
REMARK    2  A    between atoms: N_10  and  C_11 
REMARK    3  A    between atoms: C_11  and  C_12 
REMARK       I    between atoms: C_12  and  N_14 
ROOT
ATOM      1  C   UNK d   1      23.807   9.687  31.810  0.00  0.00     0.237 C 
ATOM      2  O   UNK d   1      24.669   9.666  32.758  0.00  0.00    -0.272 OA
ATOM      3  N   UNK d   1      23.754  10.745  30.894  0.00  0.00    -0.351 N 
ATOM      4  C   UNK d   1      22.805  10.804  29.828  0.00  0.00     0.129 C 
ATOM      5  C   UNK d   1      22.336  12.203  29.545  0.00  0.00     0.068 C 
ATOM      6  C   UNK d   1      22.511  13.176  30.691  0.00  0.00     0.204 C 
ATOM      7  N   UNK d   1      22.272  14.477  30.080  0.00  0.00     0.099 N 
ATOM      8  C   UNK d   1      22.164  15.571  30.967  0.00  0.00     0.277 C 
ATOM      9  C   UNK d   1      21.896  15.283  32.398  0.00  0.00     0.091 C 
ATOM     10  C   UNK d   1      21.156  13.994  32.575  0.00  0.00     0.062 A 
ATOM     11  N   UNK d   1      20.208  13.624  33.434  0.00  0.00    -0.246 NA
ATOM     12  C   UNK d   1      19.912  12.344  33.126  0.00  0.00     0.207 A 
ATOM     13  N   UNK d   1      20.670  11.925  32.089  0.00  0.00    -0.350 N 
ATOM     14  C   UNK d   1      21.472  12.966  31.723  0.00  0.00     0.074 A 
ATOM     15  C   UNK d   1      23.879  13.136  31.322  0.00  0.00     0.068 C 
ATOM     16  C   UNK d   1      24.664  11.882  30.984  0.00  0.00     0.129 C 
ATOM     17  H   UNK d   1      23.085  14.594  29.409  0.00  0.00     0.317 HD
ATOM     18  H   UNK d   1      20.639  10.984  31.660  0.00  0.00     0.166 HD
ENDROOT
BRANCH   1  19
ATOM     19  C   UNK d   1      22.882   8.497  31.781  0.00  0.00     0.225 C 
BRANCH  19  20
ATOM     20  N   UNK d   1      23.419   7.453  31.044  0.00  0.00    -0.348 N 
ATOM     21  C   UNK d   1      23.932   6.457  30.341  0.00  0.00     0.252 C 
ATOM     22  O   UNK d   1      24.138   6.393  29.077  0.00  0.00    -0.268 OA
ATOM     23  H   UNK d   1      23.258   8.202  29.892  0.00  0.00     0.163 HD
BRANCH  21  24
ATOM     24  C   UNK d   1      24.345   5.208  31.073  0.00  0.00     0.033 A 
ATOM     25  C   UNK d   1      25.640   4.762  31.052  0.00  0.00     0.036 A 
ATOM     26  C   UNK d   1      26.002   3.592  31.703  0.00  0.00     0.011 A 
ATOM     27 Br   UNK d   1      27.798   3.017  31.653  0.00  0.00    -0.051 Br
ATOM     28  C   UNK d   1      25.016   2.902  32.364  0.00  0.00     0.019 A 
ATOM     29  C   UNK d   1      23.711   3.356  32.384  0.00  0.00     0.002 A 
ATOM     30  C   UNK d   1      23.355   4.538  31.725  0.00  0.00     0.017 A 
ENDBRANCH  21  24
ENDBRANCH  19  20
ENDBRANCH   1  19
TORSDOF 3
ENDMDL
