/Users/jonathanwahrer/Desktop/Msc/3_Semester/Drug_Design_Praktikum/waehrer_HTS_screening/HTS_experiment/out/docking_results/vina_output/3elj/0130_docked.pdbqt
 OpenBabel03192217203D

 30 33  0  0  1  0  0  0  0  0999 V2000
   23.8070    9.6870   31.8100 C   0  0  0  0  0  0  0  0  0  0  0  0
   24.6690    9.6660   32.7580 O   0  0  0  0  0  0  0  0  0  0  0  0
   23.7540   10.7450   30.8940 N   0  0  0  0  0  0  0  0  0  0  0  0
   22.8050   10.8040   29.8280 C   0  0  0  0  0  2  0  0  0  0  0  0
   22.3360   12.2030   29.5450 C   0  0  0  0  0  2  0  0  0  0  0  0
   22.5110   13.1760   30.6910 C   0  0  1  0  0  0  0  0  0  0  0  0
   22.2720   14.4770   30.0800 N   0  0  0  0  0  0  0  0  0  0  0  0
   22.1640   15.5710   30.9670 C   0  0  0  0  0  2  0  0  0  0  0  0
   21.8960   15.2830   32.3980 C   0  0  0  0  0  2  0  0  0  0  0  0
   21.1560   13.9940   32.5750 C   0  0  0  0  0  0  0  0  0  0  0  0
   20.2080   13.6240   33.4340 N   0  0  0  0  0  0  0  0  0  0  0  0
   19.9120   12.3440   33.1260 C   0  0  0  0  0  3  0  0  0  0  0  0
   20.6700   11.9250   32.0890 N   0  0  0  0  0  0  0  0  0  0  0  0
   21.4720   12.9660   31.7230 C   0  0  0  0  0  0  0  0  0  0  0  0
   23.8790   13.1360   31.3220 C   0  0  0  0  0  2  0  0  0  0  0  0
   24.6640   11.8820   30.9840 C   0  0  0  0  0  2  0  0  0  0  0  0
   23.0850   14.5940   29.4090 H   0  0  0  0  0  0  0  0  0  0  0  0
   20.6390   10.9840   31.6600 H   0  0  0  0  0  0  0  0  0  0  0  0
   22.8820    8.4970   31.7810 C   0  0  0  0  0  2  0  0  0  0  0  0
   23.4190    7.4530   31.0440 N   0  0  0  0  0  0  0  0  0  0  0  0
   23.9320    6.4570   30.3410 C   0  0  0  0  0  0  0  0  0  0  0  0
   24.1380    6.3930   29.0770 O   0  0  0  0  0  0  0  0  0  0  0  0
   23.2580    8.2020   29.8920 H   0  0  0  0  0  0  0  0  0  0  0  0
   24.3450    5.2080   31.0730 C   0  0  0  0  0  0  0  0  0  0  0  0
   25.6400    4.7620   31.0520 C   0  0  0  0  0  3  0  0  0  0  0  0
   26.0020    3.5920   31.7030 C   0  0  0  0  0  0  0  0  0  0  0  0
   27.7980    3.0170   31.6530 Br  0  0  0  0  0  0  0  0  0  0  0  0
   25.0160    2.9020   32.3640 C   0  0  0  0  0  3  0  0  0  0  0  0
   23.7110    3.3560   32.3840 C   0  0  0  0  0  3  0  0  0  0  0  0
   23.3550    4.5380   31.7250 C   0  0  0  0  0  3  0  0  0  0  0  0
  1  2  2  0  0  0  0
  3 16  1  0  0  0  0
  3  1  1  0  0  0  0
  4  3  1  0  0  0  0
  5  4  1  0  0  0  0
  6  5  1  6  0  0  0
  6 15  1  0  0  0  0
  6 14  1  0  0  0  0
  7  6  1  0  0  0  0
  7  8  1  0  0  0  0
  8  9  1  0  0  0  0
  9 10  1  0  0  0  0
 10 11  1  0  0  0  0
 12 11  2  0  0  0  0
 13 12  1  0  0  0  0
 14 13  1  0  0  0  0
 14 10  2  0  0  0  0
 16 15  1  0  0  0  0
 17  7  1  0  0  0  0
 18 13  1  0  0  0  0
 19  1  1  0  0  0  0
 20 19  1  0  0  0  0
 21 20  1  0  0  0  0
 21 24  1  0  0  0  0
 22 21  2  0  0  0  0
 23 20  1  0  0  0  0
 24 30  1  0  0  0  0
 25 24  2  0  0  0  0
 25 26  1  0  0  0  0
 26 28  2  0  0  0  0
 27 26  1  0  0  0  0
 28 29  1  0  0  0  0
 30 29  2  0  0  0  0
M  END
>  <Pose>
1

>  <Score>
-8.380

$$$$
