/Users/jonathanwahrer/Desktop/Msc/3_Semester/Drug_Design_Praktikum/waehrer_HTS_screening/HTS_experiment/out/docking_results/vina_output/3elj/0136_docked.pdbqt
 OpenBabel03192217203D

 30 33  0  0  1  0  0  0  0  0999 V2000
   23.5250    6.7810   30.6490 C   0  0  2  0  0  3  0  0  0  0  0  0
   24.3010    7.9570   31.2100 C   0  0  0  0  0  2  0  0  0  0  0  0
   23.2710    8.9590   31.4090 N   0  0  0  0  0  0  0  0  0  0  0  0
   21.9520    8.3950   31.2060 C   0  0  1  0  0  3  0  0  0  0  0  0
   22.2220    6.8950   31.3880 C   0  0  0  0  0  2  0  0  0  0  0  0
   21.0590    8.9150   32.2390 C   0  0  0  0  0  0  0  0  0  0  0  0
   20.3840    8.1590   32.9530 O   0  0  0  0  0  0  0  0  0  0  0  0
   20.9840   10.3220   32.4040 N   0  0  0  0  0  0  0  0  0  0  0  0
   22.1150   11.1430   32.0360 C   0  0  1  0  0  3  0  0  0  0  0  0
   23.3330   10.3500   31.7560 C   0  0  0  0  0  0  0  0  0  0  0  0
   24.4640   10.8990   31.8210 O   0  0  0  0  0  0  0  0  0  0  0  0
   20.1360   10.7990   32.7870 H   0  0  0  0  0  0  0  0  0  0  0  0
   24.2070    5.5250   30.9010 N   0  0  0  0  0  0  0  0  0  0  0  0
   24.9010    4.9340   29.8250 C   0  0  0  0  0  0  0  0  0  0  0  0
   24.9050    5.5170   28.6790 O   0  0  0  0  0  0  0  0  0  0  0  0
   24.1950    5.0600   31.8190 H   0  0  0  0  0  0  0  0  0  0  0  0
   25.6190    3.6790   29.9630 C   0  0  0  0  0  0  0  0  0  0  0  0
   26.1010    3.0180   28.8400 C   0  0  0  0  0  3  0  0  0  0  0  0
   26.7820    1.8380   28.9650 C   0  0  0  0  0  0  0  0  0  0  0  0
   27.4410    0.9370   27.4110 Br  0  0  0  0  0  0  0  0  0  0  0  0
   27.0120    1.2720   30.1860 C   0  0  0  0  0  3  0  0  0  0  0  0
   26.5380    1.9240   31.2980 C   0  0  0  0  0  3  0  0  0  0  0  0
   25.8460    3.1200   31.1820 C   0  0  0  0  0  3  0  0  0  0  0  0
   21.7930   12.1050   30.9120 C   0  0  0  0  0  2  0  0  0  0  0  0
   21.7360   13.5100   31.3490 C   0  0  0  0  0  0  0  0  0  0  0  0
   22.8510   14.0990   31.9170 C   0  0  0  0  0  3  0  0  0  0  0  0
   22.8060   15.4120   32.3280 C   0  0  0  0  0  3  0  0  0  0  0  0
   21.6740   16.1950   32.2010 C   0  0  0  0  0  3  0  0  0  0  0  0
   20.5610   15.6100   31.6360 C   0  0  0  0  0  3  0  0  0  0  0  0
   20.5880   14.2940   31.2180 C   0  0  0  0  0  3  0  0  0  0  0  0
  1 13  1  1  0  0  0
  1  2  1  0  0  0  0
  1  5  1  0  0  0  0
  2  3  1  0  0  0  0
  3 10  1  0  0  0  0
  4  5  1  1  0  0  0
  4  3  1  0  0  0  0
  4  6  1  0  0  0  0
  6  8  1  0  0  0  0
  6  7  2  0  0  0  0
  8 12  1  0  0  0  0
  9 24  1  6  0  0  0
  9  8  1  0  0  0  0
 10 11  2  0  0  0  0
 10  9  1  0  0  0  0
 13 16  1  0  0  0  0
 14 17  1  0  0  0  0
 14 13  1  0  0  0  0
 15 14  2  0  0  0  0
 17 23  1  0  0  0  0
 18 19  1  0  0  0  0
 18 17  2  0  0  0  0
 19 21  2  0  0  0  0
 20 19  1  0  0  0  0
 21 22  1  0  0  0  0
 23 22  2  0  0  0  0
 24 25  1  0  0  0  0
 25 26  1  0  0  0  0
 26 27  2  0  0  0  0
 28 27  1  0  0  0  0
 29 28  2  0  0  0  0
 30 25  2  0  0  0  0
 30 29  1  0  0  0  0
M  END
>  <Pose>
1

>  <Score>
-8.305

$$$$
