MODEL 1
REMARK VINA RESULT:    -8.695      0.000      0.000
REMARK INTER + INTRA:         -10.210
REMARK INTER:                  -9.712
REMARK INTRA:                  -0.499
REMARK UNBOUND:                -0.499
REMARK  2 active torsions:
REMARK  status: ('A' for Active; 'I' for Inactive)
REMARK    1  A    between atoms: C_4  and  C_8 
REMARK       I    between atoms: C_8  and  N_10 
REMARK    2  A    between atoms: N_10  and  C_11 
ROOT
ATOM      1  C   UNK d   1      23.053  11.391  31.636  0.00  0.00     0.105 C 
ATOM      2  C   UNK d   1      22.852  11.918  30.168  0.00  0.00     0.152 C 
ATOM      3  N   UNK d   1      24.173  11.944  29.638  0.00  0.00    -0.335 N 
ATOM      4  C   UNK d   1      25.019  11.057  30.423  0.00  0.00     0.181 C 
ATOM      5  C   UNK d   1      24.081  10.282  31.254  0.00  0.00     0.061 C 
ATOM      6  C   UNK d   1      25.925  10.305  29.541  0.00  0.00     0.243 C 
ATOM      7  O   UNK d   1      26.153   9.105  29.778  0.00  0.00    -0.271 OA
ATOM      8  N   UNK d   1      26.531  10.938  28.433  0.00  0.00    -0.337 N 
ATOM      9  C   UNK d   1      25.829  11.996  27.741  0.00  0.00     0.179 C 
ATOM     10  C   UNK d   1      26.904  12.946  27.252  0.00  0.00     0.037 C 
ATOM     11  C   UNK d   1      28.191  12.287  27.610  0.00  0.00     0.022 C 
ATOM     12  C   UNK d   1      27.804  10.806  27.731  0.00  0.00     0.127 C 
ATOM     13  C   UNK d   1      24.792  12.624  28.553  0.00  0.00     0.243 C 
ATOM     14  O   UNK d   1      24.418  13.822  28.296  0.00  0.00    -0.271 OA
ENDROOT
BRANCH   1  15
ATOM     15  N   UNK d   1      21.921  11.007  32.215  0.00  0.00    -0.351 N 
ATOM     16  C   UNK d   1      20.751  10.615  32.817  0.00  0.00     0.252 C 
ATOM     17  O   UNK d   1      19.924  11.288  33.506  0.00  0.00    -0.268 OA
ATOM     18  H   UNK d   1      21.718  12.281  32.696  0.00  0.00     0.163 HD
BRANCH  16  19
ATOM     19  C   UNK d   1      20.303   9.176  32.688  0.00  0.00     0.033 A 
ATOM     20  C   UNK d   1      21.155   8.207  32.217  0.00  0.00     0.036 A 
ATOM     21  C   UNK d   1      20.778   6.892  32.092  0.00  0.00     0.011 A 
ATOM     22 Br   UNK d   1      21.965   5.545  31.467  0.00  0.00    -0.051 Br
ATOM     23  C   UNK d   1      19.477   6.566  32.464  0.00  0.00     0.019 A 
ATOM     24  C   UNK d   1      18.605   7.505  32.938  0.00  0.00     0.002 A 
ATOM     25  C   UNK d   1      19.027   8.824  33.048  0.00  0.00     0.017 A 
ENDBRANCH  16  19
ENDBRANCH   1  15
TORSDOF 2
ENDMDL
