MODEL 1
REMARK VINA RESULT:    -8.603      0.000      0.000
REMARK INTER + INTRA:         -13.124
REMARK INTER:                 -11.873
REMARK INTRA:                  -1.251
REMARK UNBOUND:                -1.251
REMARK  7 active torsions:
REMARK  status: ('A' for Active; 'I' for Inactive)
REMARK    1  A    between atoms: C_4  and  C_8 
REMARK    2  A    between atoms: N_9  and  N_10 
REMARK       I    between atoms: N_10  and  C_11 
REMARK    3  A    between atoms: C_11  and  C_13 
REMARK    4  A    between atoms: N_16  and  C_26 
REMARK    5  A    between atoms: C_17  and  C_18 
REMARK    6  A    between atoms: C_18  and  N_19 
REMARK    7  A    between atoms: C_30  and  N_31 
ROOT
ATOM      1  C   UNK d   1      23.525  11.184  30.406  0.00  0.00     0.169 A 
ATOM      2  N   UNK d   1      24.377  12.143  30.272  0.00  0.00    -0.152 NA
ATOM      3  N   UNK d   1      23.873  13.270  30.766  0.00  0.00     0.012 NA
ATOM      4  N   UNK d   1      22.623  13.018  31.234  0.00  0.00    -0.215 N 
ATOM      5  C   UNK d   1      22.371  11.762  31.067  0.00  0.00     0.087 A 
ENDROOT
BRANCH   1   6
ATOM      6  C   UNK d   1      23.508   9.766  29.854  0.00  0.00     0.293 C 
ATOM      7  N   UNK d   1      24.016   8.815  30.692  0.00  0.00    -0.242 N 
ATOM      8  H   UNK d   1      24.216   9.440  31.725  0.00  0.00     0.192 HD
ATOM      9  O   UNK d   1      23.023   9.612  28.712  0.00  0.00    -0.264 OA
BRANCH   7  10
ATOM     10  N   UNK d   1      24.362   7.595  31.036  0.00  0.00    -0.183 NA
ATOM     11  C   UNK d   1      23.728   6.482  30.796  0.00  0.00     0.150 C 
BRANCH  11  12
ATOM     12  C   UNK d   1      24.218   5.169  31.259  0.00  0.00    -0.016 A 
ATOM     13  C   UNK d   1      25.510   4.704  31.107  0.00  0.00     0.032 A 
ATOM     14  C   UNK d   1      25.880   3.503  31.711  0.00  0.00     0.011 A 
ATOM     15 Br   UNK d   1      27.667   2.821  31.581  0.00  0.00    -0.051 Br
ATOM     16  C   UNK d   1      25.011   2.730  32.472  0.00  0.00     0.019 A 
ATOM     17  C   UNK d   1      23.741   3.236  32.577  0.00  0.00     0.002 A 
ATOM     18  C   UNK d   1      23.338   4.408  32.006  0.00  0.00     0.013 A 
ENDBRANCH  11  12
ENDBRANCH   7  10
ENDBRANCH   1   6
BRANCH   5  19
ATOM     19  C   UNK d   1      21.272  10.861  31.398  0.00  0.00     0.178 C 
BRANCH  19  20
ATOM     20  N   UNK d   1      20.933  10.511  32.701  0.00  0.00    -0.404 N 
ATOM     21  C   UNK d   1      19.881  10.705  33.512  0.00  0.00     0.136 C 
ATOM     22  C   UNK d   1      19.137   9.352  33.683  0.00  0.00     0.135 C 
ATOM     23  N   UNK d   1      19.427   8.564  32.539  0.00  0.00    -0.414 N 
ATOM     24  C   UNK d   1      20.789   8.122  32.551  0.00  0.00     0.135 C 
ATOM     25  C   UNK d   1      18.474   7.655  32.061  0.00  0.00     0.143 C 
ATOM     26  C   UNK d   1      21.644   9.264  33.113  0.00  0.00     0.136 C 
ENDBRANCH  19  20
ENDBRANCH   5  19
BRANCH   4  27
ATOM     27  C   UNK d   1      21.733  14.162  31.370  0.00  0.00     0.225 A 
ATOM     28  N   UNK d   1      20.662  13.948  32.314  0.00  0.00    -0.081 NA
ATOM     29  O   UNK d   1      19.926  14.952  32.391  0.00  0.00    -0.103 OA
ATOM     30  N   UNK d   1      20.367  15.867  31.583  0.00  0.00    -0.083 NA
ATOM     31  C   UNK d   1      21.502  15.358  30.952  0.00  0.00     0.201 A 
BRANCH  31  32
ATOM     32  N   UNK d   1      22.189  16.158  30.018  0.00  0.00    -0.379 N 
ATOM     33  H   UNK d   1      22.934  15.604  29.465  0.00  0.00     0.158 HD
ATOM     34  H   UNK d   1      22.117  17.128  29.777  0.00  0.00     0.158 HD
ENDBRANCH  31  32
ENDBRANCH   4  27
TORSDOF 7
ENDMDL
