/Users/jonathanwahrer/Desktop/Msc/3_Semester/Drug_Design_Praktikum/waehrer_HTS_screening/HTS_experiment/out/docking_results/vina_output/3elj/0153_docked.pdbqt
 OpenBabel03192217213D

 34 37  0  0  0  0  0  0  0  0999 V2000
   23.5250   11.1840   30.4060 C   0  0  0  0  0  0  0  0  0  0  0  0
   24.3770   12.1430   30.2720 N   0  0  0  0  0  0  0  0  0  0  0  0
   23.8730   13.2700   30.7660 N   0  0  0  0  0  0  0  0  0  0  0  0
   22.6230   13.0180   31.2340 N   0  0  0  0  0  0  0  0  0  0  0  0
   22.3710   11.7620   31.0670 C   0  0  0  0  0  0  0  0  0  0  0  0
   23.5080    9.7660   29.8540 C   0  0  0  0  0  0  0  0  0  0  0  0
   24.0160    8.8150   30.6920 N   0  0  0  0  0  0  0  0  0  0  0  0
   24.2160    9.4400   31.7250 H   0  0  0  0  0  0  0  0  0  0  0  0
   23.0230    9.6120   28.7120 O   0  0  0  0  0  0  0  0  0  0  0  0
   24.3620    7.5950   31.0360 N   0  0  0  0  0  0  0  0  0  0  0  0
   23.7280    6.4820   30.7960 C   0  0  0  0  0  3  0  0  0  0  0  0
   24.2180    5.1690   31.2590 C   0  0  0  0  0  0  0  0  0  0  0  0
   25.5100    4.7040   31.1070 C   0  0  0  0  0  3  0  0  0  0  0  0
   25.8800    3.5030   31.7110 C   0  0  0  0  0  0  0  0  0  0  0  0
   27.6670    2.8210   31.5810 Br  0  0  0  0  0  0  0  0  0  0  0  0
   25.0110    2.7300   32.4720 C   0  0  0  0  0  3  0  0  0  0  0  0
   23.7410    3.2360   32.5770 C   0  0  0  0  0  3  0  0  0  0  0  0
   23.3380    4.4080   32.0060 C   0  0  0  0  0  3  0  0  0  0  0  0
   21.2720   10.8610   31.3980 C   0  0  0  0  0  2  0  0  0  0  0  0
   20.9330   10.5110   32.7010 N   0  0  0  0  0  0  0  0  0  0  0  0
   19.8810   10.7050   33.5120 C   0  0  0  0  0  2  0  0  0  0  0  0
   19.1370    9.3520   33.6830 C   0  0  0  0  0  2  0  0  0  0  0  0
   19.4270    8.5640   32.5390 N   0  0  0  0  0  0  0  0  0  0  0  0
   20.7890    8.1220   32.5510 C   0  0  0  0  0  2  0  0  0  0  0  0
   18.4740    7.6550   32.0610 C   0  0  0  0  0  1  0  0  0  0  0  0
   21.6440    9.2640   33.1130 C   0  0  0  0  0  2  0  0  0  0  0  0
   21.7330   14.1620   31.3700 C   0  0  0  0  0  0  0  0  0  0  0  0
   20.6620   13.9480   32.3140 N   0  0  0  0  0  0  0  0  0  0  0  0
   19.9260   14.9520   32.3910 O   0  0  0  0  0  0  0  0  0  0  0  0
   20.3670   15.8670   31.5830 N   0  0  0  0  0  0  0  0  0  0  0  0
   21.5020   15.3580   30.9520 C   0  0  0  0  0  0  0  0  0  0  0  0
   22.1890   16.1580   30.0180 N   0  0  0  0  0  0  0  0  0  0  0  0
   22.9340   15.6040   29.4650 H   0  0  0  0  0  0  0  0  0  0  0  0
   22.1170   17.1280   29.7770 H   0  0  0  0  0  0  0  0  0  0  0  0
  1  5  2  0  0  0  0
  2  1  1  0  0  0  0
  2  3  2  0  0  0  0
  3  4  1  0  0  0  0
  4 27  1  0  0  0  0
  5  4  1  0  0  0  0
  5 19  1  0  0  0  0
  6  1  1  0  0  0  0
  6  7  1  0  0  0  0
  7 10  1  0  0  0  0
  7  8  1  0  0  0  0
  9  6  2  0  0  0  0
 11 10  2  0  0  0  0
 11 12  1  0  0  0  0
 12 18  1  0  0  0  0
 13 12  2  0  0  0  0
 13 14  1  0  0  0  0
 14 16  2  0  0  0  0
 15 14  1  0  0  0  0
 16 17  1  0  0  0  0
 18 17  2  0  0  0  0
 19 20  1  0  0  0  0
 20 26  1  0  0  0  0
 20 21  1  0  0  0  0
 21 22  1  0  0  0  0
 23 24  1  0  0  0  0
 23 22  1  0  0  0  0
 24 26  1  0  0  0  0
 25 23  1  0  0  0  0
 27 28  2  0  0  0  0
 28 29  1  0  0  0  0
 30 29  1  0  0  0  0
 31 27  1  0  0  0  0
 31 30  2  0  0  0  0
 32 31  1  0  0  0  0
 33 32  1  0  0  0  0
 34 32  1  0  0  0  0
M  END
>  <Pose>
1

>  <Score>
-8.603

$$$$
