/Users/jonathanwahrer/Desktop/Msc/3_Semester/Drug_Design_Praktikum/waehrer_HTS_screening/HTS_experiment/out/docking_results/vina_output/3elj/0156_docked.pdbqt
 OpenBabel03192217213D

 29 32  0  0  0  0  0  0  0  0999 V2000
   22.5250   10.2490   30.4850 C   0  0  0  0  0  0  0  0  0  0  0  0
   22.4940   11.5670   30.7120 N   0  0  0  0  0  4  0  0  0  0  0  0
   21.7010   12.1390   31.6600 C   0  0  0  0  0  0  0  0  0  0  0  0
   20.9340   11.2850   32.3710 N   0  0  0  0  0  0  0  0  0  0  0  0
   20.9210    9.9530   32.1900 C   0  0  0  0  0  0  0  0  0  0  0  0
   21.7420    9.4680   31.2260 N   0  0  0  0  0  2  0  0  0  0  0  0
   23.3790    9.7180   29.4790 N   0  0  0  0  0  0  0  0  0  0  0  0
   23.7900   10.3410   28.7530 H   0  0  0  0  0  0  0  0  0  0  0  0
   23.6890    8.3560   29.4300 N   0  0  0  0  0  0  0  0  0  0  0  0
   24.7050    7.8200   29.9830 C   0  0  0  0  0  3  0  0  0  0  0  0
   25.0040    6.3950   29.9130 C   0  0  0  0  0  0  0  0  0  0  0  0
   24.6960    5.5290   30.9480 C   0  0  0  0  0  3  0  0  0  0  0  0
   24.9660    4.1820   30.9120 C   0  0  0  0  0  0  0  0  0  0  0  0
   24.5130    3.0370   32.3790 Br  0  0  0  0  0  0  0  0  0  0  0  0
   25.5760    3.6580   29.7920 C   0  0  0  0  0  3  0  0  0  0  0  0
   25.9040    4.4810   28.7340 C   0  0  0  0  0  3  0  0  0  0  0  0
   25.6130    5.8410   28.8090 C   0  0  0  0  0  3  0  0  0  0  0  0
   21.6840   13.5330   31.8800 N   0  0  0  0  0  0  0  0  0  0  0  0
   22.8520   14.3310   31.6270 C   0  0  0  0  0  2  0  0  0  0  0  0
   22.4270   15.4520   30.6850 C   0  0  0  0  0  2  0  0  0  0  0  0
   21.4370   16.1680   31.3540 O   0  0  0  0  0  0  0  0  0  0  0  0
   20.2730   15.4370   31.5090 C   0  0  0  0  0  2  0  0  0  0  0  0
   20.5030   14.1940   32.3630 C   0  0  0  0  0  2  0  0  0  0  0  0
   20.1130    9.0860   32.9440 N   0  0  0  0  0  0  0  0  0  0  0  0
   18.9240    9.5390   33.6150 C   0  0  0  0  0  2  0  0  0  0  0  0
   17.9040    8.4000   33.4730 C   0  0  0  0  0  2  0  0  0  0  0  0
   18.1740    7.6490   32.3320 O   0  0  0  0  0  0  0  0  0  0  0  0
   19.3250    6.9080   32.4070 C   0  0  0  0  0  2  0  0  0  0  0  0
   20.4640    7.6990   33.0650 C   0  0  0  0  0  2  0  0  0  0  0  0
  1  2  2  0  0  0  0
  1  6  1  0  0  0  0
  2  3  2  0  0  0  0
  3 18  1  0  0  0  0
  3  4  1  0  0  0  0
  5  4  2  0  0  0  0
  5 24  1  0  0  0  0
  6  5  1  0  0  0  0
  7  1  1  0  0  0  0
  8  7  1  0  0  0  0
  9  7  1  0  0  0  0
  9 10  2  0  0  0  0
 11 10  1  0  0  0  0
 11 12  1  0  0  0  0
 13 12  2  0  0  0  0
 13 14  1  0  0  0  0
 15 13  1  0  0  0  0
 16 17  1  0  0  0  0
 16 15  2  0  0  0  0
 17 11  2  0  0  0  0
 18 23  1  0  0  0  0
 19 18  1  0  0  0  0
 20 21  1  0  0  0  0
 20 19  1  0  0  0  0
 21 22  1  0  0  0  0
 22 23  1  0  0  0  0
 24 29  1  0  0  0  0
 24 25  1  0  0  0  0
 26 25  1  0  0  0  0
 27 28  1  0  0  0  0
 27 26  1  0  0  0  0
 28 29  1  0  0  0  0
M  END
>  <Pose>
1

>  <Score>
-8.631

$$$$
