MODEL 1
REMARK VINA RESULT:    -8.303      0.000      0.000
REMARK INTER + INTRA:         -13.345
REMARK INTER:                 -11.701
REMARK INTRA:                  -1.644
REMARK UNBOUND:                -1.644
REMARK  7 active torsions:
REMARK  status: ('A' for Active; 'I' for Inactive)
REMARK    1  A    between atoms: C_4  and  C_8 
REMARK    2  A    between atoms: N_9  and  C_28 
REMARK    3  A    between atoms: C_15  and  C_17 
REMARK    4  A    between atoms: C_20  and  C_23 
REMARK    5  A    between atoms: C_23  and  O_25 
REMARK    6  A    between atoms: C_28  and  C_29 
REMARK    7  A    between atoms: C_29  and  N_30 
ROOT
ATOM      1  C   UNK d   1      22.395  11.029  32.200  0.00  0.00     0.161 C 
ATOM      2  N   UNK d   1      22.010  12.129  31.337  0.00  0.00    -0.331 N 
ATOM      3  C   UNK d   1      21.782  11.566  30.053  0.00  0.00     0.295 C 
ATOM      4  O   UNK d   1      21.047  12.013  29.146  0.00  0.00    -0.264 OA
ATOM      5  C   UNK d   1      22.587  10.326  29.981  0.00  0.00     0.250 C 
ATOM      6  O   UNK d   1      22.675   9.533  29.019  0.00  0.00    -0.282 OA
ATOM      7  C   UNK d   1      23.262  10.225  31.268  0.00  0.00     0.062 C 
ATOM      8  C   UNK d   1      24.381   9.609  31.494  0.00  0.00     0.132 C 
ATOM      9  O   UNK d   1      24.921   9.670  32.796  0.00  0.00    -0.190 OA
ENDROOT
BRANCH   1  10
ATOM     10  C   UNK d   1      21.175  10.265  32.555  0.00  0.00    -0.029 A 
ATOM     11  C   UNK d   1      21.096   8.891  32.373  0.00  0.00     0.028 A 
ATOM     12  C   UNK d   1      19.962   8.175  32.693  0.00  0.00     0.011 A 
ATOM     13 Br   UNK d   1      19.922   6.289  32.417  0.00  0.00    -0.051 Br
ATOM     14  C   UNK d   1      18.847   8.797  33.211  0.00  0.00     0.019 A 
ATOM     15  C   UNK d   1      18.901  10.160  33.401  0.00  0.00     0.002 A 
ATOM     16  C   UNK d   1      20.040  10.867  33.078  0.00  0.00     0.009 A 
ENDBRANCH   1  10
BRANCH   8  17
ATOM     17  C   UNK d   1      25.143   8.845  30.517  0.00  0.00     0.032 A 
ATOM     18  C   UNK d   1      26.160   9.153  29.678  0.00  0.00     0.019 A 
ATOM     19  N   UNK d   1      26.523   8.029  29.024  0.00  0.00    -0.354 N 
ATOM     20  C   UNK d   1      26.781  10.498  29.437  0.00  0.00     0.069 C 
ATOM     21  C   UNK d   1      25.775   6.985  29.402  0.00  0.00     0.115 A 
ATOM     22  H   UNK d   1      27.301   7.989  28.304  0.00  0.00     0.166 HD
ATOM     23  C   UNK d   1      24.900   7.468  30.338  0.00  0.00    -0.014 A 
ATOM     24  C   UNK d   1      23.862   6.660  31.048  0.00  0.00     0.052 C 
BRANCH  21  25
ATOM     25  C   UNK d   1      25.872   5.596  28.910  0.00  0.00     0.310 C 
ATOM     26  O   UNK d   1      25.284   5.282  27.864  0.00  0.00    -0.258 OA
BRANCH  25  27
ATOM     27  O   UNK d   1      26.607   4.653  29.601  0.00  0.00    -0.321 OA
ATOM     28  C   UNK d   1      26.048   3.502  30.191  0.00  0.00     0.213 C 
ENDBRANCH  25  27
ENDBRANCH  21  25
ENDBRANCH   8  17
BRANCH   2  29
ATOM     29  C   UNK d   1      21.881  13.542  31.701  0.00  0.00     0.155 C 
BRANCH  29  30
ATOM     30  C   UNK d   1      23.198  14.269  31.540  0.00  0.00     0.255 C 
BRANCH  30  31
ATOM     31  N   UNK d   1      23.215  15.205  30.464  0.00  0.00    -0.066 N 
ATOM     32  C   UNK d   1      21.954  15.912  30.276  0.00  0.00     0.261 C 
ATOM     33  C   UNK d   1      22.241  17.142  29.458  0.00  0.00     0.195 C 
ATOM     34  O   UNK d   1      23.392  16.949  28.734  0.00  0.00    -0.388 OA
ATOM     35  C   UNK d   1      23.495  15.700  28.148  0.00  0.00     0.195 C 
ATOM     36  C   UNK d   1      23.496  14.574  29.180  0.00  0.00     0.261 C 
ATOM     37  H   UNK d   1      23.983  15.885  30.612  0.00  0.00     0.280 HD
ENDBRANCH  30  31
ENDBRANCH  29  30
ENDBRANCH   2  29
TORSDOF 7
ENDMDL
