MODEL 1
REMARK VINA RESULT:    -8.216      0.000      0.000
REMARK INTER + INTRA:         -12.088
REMARK INTER:                 -11.579
REMARK INTRA:                  -0.510
REMARK UNBOUND:                -0.510
REMARK  7 active torsions:
REMARK  status: ('A' for Active; 'I' for Inactive)
REMARK    1  A    between atoms: C_4  and  C_8 
REMARK    2  A    between atoms: N_9  and  C_26 
REMARK    3  A    between atoms: C_15  and  C_17 
REMARK    4  A    between atoms: C_20  and  O_23 
REMARK    5  A    between atoms: C_26  and  C_27 
REMARK    6  A    between atoms: C_27  and  C_28 
REMARK    7  A    between atoms: C_28  and  N_29 
ROOT
ATOM      1  C   UNK d   1      22.247   9.646  30.413  0.00  0.00     0.161 C 
ATOM      2  N   UNK d   1      23.035  10.863  30.415  0.00  0.00    -0.332 N 
ATOM      3  C   UNK d   1      24.240  10.678  31.124  0.00  0.00     0.295 C 
ATOM      4  O   UNK d   1      25.043  11.509  31.622  0.00  0.00    -0.264 OA
ATOM      5  C   UNK d   1      24.437   9.209  31.203  0.00  0.00     0.250 C 
ATOM      6  O   UNK d   1      25.414   8.673  31.764  0.00  0.00    -0.282 OA
ATOM      7  C   UNK d   1      23.312   8.590  30.526  0.00  0.00     0.062 C 
ATOM      8  C   UNK d   1      23.274   7.367  30.063  0.00  0.00     0.130 C 
ATOM      9  O   UNK d   1      22.134   6.934  29.364  0.00  0.00    -0.190 OA
ENDROOT
BRANCH   1  10
ATOM     10  C   UNK d   1      21.287   9.575  31.528  0.00  0.00    -0.029 A 
ATOM     11  C   UNK d   1      20.430   8.510  31.688  0.00  0.00     0.028 A 
ATOM     12  C   UNK d   1      19.531   8.462  32.747  0.00  0.00     0.011 A 
ATOM     13 Br   UNK d   1      18.352   6.979  32.947  0.00  0.00    -0.051 Br
ATOM     14  C   UNK d   1      19.491   9.499  33.665  0.00  0.00     0.019 A 
ATOM     15  C   UNK d   1      20.353  10.561  33.497  0.00  0.00     0.002 A 
ATOM     16  C   UNK d   1      21.244  10.603  32.443  0.00  0.00     0.009 A 
ENDBRANCH   1  10
BRANCH   8  17
ATOM     17  C   UNK d   1      24.357   6.439  30.247  0.00  0.00     0.002 A 
ATOM     18  C   UNK d   1      25.378   6.461  29.286  0.00  0.00     0.024 A 
ATOM     19  C   UNK d   1      26.426   5.586  29.359  0.00  0.00    -0.028 A 
ATOM     20  C   UNK d   1      26.528   4.645  30.377  0.00  0.00     0.074 A 
ATOM     21  C   UNK d   1      27.508   5.623  28.324  0.00  0.00     0.051 C 
ATOM     22  C   UNK d   1      25.527   4.642  31.297  0.00  0.00     0.038 A 
ATOM     23  C   UNK d   1      24.461   5.517  31.238  0.00  0.00     0.017 A 
BRANCH  20  24
ATOM     24  O   UNK d   1      27.617   3.799  30.380  0.00  0.00    -0.355 OA
ATOM     25  C   UNK d   1      27.518   2.487  30.914  0.00  0.00     0.210 C 
ENDBRANCH  20  24
ENDBRANCH   8  17
BRANCH   2  26
ATOM     26  C   UNK d   1      22.663  12.132  29.768  0.00  0.00     0.129 C 
BRANCH  26  27
ATOM     27  C   UNK d   1      22.515  13.209  30.806  0.00  0.00     0.048 C 
BRANCH  27  28
ATOM     28  C   UNK d   1      21.143  13.779  30.934  0.00  0.00     0.236 C 
BRANCH  28  29
ATOM     29  N   UNK d   1      21.121  15.134  31.441  0.00  0.00    -0.067 N 
ATOM     30  C   UNK d   1      21.599  15.205  32.807  0.00  0.00     0.261 C 
ATOM     31  C   UNK d   1      22.870  16.007  32.889  0.00  0.00     0.195 C 
ATOM     32  O   UNK d   1      22.581  17.314  32.447  0.00  0.00    -0.388 OA
ATOM     33  C   UNK d   1      22.214  17.305  31.103  0.00  0.00     0.195 C 
ATOM     34  C   UNK d   1      21.966  15.938  30.552  0.00  0.00     0.261 C 
ATOM     35  H   UNK d   1      20.181  15.579  31.394  0.00  0.00     0.280 HD
ENDBRANCH  28  29
ENDBRANCH  27  28
ENDBRANCH  26  27
ENDBRANCH   2  26
TORSDOF 7
ENDMDL
