/Users/jonathanwahrer/Desktop/Msc/3_Semester/Drug_Design_Praktikum/waehrer_HTS_screening/HTS_experiment/out/docking_results/vina_output/3elj/0176_docked.pdbqt
 OpenBabel03192217233D

 33 36  0  0  1  0  0  0  0  0999 V2000
   22.4040    9.5840   30.3040 C   0  0  1  0  0  3  0  0  0  0  0  0
   23.1800   10.8140   30.2770 N   0  0  0  0  0  0  0  0  0  0  0  0
   24.3830   10.5670   31.0330 C   0  0  0  0  0  0  0  0  0  0  0  0
   25.1280   11.4610   31.5050 O   0  0  0  0  0  0  0  0  0  0  0  0
   24.5380    9.1310   31.1270 C   0  0  0  0  0  0  0  0  0  0  0  0
   25.4580    8.4760   31.7090 O   0  0  0  0  0  0  0  0  0  0  0  0
   23.4200    8.5220   30.4180 C   0  0  0  0  0  0  0  0  0  0  0  0
   23.3620    7.2600   30.0170 C   0  0  0  0  0  0  0  0  0  0  0  0
   22.1430    6.9070   29.4020 O   0  0  0  0  0  1  0  0  0  0  0  0
   22.7620   12.0500   29.6980 C   0  0  0  0  0  2  0  0  0  0  0  0
   22.5740   13.2260   30.5660 C   0  0  0  0  0  2  0  0  0  0  0  0
   21.2150   13.7700   30.8020 C   0  0  0  0  0  2  0  0  0  0  0  0
   21.0370   15.1820   30.7700 N   0  0  0  0  0  4  0  0  0  0  0  0
   20.8440   15.7060   32.0990 C   0  0  0  0  0  2  0  0  0  0  0  0
   22.1300   16.1640   32.7550 C   0  0  0  0  0  2  0  0  0  0  0  0
   22.6560   17.2580   32.0650 O   0  0  0  0  0  0  0  0  0  0  0  0
   22.2320   17.2580   30.7350 C   0  0  0  0  0  2  0  0  0  0  0  0
   22.2810   15.8350   30.2550 C   0  0  0  0  0  2  0  0  0  0  0  0
   20.3270   15.4810   30.1060 H   0  0  0  0  0  0  0  0  0  0  0  0
   21.4430    9.5950   31.4360 C   0  0  0  0  0  0  0  0  0  0  0  0
   20.6110    8.5200   31.6480 C   0  0  0  0  0  3  0  0  0  0  0  0
   19.6950    8.4850   32.6900 C   0  0  0  0  0  0  0  0  0  0  0  0
   18.5440    7.0040   32.9950 Br  0  0  0  0  0  0  0  0  0  0  0  0
   19.5980    9.5530   33.5560 C   0  0  0  0  0  3  0  0  0  0  0  0
   20.4290   10.6300   33.3460 C   0  0  0  0  0  3  0  0  0  0  0  0
   21.3510   10.6530   32.2900 C   0  0  0  0  0  3  0  0  0  0  0  0
   24.4330    6.2890   30.1700 C   0  0  0  0  0  0  0  0  0  0  0  0
   24.5360    5.3710   31.1880 C   0  0  0  0  0  3  0  0  0  0  0  0
   25.5600    4.4490   31.2630 C   0  0  0  0  0  3  0  0  0  0  0  0
   26.5420    4.4140   30.2990 C   0  0  0  0  0  0  0  0  0  0  0  0
   26.4560    5.3290   29.2690 C   0  0  0  0  0  3  0  0  0  0  0  0
   27.8630    3.2430   30.3730 Cl  0  0  0  0  0  0  0  0  0  0  0  0
   25.4270    6.2480   29.2030 C   0  0  0  0  0  3  0  0  0  0  0  0
  1  7  1  0  0  0  0
  1 20  1  1  0  0  0
  2  1  1  0  0  0  0
  2  3  1  0  0  0  0
  3  5  1  0  0  0  0
  3  4  2  0  0  0  0
  5  6  2  0  0  0  0
  7  5  1  0  0  0  0
  8 27  1  0  0  0  0
  8  7  2  0  0  0  0
  9  8  1  0  0  0  0
 10  2  1  0  0  0  0
 10 11  1  0  0  0  0
 11 12  1  0  0  0  0
 13 12  1  0  0  0  0
 13 14  1  0  0  0  0
 14 15  1  0  0  0  0
 16 15  1  0  0  0  0
 17 16  1  0  0  0  0
 18 17  1  0  0  0  0
 18 13  1  0  0  0  0
 19 13  1  0  0  0  0
 20 21  2  0  0  0  0
 20 26  1  0  0  0  0
 21 22  1  0  0  0  0
 22 23  1  0  0  0  0
 22 24  2  0  0  0  0
 25 24  1  0  0  0  0
 26 25  2  0  0  0  0
 27 28  1  0  0  0  0
 28 29  2  0  0  0  0
 30 32  1  0  0  0  0
 30 29  1  0  0  0  0
 31 30  2  0  0  0  0
 33 31  1  0  0  0  0
 33 27  2  0  0  0  0
M  END
>  <Pose>
1

>  <Score>
-8.331

$$$$
