MODEL 1
REMARK VINA RESULT:    -8.331      0.000      0.000
REMARK INTER + INTRA:         -11.561
REMARK INTER:                 -11.253
REMARK INTRA:                  -0.308
REMARK UNBOUND:                -0.308
REMARK  6 active torsions:
REMARK  status: ('A' for Active; 'I' for Inactive)
REMARK    1  A    between atoms: C_4  and  C_8 
REMARK    2  A    between atoms: N_9  and  C_24 
REMARK    3  A    between atoms: C_15  and  C_17 
REMARK    4  A    between atoms: C_24  and  C_25 
REMARK    5  A    between atoms: C_25  and  C_26 
REMARK    6  A    between atoms: C_26  and  N_27 
ROOT
ATOM      1  C   UNK d   1      22.404   9.584  30.304  0.00  0.00     0.161 C 
ATOM      2  N   UNK d   1      23.180  10.814  30.277  0.00  0.00    -0.332 N 
ATOM      3  C   UNK d   1      24.383  10.567  31.033  0.00  0.00     0.295 C 
ATOM      4  O   UNK d   1      25.128  11.461  31.505  0.00  0.00    -0.264 OA
ATOM      5  C   UNK d   1      24.538   9.131  31.127  0.00  0.00     0.250 C 
ATOM      6  O   UNK d   1      25.458   8.476  31.709  0.00  0.00    -0.282 OA
ATOM      7  C   UNK d   1      23.420   8.522  30.418  0.00  0.00     0.062 C 
ATOM      8  C   UNK d   1      23.362   7.260  30.017  0.00  0.00     0.130 C 
ATOM      9  O   UNK d   1      22.143   6.907  29.402  0.00  0.00    -0.190 OA
ENDROOT
BRANCH   2  10
ATOM     10  C   UNK d   1      22.762  12.050  29.698  0.00  0.00     0.129 C 
BRANCH  10  11
ATOM     11  C   UNK d   1      22.574  13.226  30.566  0.00  0.00     0.048 C 
BRANCH  11  12
ATOM     12  C   UNK d   1      21.215  13.770  30.802  0.00  0.00     0.236 C 
BRANCH  12  13
ATOM     13  N   UNK d   1      21.037  15.182  30.770  0.00  0.00    -0.067 N 
ATOM     14  C   UNK d   1      20.844  15.706  32.099  0.00  0.00     0.261 C 
ATOM     15  C   UNK d   1      22.130  16.164  32.755  0.00  0.00     0.195 C 
ATOM     16  O   UNK d   1      22.656  17.258  32.065  0.00  0.00    -0.388 OA
ATOM     17  C   UNK d   1      22.232  17.258  30.735  0.00  0.00     0.195 C 
ATOM     18  C   UNK d   1      22.281  15.835  30.255  0.00  0.00     0.261 C 
ATOM     19  H   UNK d   1      20.327  15.481  30.106  0.00  0.00     0.280 HD
ENDBRANCH  12  13
ENDBRANCH  11  12
ENDBRANCH  10  11
ENDBRANCH   2  10
BRANCH   1  20
ATOM     20  C   UNK d   1      21.443   9.595  31.436  0.00  0.00    -0.029 A 
ATOM     21  C   UNK d   1      20.611   8.520  31.648  0.00  0.00     0.028 A 
ATOM     22  C   UNK d   1      19.695   8.485  32.690  0.00  0.00     0.011 A 
ATOM     23 Br   UNK d   1      18.544   7.004  32.995  0.00  0.00    -0.051 Br
ATOM     24  C   UNK d   1      19.598   9.553  33.556  0.00  0.00     0.019 A 
ATOM     25  C   UNK d   1      20.429  10.630  33.346  0.00  0.00     0.002 A 
ATOM     26  C   UNK d   1      21.351  10.653  32.290  0.00  0.00     0.009 A 
ENDBRANCH   1  20
BRANCH   8  27
ATOM     27  C   UNK d   1      24.433   6.289  30.170  0.00  0.00     0.001 A 
ATOM     28  C   UNK d   1      24.536   5.371  31.188  0.00  0.00     0.016 A 
ATOM     29  C   UNK d   1      25.560   4.449  31.263  0.00  0.00     0.024 A 
ATOM     30  C   UNK d   1      26.542   4.414  30.299  0.00  0.00     0.034 A 
ATOM     31  C   UNK d   1      26.456   5.329  29.269  0.00  0.00     0.024 A 
ATOM     32 Cl   UNK d   1      27.863   3.243  30.373  0.00  0.00    -0.084 Cl
ATOM     33  C   UNK d   1      25.427   6.248  29.203  0.00  0.00     0.016 A 
ENDBRANCH   8  27
TORSDOF 6
ENDMDL
