MODEL 1
REMARK VINA RESULT:    -7.166      0.000      0.000
REMARK INTER + INTRA:          -9.917
REMARK INTER:                  -9.261
REMARK INTRA:                  -0.656
REMARK UNBOUND:                -0.656
REMARK  5 active torsions:
REMARK  status: ('A' for Active; 'I' for Inactive)
REMARK    1  A    between atoms: C_4  and  C_8 
REMARK    2  A    between atoms: N_9  and  C_28 
REMARK    3  A    between atoms: C_15  and  C_17 
REMARK    4  A    between atoms: C_28  and  C_29 
REMARK    5  A    between atoms: C_29  and  N_30 
ROOT
ATOM      1  C   UNK d   1      25.608   8.154  30.032  0.00  0.00     0.161 C 
ATOM      2  N   UNK d   1      25.451   9.500  29.605  0.00  0.00    -0.331 N 
ATOM      3  C   UNK d   1      26.832   9.970  29.456  0.00  0.00     0.295 C 
ATOM      4  O   UNK d   1      27.224  11.142  29.568  0.00  0.00    -0.264 OA
ATOM      5  C   UNK d   1      27.640   8.778  29.150  0.00  0.00     0.251 C 
ATOM      6  O   UNK d   1      28.873   8.713  28.939  0.00  0.00    -0.282 OA
ATOM      7  C   UNK d   1      26.697   7.662  29.138  0.00  0.00     0.064 C 
ATOM      8  C   UNK d   1      26.803   6.550  28.458  0.00  0.00     0.149 C 
ATOM      9  O   UNK d   1      25.732   5.636  28.550  0.00  0.00    -0.189 OA
ENDROOT
BRANCH   1  10
ATOM     10  C   UNK d   1      24.473   7.297  30.203  0.00  0.00    -0.029 A 
ATOM     11  C   UNK d   1      24.586   6.157  31.022  0.00  0.00     0.028 A 
ATOM     12  C   UNK d   1      23.557   5.277  31.232  0.00  0.00     0.011 A 
ATOM     13 Br   UNK d   1      23.785   3.747  32.362  0.00  0.00    -0.051 Br
ATOM     14  C   UNK d   1      22.336   5.465  30.641  0.00  0.00     0.019 A 
ATOM     15  C   UNK d   1      22.176   6.566  29.831  0.00  0.00     0.002 A 
ATOM     16  C   UNK d   1      23.226   7.437  29.634  0.00  0.00     0.009 A 
ENDBRANCH   1  10
BRANCH   8  17
ATOM     17  C   UNK d   1      27.962   6.229  27.638  0.00  0.00     0.102 A 
ATOM     18  N   UNK d   1      28.387   6.712  26.461  0.00  0.00    -0.302 N 
ATOM     19  C   UNK d   1      29.492   6.065  26.082  0.00  0.00     0.140 A 
ATOM     20  C   UNK d   1      27.840   7.717  25.721  0.00  0.00     0.099 A 
ATOM     21  N   UNK d   1      29.774   5.149  27.045  0.00  0.00    -0.233 NA
ATOM     22  C   UNK d   1      30.154   6.379  24.897  0.00  0.00    -0.015 A 
ATOM     23  C   UNK d   1      28.858   5.218  28.020  0.00  0.00     0.063 A 
ATOM     24  C   UNK d   1      28.799   4.390  29.258  0.00  0.00     0.073 C 
ATOM     25  C   UNK d   1      29.621   7.394  24.127  0.00  0.00     0.012 A 
ATOM     26  C   UNK d   1      31.377   5.625  24.525  0.00  0.00     0.052 C 
ATOM     27  C   UNK d   1      28.477   8.045  24.549  0.00  0.00     0.018 A 
ENDBRANCH   8  17
BRANCH   2  28
ATOM     28  C   UNK d   1      24.312  10.373  29.377  0.00  0.00     0.155 C 
BRANCH  28  29
ATOM     29  C   UNK d   1      23.863  11.154  30.563  0.00  0.00     0.255 C 
BRANCH  29  30
ATOM     30  N   UNK d   1      24.517  12.443  30.671  0.00  0.00    -0.066 N 
ATOM     31  C   UNK d   1      24.351  13.224  29.466  0.00  0.00     0.261 C 
ATOM     32  C   UNK d   1      22.907  13.729  29.376  0.00  0.00     0.195 C 
ATOM     33  O   UNK d   1      22.748  14.616  30.446  0.00  0.00    -0.388 OA
ATOM     34  C   UNK d   1      22.731  13.813  31.605  0.00  0.00     0.195 C 
ATOM     35  C   UNK d   1      24.075  13.167  31.847  0.00  0.00     0.261 C 
ATOM     36  H   UNK d   1      25.549  12.292  30.786  0.00  0.00     0.280 HD
ENDBRANCH  29  30
ENDBRANCH  28  29
ENDBRANCH   2  28
TORSDOF 5
ENDMDL
