MODEL 1
REMARK VINA RESULT:    -8.458      0.000      0.000
REMARK INTER + INTRA:         -10.085
REMARK INTER:                 -11.425
REMARK INTRA:                   1.339
REMARK UNBOUND:                 1.339
REMARK  6 active torsions:
REMARK  status: ('A' for Active; 'I' for Inactive)
REMARK    1  A    between atoms: C_4  and  C_8 
REMARK    2  A    between atoms: N_9  and  C_27 
REMARK    3  A    between atoms: C_15  and  C_17 
REMARK    4  A    between atoms: C_27  and  C_28 
REMARK    5  A    between atoms: C_28  and  C_29 
REMARK    6  A    between atoms: C_29  and  N_30 
ROOT
ATOM      1  C   UNK d   1      22.073   8.054  30.858  0.00  0.00     0.161 C 
ATOM      2  N   UNK d   1      21.229   7.761  32.000  0.00  0.00    -0.332 N 
ATOM      3  C   UNK d   1      20.790   6.410  31.803  0.00  0.00     0.295 C 
ATOM      4  O   UNK d   1      19.761   5.873  32.249  0.00  0.00    -0.264 OA
ATOM      5  C   UNK d   1      21.791   5.757  30.967  0.00  0.00     0.251 C 
ATOM      6  O   UNK d   1      21.845   4.572  30.522  0.00  0.00    -0.282 OA
ATOM      7  C   UNK d   1      22.807   6.761  30.692  0.00  0.00     0.064 C 
ATOM      8  C   UNK d   1      24.055   6.523  30.338  0.00  0.00     0.149 C 
ATOM      9  O   UNK d   1      24.841   7.650  30.061  0.00  0.00    -0.189 OA
ENDROOT
BRANCH   1  10
ATOM     10  C   UNK d   1      22.999   9.177  31.049  0.00  0.00    -0.029 A 
ATOM     11  C   UNK d   1      23.192  10.169  30.147  0.00  0.00     0.028 A 
ATOM     12  C   UNK d   1      24.098  11.198  30.405  0.00  0.00     0.011 A 
ATOM     13 Br   UNK d   1      24.340  12.570  29.114  0.00  0.00    -0.051 Br
ATOM     14  C   UNK d   1      24.828  11.244  31.584  0.00  0.00     0.019 A 
ATOM     15  C   UNK d   1      24.617  10.226  32.488  0.00  0.00     0.002 A 
ATOM     16  C   UNK d   1      23.732   9.219  32.240  0.00  0.00     0.009 A 
ENDBRANCH   1  10
BRANCH   8  17
ATOM     17  C   UNK d   1      24.658   5.204  30.225  0.00  0.00     0.102 A 
ATOM     18  N   UNK d   1      25.342   4.703  29.186  0.00  0.00    -0.302 N 
ATOM     19  C   UNK d   1      25.792   3.452  29.461  0.00  0.00     0.134 A 
ATOM     20  C   UNK d   1      25.635   5.209  27.951  0.00  0.00     0.099 A 
ATOM     21  N   UNK d   1      25.354   3.191  30.724  0.00  0.00    -0.233 NA
ATOM     22  C   UNK d   1      26.519   2.696  28.554  0.00  0.00     0.051 A 
ATOM     23  C   UNK d   1      24.673   4.211  31.216  0.00  0.00     0.063 A 
ATOM     24  C   UNK d   1      24.009   4.402  32.525  0.00  0.00     0.073 C 
ATOM     25  C   UNK d   1      26.812   3.215  27.310  0.00  0.00     0.005 A 
ATOM     26  C   UNK d   1      26.346   4.496  27.036  0.00  0.00     0.018 A 
ENDBRANCH   8  17
BRANCH   2  27
ATOM     27  C   UNK d   1      20.870   8.638  33.117  0.00  0.00     0.129 C 
BRANCH  27  28
ATOM     28  C   UNK d   1      20.023   9.791  32.719  0.00  0.00     0.048 C 
BRANCH  28  29
ATOM     29  C   UNK d   1      19.646  10.776  33.748  0.00  0.00     0.235 C 
BRANCH  29  30
ATOM     30  N   UNK d   1      19.928  12.138  33.461  0.00  0.00    -0.079 N 
ATOM     31  C   UNK d   1      18.734  12.807  33.004  0.00  0.00     0.269 C 
ATOM     32  C   UNK d   1      20.882  12.211  32.337  0.00  0.00     0.269 C 
ATOM     33  H   UNK d   1      20.411  12.652  34.230  0.00  0.00     0.278 HD
ENDBRANCH  29  30
ENDBRANCH  28  29
ENDBRANCH  27  28
ENDBRANCH   2  27
TORSDOF 6
ENDMDL
