MODEL 1
REMARK VINA RESULT:    -7.463      0.000      0.000
REMARK INTER + INTRA:         -10.426
REMARK INTER:                 -10.081
REMARK INTRA:                  -0.345
REMARK UNBOUND:                -0.345
REMARK  6 active torsions:
REMARK  status: ('A' for Active; 'I' for Inactive)
REMARK    1  A    between atoms: C_4  and  C_8 
REMARK    2  A    between atoms: N_9  and  C_22 
REMARK    3  A    between atoms: C_15  and  C_17 
REMARK    4  A    between atoms: C_22  and  C_23 
REMARK    5  A    between atoms: C_23  and  C_24 
REMARK    6  A    between atoms: C_24  and  N_25 
ROOT
ATOM      1  C   UNK d   1      22.499  10.972  32.144  0.00  0.00     0.161 C 
ATOM      2  N   UNK d   1      22.104  12.061  31.264  0.00  0.00    -0.332 N 
ATOM      3  C   UNK d   1      21.857  11.392  30.005  0.00  0.00     0.295 C 
ATOM      4  O   UNK d   1      21.112  11.791  29.084  0.00  0.00    -0.264 OA
ATOM      5  C   UNK d   1      22.623  10.154  29.975  0.00  0.00     0.251 C 
ATOM      6  O   UNK d   1      22.716   9.260  29.095  0.00  0.00    -0.282 OA
ATOM      7  C   UNK d   1      23.340  10.097  31.248  0.00  0.00     0.064 C 
ATOM      8  C   UNK d   1      24.420   9.442  31.563  0.00  0.00     0.153 C 
ATOM      9  O   UNK d   1      24.888   9.533  32.891  0.00  0.00    -0.188 OA
ENDROOT
BRANCH   2  10
ATOM     10  C   UNK d   1      21.950  13.472  31.503  0.00  0.00     0.129 C 
BRANCH  10  11
ATOM     11  C   UNK d   1      22.794  14.341  30.600  0.00  0.00     0.048 C 
BRANCH  11  12
ATOM     12  C   UNK d   1      23.946  13.564  30.098  0.00  0.00     0.236 C 
BRANCH  12  13
ATOM     13  N   UNK d   1      23.991  13.388  28.664  0.00  0.00    -0.067 N 
ATOM     14  C   UNK d   1      24.183  14.633  27.959  0.00  0.00     0.261 C 
ATOM     15  C   UNK d   1      25.593  14.934  27.593  0.00  0.00     0.195 C 
ATOM     16  O   UNK d   1      26.328  13.865  27.126  0.00  0.00    -0.388 OA
ATOM     17  C   UNK d   1      26.249  12.738  27.934  0.00  0.00     0.195 C 
ATOM     18  C   UNK d   1      24.823  12.330  28.200  0.00  0.00     0.261 C 
ATOM     19  H   UNK d   1      22.992  13.098  28.413  0.00  0.00     0.280 HD
ENDBRANCH  12  13
ENDBRANCH  11  12
ENDBRANCH  10  11
ENDBRANCH   2  10
BRANCH   1  20
ATOM     20  C   UNK d   1      21.323  10.140  32.538  0.00  0.00    -0.029 A 
ATOM     21  C   UNK d   1      21.346   8.773  32.370  0.00  0.00     0.028 A 
ATOM     22  C   UNK d   1      20.282   7.955  32.718  0.00  0.00     0.011 A 
ATOM     23 Br   UNK d   1      20.358   6.055  32.468  0.00  0.00    -0.051 Br
ATOM     24  C   UNK d   1      19.143   8.516  33.259  0.00  0.00     0.019 A 
ATOM     25  C   UNK d   1      19.100   9.886  33.436  0.00  0.00     0.002 A 
ATOM     26  C   UNK d   1      20.180  10.696  33.080  0.00  0.00     0.009 A 
ENDBRANCH   1  20
BRANCH   8  27
ATOM     27  C   UNK d   1      25.120   8.646  30.571  0.00  0.00     0.112 A 
ATOM     28  O   UNK d   1      24.860   7.385  30.347  0.00  0.00    -0.320 OA
ATOM     29  C   UNK d   1      25.630   6.902  29.411  0.00  0.00     0.142 A 
ATOM     30  C   UNK d   1      26.454   7.899  28.984  0.00  0.00     0.027 A 
ATOM     31  C   UNK d   1      26.129   9.035  29.734  0.00  0.00     0.042 A 
ENDBRANCH   8  27
TORSDOF 6
ENDMDL
