MODEL 1
REMARK VINA RESULT:    -8.649      0.000      0.000
REMARK INTER + INTRA:         -12.158
REMARK INTER:                 -12.188
REMARK INTRA:                   0.030
REMARK UNBOUND:                 0.030
REMARK  7 active torsions:
REMARK  status: ('A' for Active; 'I' for Inactive)
REMARK    1  A    between atoms: C_4  and  C_8 
REMARK    2  A    between atoms: N_9  and  C_28 
REMARK    3  A    between atoms: C_15  and  C_17 
REMARK    4  A    between atoms: C_25  and  O_26 
REMARK    5  A    between atoms: C_28  and  C_29 
REMARK    6  A    between atoms: C_29  and  C_30 
REMARK    7  A    between atoms: C_30  and  N_31 
ROOT
ATOM      1  C   UNK d   1      24.497   5.061  29.716  0.00  0.00     0.161 C 
ATOM      2  N   UNK d   1      25.411   5.756  28.832  0.00  0.00    -0.332 N 
ATOM      3  C   UNK d   1      25.776   6.969  29.525  0.00  0.00     0.295 C 
ATOM      4  O   UNK d   1      26.814   7.643  29.315  0.00  0.00    -0.264 OA
ATOM      5  C   UNK d   1      24.709   7.238  30.494  0.00  0.00     0.251 C 
ATOM      6  O   UNK d   1      24.614   8.191  31.309  0.00  0.00    -0.282 OA
ATOM      7  C   UNK d   1      23.716   6.177  30.368  0.00  0.00     0.064 C 
ATOM      8  C   UNK d   1      22.452   6.203  30.752  0.00  0.00     0.153 C 
ATOM      9  O   UNK d   1      21.670   5.090  30.566  0.00  0.00    -0.188 OA
ENDROOT
BRANCH   1  10
ATOM     10  C   UNK d   1      25.183   4.232  30.740  0.00  0.00    -0.029 A 
ATOM     11  C   UNK d   1      24.462   3.503  31.688  0.00  0.00     0.028 A 
ATOM     12  C   UNK d   1      25.050   2.733  32.648  0.00  0.00     0.011 A 
ATOM     13 Br   UNK d   1      23.972   1.760  33.912  0.00  0.00    -0.051 Br
ATOM     14  C   UNK d   1      26.409   2.648  32.714  0.00  0.00     0.019 A 
ATOM     15  C   UNK d   1      27.165   3.341  31.812  0.00  0.00     0.002 A 
ATOM     16  C   UNK d   1      26.553   4.124  30.836  0.00  0.00     0.009 A 
ENDBRANCH   1  10
BRANCH   8  17
ATOM     17  C   UNK d   1      21.862   7.403  31.374  0.00  0.00     0.114 A 
ATOM     18  O   UNK d   1      22.193   8.637  31.104  0.00  0.00    -0.304 OA
ATOM     19  C   UNK d   1      21.529   9.512  31.784  0.00  0.00     0.119 A 
ATOM     20  C   UNK d   1      20.666   8.813  32.593  0.00  0.00     0.003 A 
ATOM     21  C   UNK d   1      21.592  10.899  31.782  0.00  0.00     0.102 A 
ATOM     22  C   UNK d   1      20.878   7.476  32.331  0.00  0.00     0.054 A 
ATOM     23  C   UNK d   1      19.836   9.526  33.430  0.00  0.00     0.014 A 
ATOM     24  C   UNK d   1      19.856  10.906  33.470  0.00  0.00     0.004 A 
ATOM     25  C   UNK d   1      20.751  11.576  32.629  0.00  0.00     0.040 A 
BRANCH  21  26
ATOM     26  O   UNK d   1      22.453  11.594  30.972  0.00  0.00    -0.353 OA
ATOM     27  C   UNK d   1      23.691  12.122  31.327  0.00  0.00     0.210 C 
ENDBRANCH  21  26
ENDBRANCH   8  17
BRANCH   2  28
ATOM     28  C   UNK d   1      25.897   5.347  27.537  0.00  0.00     0.129 C 
BRANCH  28  29
ATOM     29  C   UNK d   1      27.320   4.848  27.611  0.00  0.00     0.048 C 
BRANCH  29  30
ATOM     30  C   UNK d   1      28.310   5.645  26.841  0.00  0.00     0.235 C 
BRANCH  30  31
ATOM     31  N   UNK d   1      27.747   6.558  25.894  0.00  0.00    -0.079 N 
ATOM     32  C   UNK d   1      28.107   6.172  24.527  0.00  0.00     0.269 C 
ATOM     33  C   UNK d   1      28.141   7.913  26.127  0.00  0.00     0.269 C 
ATOM     34  H   UNK d   1      26.687   6.537  25.895  0.00  0.00     0.278 HD
ENDBRANCH  30  31
ENDBRANCH  29  30
ENDBRANCH  28  29
ENDBRANCH   2  28
TORSDOF 7
ENDMDL
