MODEL 1
REMARK VINA RESULT:    -8.798      0.000      0.000
REMARK INTER + INTRA:         -10.782
REMARK INTER:                 -10.341
REMARK INTRA:                  -0.442
REMARK UNBOUND:                -0.442
REMARK  3 active torsions:
REMARK  status: ('A' for Active; 'I' for Inactive)
REMARK    1  A    between atoms: C_4  and  N_8 
REMARK       I    between atoms: N_8  and  C_9 
REMARK    2  A    between atoms: C_9  and  C_11 
REMARK    3  A    between atoms: N_13  and  C_15 
ROOT
ATOM      1  C   UNK d   1      24.506   9.955  30.528  0.00  0.00     0.114 C 
ATOM      2  C   UNK d   1      23.360   9.236  29.866  0.00  0.00     0.140 C 
ATOM      3  N   UNK d   1      23.048   8.523  31.114  0.00  0.00    -0.362 N 
ATOM      4  C   UNK d   1      24.389   8.865  31.553  0.00  0.00     0.140 C 
ENDROOT
BRANCH   1   5
ATOM      5  C   UNK d   1      24.154  11.328  31.033  0.00  0.00     0.229 C 
ATOM      6  N   UNK d   1      22.858  11.823  30.818  0.00  0.00    -0.327 N 
ATOM      7  H   UNK d   1      22.144  11.197  30.291  0.00  0.00     0.169 HD
ATOM      8  O   UNK d   1      25.071  11.925  31.615  0.00  0.00    -0.273 OA
BRANCH   6   9
ATOM      9  C   UNK d   1      22.389  13.085  31.232  0.00  0.00     0.035 A 
ATOM     10  C   UNK d   1      21.067  13.451  30.940  0.00  0.00     0.048 A 
ATOM     11  C   UNK d   1      20.528  14.662  31.307  0.00  0.00     0.013 A 
ATOM     12 Br   UNK d   1      18.726  15.118  30.890  0.00  0.00    -0.051 Br
ATOM     13  C   UNK d   1      21.294  15.564  31.984  0.00  0.00     0.019 A 
ATOM     14  C   UNK d   1      22.579  15.235  32.279  0.00  0.00     0.004 A 
ATOM     15  C   UNK d   1      23.134  14.007  31.911  0.00  0.00     0.029 A 
ENDBRANCH   6   9
ENDBRANCH   1   5
BRANCH   3  16
ATOM     16  C   UNK d   1      21.902   7.831  31.591  0.00  0.00     0.162 A 
ATOM     17  N   UNK d   1      21.761   6.487  31.455  0.00  0.00    -0.222 NA
ATOM     18  C   UNK d   1      20.650   5.845  31.923  0.00  0.00     0.237 A 
ATOM     19  N   UNK d   1      19.666   6.517  32.528  0.00  0.00    -0.220 NA
ATOM     20  C   UNK d   1      19.738   7.838  32.695  0.00  0.00     0.183 A 
ATOM     21  N   UNK d   1      18.897   8.727  33.261  0.00  0.00    -0.236 N 
ATOM     22  C   UNK d   1      20.862   8.485  32.222  0.00  0.00     0.173 A 
ATOM     23  N   UNK d   1      19.472   9.905  33.149  0.00  0.00    -0.064 NA
ATOM     24  C   UNK d   1      17.601   8.471  33.883  0.00  0.00     0.183 C 
ATOM     25  N   UNK d   1      20.653   9.793  32.530  0.00  0.00    -0.124 NA
ENDBRANCH   3  16
TORSDOF 3
ENDMDL
