MODEL 1
REMARK VINA RESULT:    -8.560      0.000      0.000
REMARK INTER + INTRA:          -9.907
REMARK INTER:                  -9.560
REMARK INTRA:                  -0.347
REMARK UNBOUND:                -0.347
REMARK  2 active torsions:
REMARK  status: ('A' for Active; 'I' for Inactive)
REMARK    1  A    between atoms: C_4  and  N_8 
REMARK    2  A    between atoms: N_8  and  C_9 
ROOT
ATOM      1  C   UNK d   1      20.619  11.723  32.793  0.00  0.00     0.180 A 
ATOM      2  N   UNK d   1      21.850  11.626  32.304  0.00  0.00    -0.202 NA
ATOM      3  C   UNK d   1      22.431  12.519  31.485  0.00  0.00     0.231 A 
ATOM      4  N   UNK d   1      23.622  12.648  30.874  0.00  0.00    -0.081 NA
ATOM      5  O   UNK d   1      23.674  13.734  30.169  0.00  0.00    -0.103 OA
ATOM      6  N   UNK d   1      22.544  14.333  30.296  0.00  0.00    -0.081 NA
ATOM      7  C   UNK d   1      21.716  13.644  31.098  0.00  0.00     0.229 A 
ATOM      8  N   UNK d   1      20.467  13.785  31.566  0.00  0.00    -0.196 N 
ATOM      9  N   UNK d   1      19.593  14.763  31.342  0.00  0.00     0.004 NA
ATOM     10  N   UNK d   1      18.478  14.462  32.026  0.00  0.00     0.018 NA
ATOM     11  N   UNK d   1      18.684  13.306  32.660  0.00  0.00    -0.138 NA
ATOM     12  C   UNK d   1      19.917  12.873  32.383  0.00  0.00     0.212 A 
ENDROOT
BRANCH   1  13
ATOM     13  N   UNK d   1      19.967  10.811  33.655  0.00  0.00    -0.338 N 
ATOM     14  H   UNK d   1      19.763  11.092  34.656  0.00  0.00     0.167 HD
BRANCH  13  15
ATOM     15  C   UNK d   1      19.551   9.514  33.286  0.00  0.00     0.035 A 
ATOM     16  C   UNK d   1      20.343   8.503  32.812  0.00  0.00     0.048 A 
ATOM     17  C   UNK d   1      19.893   7.241  32.459  0.00  0.00     0.013 A 
ATOM     18 Br   UNK d   1      21.082   5.901  31.806  0.00  0.00    -0.051 Br
ATOM     19  C   UNK d   1      18.558   6.960  32.586  0.00  0.00     0.019 A 
ATOM     20  C   UNK d   1      17.706   7.934  33.059  0.00  0.00     0.004 A 
ATOM     21  C   UNK d   1      18.186   9.174  33.399  0.00  0.00     0.029 A 
ENDBRANCH  13  15
ENDBRANCH   1  13
TORSDOF 2
ENDMDL
