MODEL 1
REMARK VINA RESULT:    -9.358      0.000      0.000
REMARK INTER + INTRA:         -11.966
REMARK INTER:                 -11.547
REMARK INTRA:                  -0.419
REMARK UNBOUND:                -0.419
REMARK  4 active torsions:
REMARK  status: ('A' for Active; 'I' for Inactive)
REMARK    1  A    between atoms: C_4  and  N_8 
REMARK    2  A    between atoms: C_11  and  C_13 
REMARK       I    between atoms: C_13  and  N_15 
REMARK    3  A    between atoms: N_15  and  C_16 
REMARK    4  A    between atoms: C_16  and  C_17 
ROOT
ATOM      1  C   UNK d   1      23.480  12.866  29.768  0.00  0.00     0.273 C 
ATOM      2  O   UNK d   1      24.674  12.535  29.563  0.00  0.00    -0.266 OA
ATOM      3  N   UNK d   1      22.982  14.034  29.155  0.00  0.00    -0.348 N 
ATOM      4  H   UNK d   1      21.987  14.294  29.338  0.00  0.00     0.163 HD
ENDROOT
BRANCH   1   5
ATOM      5  C   UNK d   1      22.668  12.019  30.633  0.00  0.00     0.165 A 
ATOM      6  N   UNK d   1      21.881  12.399  31.669  0.00  0.00    -0.125 NA
ATOM      7  N   UNK d   1      21.323  11.315  32.184  0.00  0.00    -0.060 NA
ATOM      8  N   UNK d   1      21.704  10.247  31.535  0.00  0.00    -0.224 N 
ATOM      9  C   UNK d   1      22.542  10.650  30.565  0.00  0.00     0.159 A 
BRANCH   8  10
ATOM     10  C   UNK d   1      21.348   8.875  31.751  0.00  0.00     0.060 A 
ATOM     11  C   UNK d   1      22.135   7.826  31.343  0.00  0.00     0.050 A 
ATOM     12  C   UNK d   1      21.743   6.503  31.578  0.00  0.00     0.013 A 
ATOM     13 Br   UNK d   1      22.833   5.045  31.013  0.00  0.00    -0.051 Br
ATOM     14  C   UNK d   1      20.559   6.222  32.223  0.00  0.00     0.019 A 
ATOM     15  C   UNK d   1      19.762   7.265  32.637  0.00  0.00     0.004 A 
ATOM     16  C   UNK d   1      20.165   8.583  32.396  0.00  0.00     0.032 A 
ENDBRANCH   8  10
ENDBRANCH   1   5
BRANCH   3  17
ATOM     17  C   UNK d   1      23.756  14.899  28.293  0.00  0.00     0.203 C 
BRANCH  17  18
ATOM     18  C   UNK d   1      23.226  16.307  28.321  0.00  0.00     0.148 A 
ATOM     19  N   UNK d   1      23.267  17.237  27.338  0.00  0.00    -0.319 N 
ATOM     20  C   UNK d   1      22.683  18.362  27.764  0.00  0.00     0.130 A 
ATOM     21  C   UNK d   1      23.752  17.378  25.975  0.00  0.00     0.132 C 
ATOM     22  N   UNK d   1      22.280  18.115  29.033  0.00  0.00    -0.135 NA
ATOM     23  C   UNK d   1      22.709  19.425  26.694  0.00  0.00     0.082 C 
ATOM     24  N   UNK d   1      22.605  16.882  29.367  0.00  0.00    -0.133 NA
ATOM     25  C   UNK d   1      23.785  18.881  25.777  0.00  0.00     0.028 C 
ENDBRANCH  17  18
ENDBRANCH   3  17
TORSDOF 4
ENDMDL
