/Users/jonathanwahrer/Desktop/Msc/3_Semester/Drug_Design_Praktikum/waehrer_HTS_screening/HTS_experiment/out/docking_results/vina_output/3elj/0201_docked.pdbqt
 OpenBabel03192217253D

 25 28  0  0  0  0  0  0  0  0999 V2000
   23.4800   12.8660   29.7680 C   0  0  0  0  0  0  0  0  0  0  0  0
   24.6740   12.5350   29.5630 O   0  0  0  0  0  0  0  0  0  0  0  0
   22.9820   14.0340   29.1550 N   0  0  0  0  0  0  0  0  0  0  0  0
   21.9870   14.2940   29.3380 H   0  0  0  0  0  0  0  0  0  0  0  0
   22.6680   12.0190   30.6330 C   0  0  0  0  0  0  0  0  0  0  0  0
   21.8810   12.3990   31.6690 N   0  0  0  0  0  0  0  0  0  0  0  0
   21.3230   11.3150   32.1840 N   0  0  0  0  0  0  0  0  0  0  0  0
   21.7040   10.2470   31.5350 N   0  0  0  0  0  0  0  0  0  0  0  0
   22.5420   10.6500   30.5650 C   0  0  0  0  0  3  0  0  0  0  0  0
   21.3480    8.8750   31.7510 C   0  0  0  0  0  0  0  0  0  0  0  0
   22.1350    7.8260   31.3430 C   0  0  0  0  0  3  0  0  0  0  0  0
   21.7430    6.5030   31.5780 C   0  0  0  0  0  0  0  0  0  0  0  0
   22.8330    5.0450   31.0130 Br  0  0  0  0  0  0  0  0  0  0  0  0
   20.5590    6.2220   32.2230 C   0  0  0  0  0  3  0  0  0  0  0  0
   19.7620    7.2650   32.6370 C   0  0  0  0  0  3  0  0  0  0  0  0
   20.1650    8.5830   32.3960 C   0  0  0  0  0  3  0  0  0  0  0  0
   23.7560   14.8990   28.2930 C   0  0  0  0  0  2  0  0  0  0  0  0
   23.2260   16.3070   28.3210 C   0  0  0  0  0  0  0  0  0  0  0  0
   23.2670   17.2370   27.3380 N   0  0  0  0  0  0  0  0  0  0  0  0
   22.6830   18.3620   27.7640 C   0  0  0  0  0  0  0  0  0  0  0  0
   23.7520   17.3780   25.9750 C   0  0  0  0  0  2  0  0  0  0  0  0
   22.2800   18.1150   29.0330 N   0  0  0  0  0  0  0  0  0  0  0  0
   22.7090   19.4250   26.6940 C   0  0  0  0  0  2  0  0  0  0  0  0
   22.6050   16.8820   29.3670 N   0  0  0  0  0  0  0  0  0  0  0  0
   23.7850   18.8810   25.7770 C   0  0  0  0  0  2  0  0  0  0  0  0
  1  5  1  0  0  0  0
  2  1  2  0  0  0  0
  3  4  1  0  0  0  0
  3  1  1  0  0  0  0
  5  6  1  0  0  0  0
  6  7  2  0  0  0  0
  8 10  1  0  0  0  0
  8  7  1  0  0  0  0
  9  5  2  0  0  0  0
  9  8  1  0  0  0  0
 10 16  1  0  0  0  0
 11 12  1  0  0  0  0
 11 10  2  0  0  0  0
 12 14  2  0  0  0  0
 13 12  1  0  0  0  0
 14 15  1  0  0  0  0
 16 15  2  0  0  0  0
 17 18  1  0  0  0  0
 17  3  1  0  0  0  0
 18 24  2  0  0  0  0
 19 20  1  0  0  0  0
 19 18  1  0  0  0  0
 20 22  2  0  0  0  0
 21 19  1  0  0  0  0
 22 24  1  0  0  0  0
 23 20  1  0  0  0  0
 25 21  1  0  0  0  0
 25 23  1  0  0  0  0
M  END
>  <Pose>
1

>  <Score>
-9.358

$$$$
