MODEL 1
REMARK VINA RESULT:    -8.573      0.000      0.000
REMARK INTER + INTRA:          -9.797
REMARK INTER:                  -9.575
REMARK INTRA:                  -0.222
REMARK UNBOUND:                -0.222
REMARK  2 active torsions:
REMARK  status: ('A' for Active; 'I' for Inactive)
REMARK    1  A    between atoms: C_4  and  N_8 
REMARK    2  A    between atoms: C_14  and  C_18 
ROOT
ATOM      1  N   UNK d   1      22.447   9.167  31.661  0.00  0.00    -0.246 N 
ATOM      2  C   UNK d   1      21.335   8.522  32.313  0.00  0.00     0.268 C 
ATOM      3  O   UNK d   1      20.699   9.030  33.280  0.00  0.00    -0.269 OA
ATOM      4  C   UNK d   1      21.088   7.230  31.676  0.00  0.00     0.285 C 
ATOM      5  O   UNK d   1      20.684   6.189  32.465  0.00  0.00    -0.260 OA
ATOM      6  N   UNK d   1      21.292   5.099  31.847  0.00  0.00    -0.264 N 
ATOM      7  C   UNK d   1      22.576   5.493  31.427  0.00  0.00     0.083 C 
ATOM      8  C   UNK d   1      22.498   6.827  31.313  0.00  0.00     0.080 C 
ATOM      9  C   UNK d   1      23.169   8.091  31.036  0.00  0.00     0.266 C 
ATOM     10  O   UNK d   1      24.212   8.221  30.362  0.00  0.00    -0.267 OA
ATOM     11  H   UNK d   1      20.874   4.168  31.720  0.00  0.00     0.194 HD
ENDROOT
BRANCH   1  12
ATOM     12  C   UNK d   1      22.793  10.536  31.626  0.00  0.00     0.047 A 
ATOM     13  C   UNK d   1      21.833  11.538  31.499  0.00  0.00     0.049 A 
ATOM     14  C   UNK d   1      22.125  12.878  31.462  0.00  0.00     0.013 A 
ATOM     15 Br   UNK d   1      20.782  14.220  31.283  0.00  0.00    -0.051 Br
ATOM     16  C   UNK d   1      23.434  13.304  31.552  0.00  0.00     0.019 A 
ATOM     17  C   UNK d   1      24.408  12.318  31.681  0.00  0.00     0.004 A 
ATOM     18  C   UNK d   1      24.104  10.979  31.716  0.00  0.00     0.030 A 
ENDBRANCH   1  12
BRANCH   7  19
ATOM     19  C   UNK d   1      23.737   4.673  31.119  0.00  0.00     0.036 A 
ATOM     20  C   UNK d   1      24.198   3.618  31.914  0.00  0.00     0.040 A 
ATOM     21  N   UNK d   1      25.247   3.081  31.324  0.00  0.00    -0.278 N 
ATOM     22  C   UNK d   1      23.627   3.189  33.212  0.00  0.00     0.071 C 
ATOM     23  N   UNK d   1      25.479   3.743  30.193  0.00  0.00    -0.184 NA
ATOM     24  C   UNK d   1      26.045   1.956  31.810  0.00  0.00     0.179 C 
ATOM     25  C   UNK d   1      24.585   4.707  30.048  0.00  0.00     0.154 A 
ENDBRANCH   7  19
TORSDOF 2
ENDMDL
