/Users/jonathanwahrer/Desktop/Msc/3_Semester/Drug_Design_Praktikum/waehrer_HTS_screening/HTS_experiment/out/docking_results/vina_output/3elj/0211_docked.pdbqt
 OpenBabel03192217253D

 22 25  0  0  1  0  0  0  0  0999 V2000
   22.9090   10.5740   31.8350 N   0  0  0  0  0  0  0  0  0  0  0  0
   24.3110   10.4080   31.9950 C   0  0  0  0  0  0  0  0  0  0  0  0
   24.8620    9.5780   32.8080 O   0  0  0  0  0  0  0  0  0  0  0  0
   25.0080   11.3310   31.0870 C   0  0  1  0  0  3  0  0  0  0  0  0
   25.2980   10.6050   29.8090 C   0  0  1  0  0  0  0  0  0  0  0  0
   23.9820   10.5010   29.2900 O   0  0  0  0  0  0  0  0  0  0  0  0
   23.7380   11.8980   29.2040 C   0  0  1  0  0  3  0  0  0  0  0  0
   23.9380   12.2940   30.6550 C   0  0  1  0  0  3  0  0  0  0  0  0
   22.7080   11.8980   31.3720 C   0  0  0  0  0  0  0  0  0  0  0  0
   21.6850   12.6140   31.5300 O   0  0  0  0  0  0  0  0  0  0  0  0
   24.9010   12.3070   28.3840 C   0  0  0  0  0  2  0  0  0  0  0  0
   25.8890   11.4710   28.7530 C   0  0  0  0  0  2  0  0  0  0  0  0
   21.8880    9.5840   32.0970 C   0  0  0  0  0  0  0  0  0  0  0  0
   22.0170    8.2670   31.6820 C   0  0  0  0  0  3  0  0  0  0  0  0
   21.0940    7.2950   31.8990 C   0  0  0  0  0  0  0  0  0  0  0  0
   21.4120    5.5220   31.2650 Br  0  0  0  0  0  0  0  0  0  0  0  0
   19.9390    7.6210   32.5820 C   0  0  0  0  0  3  0  0  0  0  0  0
   19.7630    8.9180   33.0170 C   0  0  0  0  0  3  0  0  0  0  0  0
   20.7320    9.8950   32.7760 C   0  0  0  0  0  3  0  0  0  0  0  0
   25.9730    9.2950   29.9600 C   0  0  0  0  0  2  0  0  0  0  0  0
   25.1800    8.3120   29.3680 O   0  0  0  0  0  0  0  0  0  0  0  0
   24.2530    8.3650   29.7120 H   0  0  0  0  0  0  0  0  0  0  0  0
  1  2  1  0  0  0  0
  1 13  1  0  0  0  0
  2  3  2  0  0  0  0
  4  2  1  1  0  0  0
  5 20  1  1  0  0  0
  5  4  1  0  0  0  0
  6  5  1  0  0  0  0
  7 11  1  6  0  0  0
  7  6  1  0  0  0  0
  7  8  1  0  0  0  0
  8  4  1  0  0  0  0
  8  9  1  1  0  0  0
  9 10  2  0  0  0  0
  9  1  1  0  0  0  0
 11 12  1  0  0  0  0
 12  5  1  0  0  0  0
 13 19  1  0  0  0  0
 14 15  1  0  0  0  0
 14 13  2  0  0  0  0
 15 17  2  0  0  0  0
 16 15  1  0  0  0  0
 17 18  1  0  0  0  0
 19 18  2  0  0  0  0
 21 22  1  0  0  0  0
 21 20  1  0  0  0  0
M  END
>  <Pose>
1

>  <Score>
-7.841

$$$$
