MODEL 1
REMARK VINA RESULT:    -9.677      0.000      0.000
REMARK INTER + INTRA:         -11.074
REMARK INTER:                 -10.808
REMARK INTRA:                  -0.266
REMARK UNBOUND:                -0.266
REMARK  2 active torsions:
REMARK  status: ('A' for Active; 'I' for Inactive)
REMARK    1  A    between atoms: C_4  and  N_8 
REMARK    2  A    between atoms: C_14  and  C_18 
ROOT
ATOM      1  N   UNK d   1      22.247   9.572  31.360  0.00  0.00    -0.246 N 
ATOM      2  C   UNK d   1      23.299   9.959  30.448  0.00  0.00     0.268 C 
ATOM      3  O   UNK d   1      23.704   9.354  29.450  0.00  0.00    -0.269 OA
ATOM      4  C   UNK d   1      23.842  11.265  30.920  0.00  0.00     0.285 C 
ATOM      5  O   UNK d   1      24.222  12.125  29.905  0.00  0.00    -0.260 OA
ATOM      6  N   UNK d   1      23.982  13.351  30.477  0.00  0.00    -0.264 N 
ATOM      7  C   UNK d   1      22.695  13.206  31.105  0.00  0.00     0.083 C 
ATOM      8  C   UNK d   1      22.567  11.934  31.394  0.00  0.00     0.080 C 
ATOM      9  C   UNK d   1      21.797  10.813  31.947  0.00  0.00     0.266 C 
ATOM     10  O   UNK d   1      20.905  10.968  32.788  0.00  0.00    -0.267 OA
ATOM     11  H   UNK d   1      24.565  14.195  30.474  0.00  0.00     0.194 HD
ENDROOT
BRANCH   1  12
ATOM     12  C   UNK d   1      21.794   8.253  31.594  0.00  0.00     0.047 A 
ATOM     13  C   UNK d   1      22.633   7.184  31.376  0.00  0.00     0.049 A 
ATOM     14  C   UNK d   1      22.208   5.870  31.594  0.00  0.00     0.013 A 
ATOM     15 Br   UNK d   1      23.389   4.410  31.283  0.00  0.00    -0.051 Br
ATOM     16  C   UNK d   1      20.934   5.597  32.035  0.00  0.00     0.019 A 
ATOM     17  C   UNK d   1      20.093   6.666  32.254  0.00  0.00     0.004 A 
ATOM     18  C   UNK d   1      20.523   7.983  32.034  0.00  0.00     0.030 A 
ENDBRANCH   1  12
BRANCH   7  19
ATOM     19  C   UNK d   1      21.708  14.217  31.373  0.00  0.00     0.036 A 
ATOM     20  C   UNK d   1      20.430  14.182  30.818  0.00  0.00     0.127 A 
ATOM     21  N   UNK d   1      19.723  15.240  31.253  0.00  0.00    -0.284 N 
ATOM     22  N   UNK d   1      20.534  15.911  32.052  0.00  0.00    -0.177 NA
ATOM     23  C   UNK d   1      18.332  15.570  30.901  0.00  0.00     0.179 C 
ATOM     24  C   UNK d   1      21.734  15.345  32.160  0.00  0.00     0.065 A 
ATOM     25  C   UNK d   1      22.908  15.807  32.976  0.00  0.00     0.073 C 
ENDBRANCH   7  19
TORSDOF 2
ENDMDL
