/Users/jonathanwahrer/Desktop/Msc/3_Semester/Drug_Design_Praktikum/waehrer_HTS_screening/HTS_experiment/out/docking_results/vina_output/3elj/0216_docked.pdbqt
 OpenBabel03192217253D

 28 31  0  0  1  0  0  0  0  0999 V2000
   24.6420    8.0340   30.1620 C   0  0  0  0  0  0  0  0  0  0  0  0
   25.0080    7.3780   29.1550 O   0  0  0  0  0  0  0  0  0  0  0  0
   25.2610    9.2490   30.5240 N   0  0  0  0  0  0  0  0  0  0  0  0
   24.8610   10.0370   31.6820 C   0  0  0  0  0  2  0  0  0  0  0  0
   25.1860   11.5010   31.4160 C   0  0  0  0  0  2  0  0  0  0  0  0
   25.1800   11.8290   30.0040 N   0  0  0  0  0  0  0  0  0  0  0  0
   26.2750   11.1850   29.3690 C   0  0  0  0  0  2  0  0  0  0  0  0
   26.3600    9.7290   29.6770 C   0  0  0  0  0  2  0  0  0  0  0  0
   23.5500    7.5130   30.9600 C   0  0  1  0  0  3  0  0  0  0  0  0
   22.1700    7.9500   30.4250 C   0  0  0  0  0  2  0  0  0  0  0  0
   21.3690    7.2170   31.3930 N   0  0  0  0  0  0  0  0  0  0  0  0
   21.9680    5.9260   31.3980 C   0  0  0  0  0  0  0  0  0  0  0  0
   23.3370    6.0020   30.8170 C   0  0  0  0  0  2  0  0  0  0  0  0
   21.4230    4.8830   31.8260 O   0  0  0  0  0  0  0  0  0  0  0  0
   20.2780    7.7590   32.1110 C   0  0  0  0  0  0  0  0  0  0  0  0
   20.3410    9.0570   32.5820 C   0  0  0  0  0  3  0  0  0  0  0  0
   19.3060    9.6450   33.3000 C   0  0  0  0  0  0  0  0  0  0  0  0
   19.4920   11.4260   33.8990 Br  0  0  0  0  0  0  0  0  0  0  0  0
   18.1610    8.8910   33.5540 C   0  0  0  0  0  3  0  0  0  0  0  0
   18.0540    7.5920   33.1050 C   0  0  0  0  0  3  0  0  0  0  0  0
   19.1190    7.0730   32.3980 C   0  0  0  0  0  3  0  0  0  0  0  0
   23.8990   11.6690   29.4130 C   0  0  0  0  0  2  0  0  0  0  0  0
   23.2140   12.9660   29.0660 C   0  0  0  0  0  2  0  0  0  0  0  0
   22.5640   13.6010   30.1770 N   0  0  0  0  0  0  0  0  0  0  0  0
   22.5800   14.8890   30.5230 C   0  0  0  0  0  3  0  0  0  0  0  0
   21.8430   15.0650   31.6410 N   0  0  0  0  0  0  0  0  0  0  0  0
   21.3540   13.8750   32.0090 C   0  0  0  0  0  3  0  0  0  0  0  0
   21.8120   12.9650   31.0860 C   0  0  0  0  0  3  0  0  0  0  0  0
  1  3  1  0  0  0  0
  2  1  2  0  0  0  0
  3  4  1  0  0  0  0
  5  4  1  0  0  0  0
  6  5  1  0  0  0  0
  7  8  1  0  0  0  0
  7  6  1  0  0  0  0
  8  3  1  0  0  0  0
  9  1  1  6  0  0  0
 10  9  1  0  0  0  0
 10 11  1  0  0  0  0
 11 12  1  0  0  0  0
 11 15  1  0  0  0  0
 12 14  2  0  0  0  0
 13  9  1  0  0  0  0
 13 12  1  0  0  0  0
 15 21  2  0  0  0  0
 15 16  1  0  0  0  0
 16 17  2  0  0  0  0
 17 19  1  0  0  0  0
 17 18  1  0  0  0  0
 20 19  2  0  0  0  0
 21 20  1  0  0  0  0
 22  6  1  0  0  0  0
 23 22  1  0  0  0  0
 23 24  1  0  0  0  0
 24 25  1  0  0  0  0
 24 28  1  0  0  0  0
 25 26  2  0  0  0  0
 26 27  1  0  0  0  0
 28 27  2  0  0  0  0
M  END
>  <Pose>
1

>  <Score>
-7.884

$$$$
