MODEL 1
REMARK VINA RESULT:    -8.177      0.000      0.000
REMARK INTER + INTRA:         -12.241
REMARK INTER:                 -11.045
REMARK INTRA:                  -1.196
REMARK UNBOUND:                -1.196
REMARK  6 active torsions:
REMARK  status: ('A' for Active; 'I' for Inactive)
REMARK    1  A    between atoms: C_4  and  O_8 
REMARK    2  A    between atoms: O_8  and  C_9 
REMARK    3  A    between atoms: C_9  and  C_10 
REMARK    4  A    between atoms: C_10  and  N_11 
REMARK       I    between atoms: N_11  and  C_12 
REMARK    5  A    between atoms: C_12  and  C_14 
REMARK    6  A    between atoms: C_14  and  N_15 
ROOT
ATOM      1  N   UNK d   1      23.465   7.204  30.733  0.00  0.00    -0.358 N 
ATOM      2  C   UNK d   1      24.518   7.522  29.832  0.00  0.00     0.236 C 
ATOM      3  O   UNK d   1      24.549   6.815  28.765  0.00  0.00    -0.272 OA
ATOM      4  H   UNK d   1      23.389   7.752  31.616  0.00  0.00     0.162 HD
ENDROOT
BRANCH   2   5
ATOM      5  C   UNK d   1      25.533   8.573  30.051  0.00  0.00     0.237 C 
BRANCH   5   6
ATOM      6  N   UNK d   1      24.997   9.869  30.368  0.00  0.00    -0.279 N 
ATOM      7  C   UNK d   1      24.784  10.295  31.724  0.00  0.00     0.232 C 
ATOM      8  O   UNK d   1      24.729   9.580  32.756  0.00  0.00    -0.272 OA
ATOM      9  C   UNK d   1      24.635  11.750  31.713  0.00  0.00     0.100 C 
ATOM     10  C   UNK d   1      24.777  12.204  30.246  0.00  0.00     0.100 C 
ATOM     11  C   UNK d   1      23.248  12.248  32.014  0.00  0.00     0.022 C 
ATOM     12  C   UNK d   1      23.612  13.088  29.971  0.00  0.00     0.022 C 
ATOM     13  C   UNK d   1      24.609  10.935  29.491  0.00  0.00     0.232 C 
ATOM     14  C   UNK d   1      23.337  13.651  31.381  0.00  0.00     0.018 C 
ATOM     15  C   UNK d   1      22.413  12.221  29.853  0.00  0.00    -0.025 C 
ATOM     16  C   UNK d   1      22.300  11.620  31.033  0.00  0.00    -0.025 C 
ATOM     17  O   UNK d   1      24.208  10.790  28.323  0.00  0.00    -0.272 OA
ENDBRANCH   5   6
ENDBRANCH   2   5
BRANCH   1  18
ATOM     18  C   UNK d   1      22.511   6.169  30.475  0.00  0.00     0.149 C 
BRANCH  18  19
ATOM     19  C   UNK d   1      21.848   5.711  31.784  0.00  0.00     0.195 C 
BRANCH  19  20
ATOM     20  O   UNK d   1      20.867   6.482  32.123  0.00  0.00    -0.350 OA
BRANCH  20  21
ATOM     21  C   UNK d   1      19.952   7.284  32.525  0.00  0.00     0.070 A 
ATOM     22  C   UNK d   1      20.256   8.634  32.777  0.00  0.00     0.055 A 
ATOM     23  C   UNK d   1      19.329   9.543  33.209  0.00  0.00     0.013 A 
ATOM     24 Br   UNK d   1      19.780  11.369  33.540  0.00  0.00    -0.051 Br
ATOM     25  C   UNK d   1      18.033   9.155  33.416  0.00  0.00     0.019 A 
ATOM     26  C   UNK d   1      17.673   7.842  33.186  0.00  0.00     0.004 A 
ATOM     27  C   UNK d   1      18.606   6.931  32.753  0.00  0.00     0.037 A 
ENDBRANCH  20  21
ENDBRANCH  19  20
ENDBRANCH  18  19
ENDBRANCH   1  18
TORSDOF 6
ENDMDL
