/Users/jonathanwahrer/Desktop/Msc/3_Semester/Drug_Design_Praktikum/waehrer_HTS_screening/HTS_experiment/out/docking_results/vina_output/3elj/0226_docked.pdbqt
 OpenBabel03192217263D

 30 33  0  0  0  0  0  0  0  0999 V2000
   24.6430   10.0820   29.9380 N   0  0  0  0  0  0  0  0  0  0  0  0
   25.7430    9.3860   29.6030 C   0  0  0  0  0  0  0  0  0  0  0  0
   26.8090   10.2500   29.4430 C   0  0  0  0  0  0  0  0  0  0  0  0
   26.3110   11.4660   29.6930 N   0  0  0  0  0  0  0  0  0  0  0  0
   25.0020   11.3950   29.9960 C   0  0  0  0  0  0  0  0  0  0  0  0
   28.0210    9.7710   29.1070 N   0  0  0  0  0  0  0  0  0  0  0  0
   28.2110    8.4530   28.9220 C   0  0  0  0  0  0  0  0  0  0  0  0
   29.3250    7.9650   28.6080 O   0  0  0  0  0  0  0  0  0  0  0  0
   27.1690    7.5910   29.0770 N   0  0  0  0  0  0  0  0  0  0  0  0
   25.9390    8.0210   29.4120 C   0  0  0  0  0  0  0  0  0  0  0  0
   24.9890    7.1830   29.5460 O   0  0  0  0  0  0  0  0  0  0  0  0
   29.1590   10.6500   28.9310 C   0  0  0  0  0  1  0  0  0  0  0  0
   27.3600    6.5740   28.9250 H   0  0  0  0  0  0  0  0  0  0  0  0
   23.3310    9.5620   30.2010 C   0  0  0  0  0  2  0  0  0  0  0  0
   23.0710    9.3290   31.6560 C   0  0  0  0  0  0  0  0  0  0  0  0
   24.0080    9.3070   32.4720 O   0  0  0  0  0  0  0  0  0  0  0  0
   21.7110    9.1250   32.1500 C   0  0  0  0  0  0  0  0  0  0  0  0
   21.0930    7.9010   32.0730 C   0  0  0  0  0  3  0  0  0  0  0  0
   19.8030    7.7110   32.5390 C   0  0  0  0  0  3  0  0  0  0  0  0
   19.0740    8.7490   33.1030 C   0  0  0  0  0  0  0  0  0  0  0  0
   17.3050    8.4460   33.7320 Br  0  0  0  0  0  0  0  0  0  0  0  0
   19.6920    9.9770   33.1800 C   0  0  0  0  0  3  0  0  0  0  0  0
   20.9750   10.1510   32.7140 C   0  0  0  0  0  3  0  0  0  0  0  0
   24.1090   12.4420   30.3270 N   0  0  0  0  0  0  0  0  0  0  0  0
   23.9790   12.8360   31.6930 C   0  0  0  0  0  2  0  0  0  0  0  0
   23.3240   14.1390   31.9630 C   0  0  0  0  0  2  0  0  0  0  0  0
   22.4200   14.6040   30.9530 N   0  0  0  0  0  0  0  0  0  0  0  0
   23.1080   14.5550   29.6780 C   0  0  0  0  0  2  0  0  0  0  0  0
   21.1650   13.9080   30.9370 C   0  0  0  0  0  1  0  0  0  0  0  0
   23.3550   13.0930   29.3000 C   0  0  0  0  0  2  0  0  0  0  0  0
  1  5  1  0  0  0  0
  1 14  1  0  0  0  0
  2  1  1  0  0  0  0
  3  2  2  0  0  0  0
  3  4  1  0  0  0  0
  4  5  2  0  0  0  0
  5 24  1  0  0  0  0
  6  3  1  0  0  0  0
  7  9  1  0  0  0  0
  7  6  1  0  0  0  0
  8  7  2  0  0  0  0
  9 10  1  0  0  0  0
 10 11  2  0  0  0  0
 10  2  1  0  0  0  0
 12  6  1  0  0  0  0
 13  9  1  0  0  0  0
 14 15  1  0  0  0  0
 15 17  1  0  0  0  0
 15 16  2  0  0  0  0
 17 23  1  0  0  0  0
 18 17  2  0  0  0  0
 18 19  1  0  0  0  0
 19 20  2  0  0  0  0
 20 22  1  0  0  0  0
 20 21  1  0  0  0  0
 23 22  2  0  0  0  0
 24 25  1  0  0  0  0
 25 26  1  0  0  0  0
 27 26  1  0  0  0  0
 28 27  1  0  0  0  0
 29 27  1  0  0  0  0
 30 28  1  0  0  0  0
 30 24  1  0  0  0  0
M  END
>  <Pose>
1

>  <Score>
-8.389

$$$$
