MODEL 1
REMARK VINA RESULT:    -6.210      0.000      0.000
REMARK INTER + INTRA:          -9.103
REMARK INTER:                  -8.751
REMARK INTRA:                  -0.352
REMARK UNBOUND:                -0.352
REMARK  7 active torsions:
REMARK  status: ('A' for Active; 'I' for Inactive)
REMARK    1  A    between atoms: C_5  and  C_8 
REMARK    2  A    between atoms: C_8  and  C_10 
REMARK    3  A    between atoms: C_11  and  C_25 
REMARK    4  A    between atoms: N_12  and  C_17 
REMARK    5  A    between atoms: C_17  and  C_18 
REMARK    6  A    between atoms: C_18  and  N_19 
REMARK    7  A    between atoms: C_27  and  O_32 
ROOT
ATOM      1  C   UNK d   1      26.643   4.902  29.595  0.00  0.00     0.167 C 
ATOM      2  C   UNK d   1      27.946   5.594  29.276  0.00  0.00     0.140 C 
ATOM      3  N   UNK d   1      28.921   4.658  29.787  0.00  0.00    -0.334 N 
ATOM      4  C   UNK d   1      28.376   3.359  29.580  0.00  0.00     0.291 C 
ATOM      5  O   UNK d   1      28.985   2.260  29.763  0.00  0.00    -0.264 OA
ATOM      6  C   UNK d   1      26.984   3.513  29.114  0.00  0.00     0.230 C 
ATOM      7  O   UNK d   1      26.301   2.686  28.490  0.00  0.00    -0.286 OA
ENDROOT
BRANCH   1   8
ATOM      8  C   UNK d   1      25.475   5.444  28.926  0.00  0.00     0.173 C 
ATOM      9  O   UNK d   1      25.219   5.158  27.739  0.00  0.00    -0.291 OA
BRANCH   8  10
ATOM     10  C   UNK d   1      24.579   6.337  29.638  0.00  0.00     0.011 A 
ATOM     11  C   UNK d   1      24.898   7.689  29.805  0.00  0.00     0.016 A 
ATOM     12  C   UNK d   1      24.071   8.550  30.478  0.00  0.00     0.020 A 
ATOM     13  C   UNK d   1      22.892   8.080  31.006  0.00  0.00     0.011 A 
ATOM     14 Br   UNK d   1      21.760   9.287  31.935  0.00  0.00    -0.051 Br
ATOM     15  C   UNK d   1      22.523   6.768  30.877  0.00  0.00     0.020 A 
ATOM     16  C   UNK d   1      23.382   5.929  30.192  0.00  0.00     0.016 A 
ENDBRANCH   8  10
ENDBRANCH   1   8
BRANCH   2  17
ATOM     17  C   UNK d   1      28.119   5.935  27.872  0.00  0.00    -0.031 A 
ATOM     18  C   UNK d   1      27.788   7.201  27.368  0.00  0.00     0.049 A 
ATOM     19  C   UNK d   1      27.959   7.518  26.036  0.00  0.00     0.105 A 
ATOM     20  C   UNK d   1      28.469   6.594  25.143  0.00  0.00     0.140 A 
ATOM     21  C   UNK d   1      28.802   5.343  25.618  0.00  0.00     0.043 A 
ATOM     22  O   UNK d   1      28.651   6.887  23.797  0.00  0.00    -0.189 OA
ATOM     23  C   UNK d   1      28.624   5.039  26.958  0.00  0.00     0.012 A 
BRANCH  19  24
ATOM     24  O   UNK d   1      27.634   8.765  25.532  0.00  0.00    -0.353 OA
ATOM     25  C   UNK d   1      28.260   9.955  25.936  0.00  0.00     0.210 C 
ENDBRANCH  19  24
ENDBRANCH   2  17
BRANCH   3  26
ATOM     26  C   UNK d   1      30.204   4.900  30.399  0.00  0.00     0.154 C 
BRANCH  26  27
ATOM     27  C   UNK d   1      30.796   6.230  30.044  0.00  0.00     0.255 C 
BRANCH  27  28
ATOM     28  N   UNK d   1      30.456   7.298  30.903  0.00  0.00    -0.066 N 
ATOM     29  C   UNK d   1      30.452   8.534  30.114  0.00  0.00     0.261 C 
ATOM     30  C   UNK d   1      31.825   8.958  29.707  0.00  0.00     0.195 C 
ATOM     31  O   UNK d   1      32.845   8.328  30.376  0.00  0.00    -0.388 OA
ATOM     32  C   UNK d   1      32.579   8.238  31.720  0.00  0.00     0.195 C 
ATOM     33  C   UNK d   1      31.299   7.508  32.026  0.00  0.00     0.261 C 
ATOM     34  H   UNK d   1      29.463   7.203  31.254  0.00  0.00     0.280 HD
ENDBRANCH  27  28
ENDBRANCH  26  27
ENDBRANCH   3  26
TORSDOF 7
ENDMDL
