/Users/jonathanwahrer/Desktop/Msc/3_Semester/Drug_Design_Praktikum/waehrer_HTS_screening/HTS_experiment/out/docking_results/vina_output/3elj/0231_docked.pdbqt
 OpenBabel03192217263D

 34 37  0  0  1  0  0  0  0  0999 V2000
   26.6430    4.9020   29.5950 C   0  0  2  0  0  3  0  0  0  0  0  0
   27.9460    5.5940   29.2760 C   0  0  1  0  0  3  0  0  0  0  0  0
   28.9210    4.6580   29.7870 N   0  0  0  0  0  0  0  0  0  0  0  0
   28.3760    3.3590   29.5800 C   0  0  0  0  0  0  0  0  0  0  0  0
   28.9850    2.2600   29.7630 O   0  0  0  0  0  0  0  0  0  0  0  0
   26.9840    3.5130   29.1140 C   0  0  0  0  0  0  0  0  0  0  0  0
   26.3010    2.6860   28.4900 O   0  0  0  0  0  0  0  0  0  0  0  0
   25.4750    5.4440   28.9260 C   0  0  0  0  0  0  0  0  0  0  0  0
   25.2190    5.1580   27.7390 O   0  0  0  0  0  0  0  0  0  0  0  0
   24.5790    6.3370   29.6380 C   0  0  0  0  0  0  0  0  0  0  0  0
   24.8980    7.6890   29.8050 C   0  0  0  0  0  3  0  0  0  0  0  0
   24.0710    8.5500   30.4780 C   0  0  0  0  0  3  0  0  0  0  0  0
   22.8920    8.0800   31.0060 C   0  0  0  0  0  0  0  0  0  0  0  0
   21.7600    9.2870   31.9350 Br  0  0  0  0  0  0  0  0  0  0  0  0
   22.5230    6.7680   30.8770 C   0  0  0  0  0  3  0  0  0  0  0  0
   23.3820    5.9290   30.1920 C   0  0  0  0  0  3  0  0  0  0  0  0
   28.1190    5.9350   27.8720 C   0  0  0  0  0  0  0  0  0  0  0  0
   27.7880    7.2010   27.3680 C   0  0  0  0  0  3  0  0  0  0  0  0
   27.9590    7.5180   26.0360 C   0  0  0  0  0  0  0  0  0  0  0  0
   28.4690    6.5940   25.1430 C   0  0  0  0  0  0  0  0  0  0  0  0
   28.8020    5.3430   25.6180 C   0  0  0  0  0  3  0  0  0  0  0  0
   28.6510    6.8870   23.7970 O   0  0  0  0  0  1  0  0  0  0  0  0
   28.6240    5.0390   26.9580 C   0  0  0  0  0  3  0  0  0  0  0  0
   27.6340    8.7650   25.5320 O   0  0  0  0  0  0  0  0  0  0  0  0
   28.2600    9.9550   25.9360 C   0  0  0  0  0  1  0  0  0  0  0  0
   30.2040    4.9000   30.3990 C   0  0  0  0  0  2  0  0  0  0  0  0
   30.7960    6.2300   30.0440 C   0  0  0  0  0  2  0  0  0  0  0  0
   30.4560    7.2980   30.9030 N   0  0  0  0  0  4  0  0  0  0  0  0
   30.4520    8.5340   30.1140 C   0  0  0  0  0  2  0  0  0  0  0  0
   31.8250    8.9580   29.7070 C   0  0  0  0  0  2  0  0  0  0  0  0
   32.8450    8.3280   30.3760 O   0  0  0  0  0  0  0  0  0  0  0  0
   32.5790    8.2380   31.7200 C   0  0  0  0  0  2  0  0  0  0  0  0
   31.2990    7.5080   32.0260 C   0  0  0  0  0  2  0  0  0  0  0  0
   29.4630    7.2030   31.2540 H   0  0  0  0  0  0  0  0  0  0  0  0
  1  8  1  6  0  0  0
  2 17  1  6  0  0  0
  2  1  1  0  0  0  0
  2  3  1  0  0  0  0
  3 26  1  0  0  0  0
  4  5  2  0  0  0  0
  4  3  1  0  0  0  0
  6  4  1  0  0  0  0
  6  1  1  0  0  0  0
  7  6  2  0  0  0  0
  8 10  1  0  0  0  0
  9  8  2  0  0  0  0
 10 11  2  0  0  0  0
 10 16  1  0  0  0  0
 11 12  1  0  0  0  0
 12 13  2  0  0  0  0
 13 14  1  0  0  0  0
 15 13  1  0  0  0  0
 16 15  2  0  0  0  0
 18 17  1  0  0  0  0
 19 18  2  0  0  0  0
 20 21  2  0  0  0  0
 20 19  1  0  0  0  0
 21 23  1  0  0  0  0
 22 20  1  0  0  0  0
 23 17  2  0  0  0  0
 24 25  1  0  0  0  0
 24 19  1  0  0  0  0
 27 26  1  0  0  0  0
 27 28  1  0  0  0  0
 28 34  1  0  0  0  0
 28 33  1  0  0  0  0
 29 28  1  0  0  0  0
 30 29  1  0  0  0  0
 30 31  1  0  0  0  0
 31 32  1  0  0  0  0
 32 33  1  0  0  0  0
M  END
>  <Pose>
1

>  <Score>
-6.210

$$$$
