/Users/jonathanwahrer/Desktop/Msc/3_Semester/Drug_Design_Praktikum/waehrer_HTS_screening/HTS_experiment/out/docking_results/vina_output/3elj/0235_docked.pdbqt
 OpenBabel03192217263D

 25 28  0  0  1  0  0  0  0  0999 V2000
   24.4200    5.8900   29.2300 C   0  0  1  0  0  3  0  0  0  0  0  0
   25.6610    6.3190   28.6040 N   0  0  0  0  0  0  0  0  0  0  0  0
   26.5150    7.3990   28.6880 N   0  0  0  0  0  2  0  0  0  0  0  0
   27.6420    7.4660   28.0720 C   0  0  0  0  0  3  0  0  0  0  0  0
   28.0610    6.3700   27.2290 C   0  0  0  0  0  3  0  0  0  0  0  0
   27.2900    5.3180   27.0760 C   0  0  0  0  0  3  0  0  0  0  0  0
   25.9960    5.2040   27.7220 C   0  0  0  0  0  0  0  0  0  0  0  0
   25.8140    4.0460   28.6370 C   0  0  2  0  0  3  0  0  0  0  0  0
   24.8140    4.5080   29.7030 C   0  0  1  0  0  3  0  0  0  0  0  0
   25.5970    4.5270   30.9370 C   0  0  0  0  0  0  0  0  0  0  0  0
   25.2570    5.0920   32.0130 O   0  0  0  0  0  0  0  0  0  0  0  0
   26.7990    3.8110   30.7280 N   0  0  0  0  0  0  0  0  0  0  0  0
   27.0400    3.6430   29.3370 C   0  0  0  0  0  0  0  0  0  0  0  0
   28.0960    3.2300   28.8010 O   0  0  0  0  0  0  0  0  0  0  0  0
   24.0380    6.7850   30.3320 C   0  0  0  0  0  0  0  0  0  0  0  0
   24.9390    7.5790   30.7560 O   0  0  0  0  0  0  0  0  0  0  0  0
   22.7370    6.8320   30.9610 C   0  0  0  0  0  0  0  0  0  0  0  0
   21.9510    5.7200   31.1150 C   0  0  0  0  0  3  0  0  0  0  0  0
   20.7220    5.8230   31.7260 C   0  0  0  0  0  3  0  0  0  0  0  0
   20.2140    7.0100   32.2080 C   0  0  0  0  0  0  0  0  0  0  0  0
   18.5000    7.0850   33.0460 Br  0  0  0  0  0  0  0  0  0  0  0  0
   21.0070    8.1260   32.0510 C   0  0  0  0  0  3  0  0  0  0  0  0
   22.2370    8.0320   31.4410 C   0  0  0  0  0  3  0  0  0  0  0  0
   27.6730    3.3100   31.7630 C   0  0  0  0  0  2  0  0  0  0  0  0
   27.1130    2.1330   32.5020 C   0  0  0  0  0  1  0  0  0  0  0  0
  1  9  1  0  0  0  0
  1 15  1  1  0  0  0
  2  3  1  0  0  0  0
  2  1  1  0  0  0  0
  4  3  1  0  0  0  0
  5  4  2  0  0  0  0
  6  5  1  0  0  0  0
  6  7  2  0  0  0  0
  7  2  1  0  0  0  0
  8  7  1  6  0  0  0
  8 13  1  0  0  0  0
  8  9  1  0  0  0  0
  9 10  1  1  0  0  0
 10 11  2  0  0  0  0
 12 10  1  0  0  0  0
 12 24  1  0  0  0  0
 13 12  1  0  0  0  0
 14 13  2  0  0  0  0
 15 16  2  0  0  0  0
 15 17  1  0  0  0  0
 17 18  2  0  0  0  0
 17 23  1  0  0  0  0
 18 19  1  0  0  0  0
 19 20  2  0  0  0  0
 20 21  1  0  0  0  0
 22 20  1  0  0  0  0
 23 22  2  0  0  0  0
 24 25  1  0  0  0  0
M  END
>  <Pose>
1

>  <Score>
-6.956

$$$$
