/Users/jonathanwahrer/Desktop/Msc/3_Semester/Drug_Design_Praktikum/waehrer_HTS_screening/HTS_experiment/out/docking_results/vina_output/3elj/0243_docked.pdbqt
 OpenBabel03192217273D

 30 33  0  0  1  0  0  0  0  0999 V2000
   24.7350    6.5920   29.7620 C   0  0  2  0  0  3  0  0  0  0  0  0
   25.4710    7.8830   30.0240 C   0  0  0  0  0  2  0  0  0  0  0  0
   24.4290    8.8220   30.3790 N   0  0  0  0  0  0  0  0  0  0  0  0
   23.1380    8.3250   29.9300 C   0  0  1  0  0  3  0  0  0  0  0  0
   23.3320    6.9610   29.3670 C   0  0  0  0  0  2  0  0  0  0  0  0
   22.2540    8.3550   31.1170 C   0  0  0  0  0  0  0  0  0  0  0  0
   21.5720    7.3450   31.4010 O   0  0  0  0  0  0  0  0  0  0  0  0
   22.2150    9.5400   31.8910 N   0  0  0  0  0  0  0  0  0  0  0  0
   23.2340   10.5640   31.8420 C   0  0  1  0  0  3  0  0  0  0  0  0
   24.3960   10.0770   31.0450 C   0  0  0  0  0  0  0  0  0  0  0  0
   25.4430   10.8110   30.9380 O   0  0  0  0  0  0  0  0  0  0  0  0
   21.3830    9.6510   32.5290 H   0  0  0  0  0  0  0  0  0  0  0  0
   24.6630    5.7520   30.9300 N   0  0  0  0  0  0  0  0  0  0  0  0
   24.8920    4.3770   30.8420 C   0  0  0  0  0  0  0  0  0  0  0  0
   25.1720    3.8310   29.7210 O   0  0  0  0  0  0  0  0  0  0  0  0
   24.4370    6.1910   31.8380 H   0  0  0  0  0  0  0  0  0  0  0  0
   24.8330    3.4690   31.9970 C   0  0  0  0  0  0  0  0  0  0  0  0
   23.6990    3.3560   32.7730 C   0  0  0  0  0  3  0  0  0  0  0  0
   23.6420    2.5030   33.8570 C   0  0  0  0  0  3  0  0  0  0  0  0
   24.7170    1.7200   34.2230 C   0  0  0  0  0  0  0  0  0  0  0  0
   24.6850    0.5330   35.7060 Br  0  0  0  0  0  0  0  0  0  0  0  0
   25.8600    1.8360   33.4390 C   0  0  0  0  0  3  0  0  0  0  0  0
   25.9050    2.6880   32.3620 C   0  0  0  0  0  3  0  0  0  0  0  0
   22.6780   11.8650   31.3150 C   0  0  0  0  0  2  0  0  0  0  0  0
   21.3930   12.2180   31.9800 C   0  0  0  0  0  0  0  0  0  0  0  0
   20.7970   11.3370   32.8830 C   0  0  0  0  0  3  0  0  0  0  0  0
   19.6100   11.7150   33.4690 C   0  0  0  0  0  3  0  0  0  0  0  0
   18.9890   12.9230   33.2030 C   0  0  0  0  0  3  0  0  0  0  0  0
   19.6130   13.7580   32.3070 C   0  0  0  0  0  3  0  0  0  0  0  0
   20.8010   13.4340   31.6890 C   0  0  0  0  0  3  0  0  0  0  0  0
  1  2  1  0  0  0  0
  1 13  1  1  0  0  0
  2  3  1  0  0  0  0
  3 10  1  0  0  0  0
  4  5  1  1  0  0  0
  4  3  1  0  0  0  0
  4  6  1  0  0  0  0
  5  1  1  0  0  0  0
  6  7  2  0  0  0  0
  6  8  1  0  0  0  0
  8 12  1  0  0  0  0
  9 24  1  6  0  0  0
  9  8  1  0  0  0  0
 10  9  1  0  0  0  0
 11 10  2  0  0  0  0
 13 16  1  0  0  0  0
 14 13  1  0  0  0  0
 14 17  1  0  0  0  0
 15 14  2  0  0  0  0
 17 23  2  0  0  0  0
 17 18  1  0  0  0  0
 18 19  2  0  0  0  0
 19 20  1  0  0  0  0
 20 21  1  0  0  0  0
 22 20  2  0  0  0  0
 23 22  1  0  0  0  0
 24 25  1  0  0  0  0
 25 26  1  0  0  0  0
 26 27  2  0  0  0  0
 28 27  1  0  0  0  0
 29 28  2  0  0  0  0
 30 25  2  0  0  0  0
 30 29  1  0  0  0  0
M  END
>  <Pose>
1

>  <Score>
-8.966

$$$$
