MODEL 1
REMARK VINA RESULT:    -8.004      0.000      0.000
REMARK INTER + INTRA:          -9.382
REMARK INTER:                  -8.940
REMARK INTRA:                  -0.442
REMARK UNBOUND:                -0.442
REMARK  2 active torsions:
REMARK  status: ('A' for Active; 'I' for Inactive)
REMARK    1  A    between atoms: C_5  and  C_8 
REMARK       I    between atoms: C_8  and  N_10 
REMARK    2  A    between atoms: N_10  and  C_11 
ROOT
ATOM      1  C   UNK d   1      24.572   6.591  30.246  0.00  0.00     0.105 C 
ATOM      2  C   UNK d   1      24.853   8.010  30.682  0.00  0.00     0.152 C 
ATOM      3  N   UNK d   1      23.546   8.489  31.096  0.00  0.00    -0.335 N 
ATOM      4  C   UNK d   1      22.523   7.745  30.388  0.00  0.00     0.181 C 
ATOM      5  C   UNK d   1      23.185   6.630  29.651  0.00  0.00     0.061 C 
ATOM      6  C   UNK d   1      21.557   7.275  31.412  0.00  0.00     0.243 C 
ATOM      7  O   UNK d   1      21.107   6.106  31.457  0.00  0.00    -0.271 OA
ATOM      8  N   UNK d   1      21.099   8.173  32.407  0.00  0.00    -0.337 N 
ATOM      9  C   UNK d   1      21.882   9.309  32.846  0.00  0.00     0.179 C 
ATOM     10  C   UNK d   1      20.875  10.408  32.728  0.00  0.00     0.037 C 
ATOM     11  C   UNK d   1      19.612   9.724  33.267  0.00  0.00     0.022 C 
ATOM     12  C   UNK d   1      19.883   8.219  33.169  0.00  0.00     0.127 C 
ATOM     13  C   UNK d   1      23.091   9.486  32.003  0.00  0.00     0.243 C 
ATOM     14  O   UNK d   1      23.766  10.569  32.079  0.00  0.00    -0.271 OA
ENDROOT
BRANCH   1  15
ATOM     15  N   UNK d   1      24.567   5.659  31.325  0.00  0.00    -0.351 N 
ATOM     16  C   UNK d   1      24.874   4.297  31.078  0.00  0.00     0.252 C 
ATOM     17  O   UNK d   1      25.146   3.925  29.918  0.00  0.00    -0.268 OA
ATOM     18  H   UNK d   1      24.331   6.015  32.286  0.00  0.00     0.163 HD
BRANCH  16  19
ATOM     19  C   UNK d   1      24.878   3.302  32.168  0.00  0.00     0.032 A 
ATOM     20  C   UNK d   1      23.750   3.151  32.944  0.00  0.00     0.018 A 
ATOM     21  C   UNK d   1      23.722   2.231  33.969  0.00  0.00     0.020 A 
ATOM     22  C   UNK d   1      24.809   1.426  34.263  0.00  0.00     0.011 A 
ATOM     23 Br   UNK d   1      24.698   0.180  35.691  0.00  0.00    -0.051 Br
ATOM     24  C   UNK d   1      25.941   1.577  33.485  0.00  0.00     0.020 A 
ATOM     25  C   UNK d   1      25.951   2.512  32.453  0.00  0.00     0.018 A 
ENDBRANCH  16  19
ENDBRANCH   1  15
TORSDOF 2
ENDMDL
