/Users/jonathanwahrer/Desktop/Msc/3_Semester/Drug_Design_Praktikum/waehrer_HTS_screening/HTS_experiment/out/docking_results/vina_output/3elj/0244_docked.pdbqt
 OpenBabel03192217273D

 25 28  0  0  1  0  0  0  0  0999 V2000
   24.5720    6.5910   30.2460 C   0  0  2  0  0  3  0  0  0  0  0  0
   24.8530    8.0100   30.6820 C   0  0  0  0  0  2  0  0  0  0  0  0
   23.5460    8.4890   31.0960 N   0  0  0  0  0  0  0  0  0  0  0  0
   22.5230    7.7450   30.3880 C   0  0  1  0  0  3  0  0  0  0  0  0
   23.1850    6.6300   29.6510 C   0  0  0  0  0  2  0  0  0  0  0  0
   21.5570    7.2750   31.4120 C   0  0  0  0  0  0  0  0  0  0  0  0
   21.1070    6.1060   31.4570 O   0  0  0  0  0  0  0  0  0  0  0  0
   21.0990    8.1730   32.4070 N   0  0  0  0  0  0  0  0  0  0  0  0
   21.8820    9.3090   32.8460 C   0  0  2  0  0  3  0  0  0  0  0  0
   20.8750   10.4080   32.7280 C   0  0  0  0  0  2  0  0  0  0  0  0
   19.6120    9.7240   33.2670 C   0  0  0  0  0  2  0  0  0  0  0  0
   19.8830    8.2190   33.1690 C   0  0  0  0  0  2  0  0  0  0  0  0
   23.0910    9.4860   32.0030 C   0  0  0  0  0  0  0  0  0  0  0  0
   23.7660   10.5690   32.0790 O   0  0  0  0  0  0  0  0  0  0  0  0
   24.5670    5.6590   31.3250 N   0  0  0  0  0  0  0  0  0  0  0  0
   24.8740    4.2970   31.0780 C   0  0  0  0  0  0  0  0  0  0  0  0
   25.1460    3.9250   29.9180 O   0  0  0  0  0  0  0  0  0  0  0  0
   24.3310    6.0150   32.2860 H   0  0  0  0  0  0  0  0  0  0  0  0
   24.8780    3.3020   32.1680 C   0  0  0  0  0  0  0  0  0  0  0  0
   23.7500    3.1510   32.9440 C   0  0  0  0  0  3  0  0  0  0  0  0
   23.7220    2.2310   33.9690 C   0  0  0  0  0  3  0  0  0  0  0  0
   24.8090    1.4260   34.2630 C   0  0  0  0  0  0  0  0  0  0  0  0
   24.6980    0.1800   35.6910 Br  0  0  0  0  0  0  0  0  0  0  0  0
   25.9410    1.5770   33.4850 C   0  0  0  0  0  3  0  0  0  0  0  0
   25.9510    2.5120   32.4530 C   0  0  0  0  0  3  0  0  0  0  0  0
  1  2  1  0  0  0  0
  1 15  1  1  0  0  0
  2  3  1  0  0  0  0
  3 13  1  0  0  0  0
  4  5  1  1  0  0  0
  4  3  1  0  0  0  0
  4  6  1  0  0  0  0
  5  1  1  0  0  0  0
  6  7  2  0  0  0  0
  6  8  1  0  0  0  0
  8  9  1  0  0  0  0
  8 12  1  0  0  0  0
  9 10  1  6  0  0  0
 10 11  1  0  0  0  0
 12 11  1  0  0  0  0
 13 14  2  0  0  0  0
 13  9  1  0  0  0  0
 15 18  1  0  0  0  0
 16 15  1  0  0  0  0
 16 19  1  0  0  0  0
 17 16  2  0  0  0  0
 19 25  2  0  0  0  0
 19 20  1  0  0  0  0
 20 21  2  0  0  0  0
 21 22  1  0  0  0  0
 22 23  1  0  0  0  0
 24 22  2  0  0  0  0
 25 24  1  0  0  0  0
M  END
>  <Pose>
1

>  <Score>
-8.004

$$$$
