MODEL 1
REMARK VINA RESULT:    -7.708      0.000      0.000
REMARK INTER + INTRA:          -8.976
REMARK INTER:                  -8.609
REMARK INTRA:                  -0.367
REMARK UNBOUND:                -0.367
REMARK  2 active torsions:
REMARK  status: ('A' for Active; 'I' for Inactive)
REMARK    1  A    between atoms: C_5  and  C_8 
REMARK       I    between atoms: C_8  and  N_10 
REMARK    2  A    between atoms: N_10  and  N_11 
ROOT
ATOM      1  N   UNK d   1      23.498   7.333  30.834  0.00  0.00    -0.187 N 
ATOM      2  C   UNK d   1      22.264   8.008  31.046  0.00  0.00     0.251 C 
ATOM      3  O   UNK d   1      21.378   7.545  31.842  0.00  0.00    -0.271 OA
ATOM      4  C   UNK d   1      22.201   9.251  30.233  0.00  0.00     0.101 C 
ATOM      5  C   UNK d   1      23.600   9.316  29.651  0.00  0.00     0.101 C 
ATOM      6  C   UNK d   1      24.251  10.304  30.594  0.00  0.00     0.022 C 
ATOM      7  C   UNK d   1      23.164  11.396  30.514  0.00  0.00     0.018 C 
ATOM      8  C   UNK d   1      22.086  10.469  31.106  0.00  0.00     0.022 C 
ATOM      9  C   UNK d   1      22.799  10.126  32.388  0.00  0.00    -0.025 C 
ATOM     10  C   UNK d   1      24.053   9.903  32.015  0.00  0.00    -0.025 C 
ATOM     11  C   UNK d   1      24.177   7.965  29.767  0.00  0.00     0.251 C 
ATOM     12  O   UNK d   1      25.086   7.496  29.049  0.00  0.00    -0.271 OA
ENDROOT
BRANCH   1  13
ATOM     13  N   UNK d   1      24.037   6.216  31.524  0.00  0.00    -0.254 N 
ATOM     14  C   UNK d   1      23.492   4.924  31.370  0.00  0.00     0.270 C 
ATOM     15  O   UNK d   1      22.498   4.703  30.603  0.00  0.00    -0.266 OA
ATOM     16  H   UNK d   1      24.851   6.365  32.147  0.00  0.00     0.191 HD
BRANCH  14  17
ATOM     17  C   UNK d   1      24.052   3.800  32.081  0.00  0.00     0.033 A 
ATOM     18  C   UNK d   1      23.351   3.268  33.159  0.00  0.00     0.018 A 
ATOM     19  C   UNK d   1      23.852   2.201  33.877  0.00  0.00     0.020 A 
ATOM     20  C   UNK d   1      25.052   1.644  33.542  0.00  0.00     0.011 A 
ATOM     21 Br   UNK d   1      25.728   0.169  34.554  0.00  0.00    -0.051 Br
ATOM     22  C   UNK d   1      25.767   2.166  32.464  0.00  0.00     0.020 A 
ATOM     23  C   UNK d   1      25.260   3.226  31.759  0.00  0.00     0.018 A 
ENDBRANCH  14  17
ENDBRANCH   1  13
TORSDOF 2
ENDMDL
