MODEL 1
REMARK VINA RESULT:    -8.530      0.000      0.000
REMARK INTER + INTRA:         -13.187
REMARK INTER:                 -12.020
REMARK INTRA:                  -1.167
REMARK UNBOUND:                -1.167
REMARK  7 active torsions:
REMARK  status: ('A' for Active; 'I' for Inactive)
REMARK    1  A    between atoms: C_5  and  C_8 
REMARK    2  A    between atoms: C_8  and  C_9 
REMARK    3  A    between atoms: C_10  and  C_24 
REMARK    4  A    between atoms: N_11  and  C_16 
REMARK    5  A    between atoms: C_16  and  C_17 
REMARK    6  A    between atoms: C_17  and  C_18 
REMARK    7  A    between atoms: C_18  and  N_19 
ROOT
ATOM      1  C   UNK d   1      23.959  10.994  30.405  0.00  0.00     0.064 C 
ATOM      2  C   UNK d   1      23.292  12.127  29.689  0.00  0.00     0.180 C 
ATOM      3  N   UNK d   1      24.421  12.692  28.959  0.00  0.00    -0.331 N 
ATOM      4  C   UNK d   1      25.165  11.542  28.509  0.00  0.00     0.295 C 
ATOM      5  O   UNK d   1      25.907  11.532  27.513  0.00  0.00    -0.264 OA
ATOM      6  C   UNK d   1      24.880  10.430  29.429  0.00  0.00     0.251 C 
ATOM      7  O   UNK d   1      25.326   9.254  29.385  0.00  0.00    -0.282 OA
ENDROOT
BRANCH   1   8
ATOM      8  C   UNK d   1      23.750  10.563  31.623  0.00  0.00     0.130 C 
ATOM      9  O   UNK d   1      24.704  10.858  32.616  0.00  0.00    -0.190 OA
BRANCH   8  10
ATOM     10  C   UNK d   1      22.554   9.797  31.929  0.00  0.00     0.001 A 
ATOM     11  C   UNK d   1      22.485   8.448  31.557  0.00  0.00     0.015 A 
ATOM     12  C   UNK d   1      21.353   7.704  31.809  0.00  0.00     0.020 A 
ATOM     13  C   UNK d   1      20.243   8.235  32.429  0.00  0.00     0.011 A 
ATOM     14 Br   UNK d   1      18.666   7.227  32.788  0.00  0.00    -0.051 Br
ATOM     15  C   UNK d   1      20.291   9.561  32.804  0.00  0.00     0.020 A 
ATOM     16  C   UNK d   1      21.436  10.313  32.549  0.00  0.00     0.015 A 
ENDBRANCH   8  10
ENDBRANCH   1   8
BRANCH   2  17
ATOM     17  C   UNK d   1      22.691  13.080  30.655  0.00  0.00     0.061 A 
ATOM     18  N   UNK d   1      23.514  13.719  31.502  0.00  0.00    -0.263 NA
ATOM     19  C   UNK d   1      23.091  14.605  32.406  0.00  0.00     0.117 A 
ATOM     20  C   UNK d   1      21.743  14.872  32.469  0.00  0.00     0.019 A 
ATOM     21  C   UNK d   1      20.863  14.241  31.620  0.00  0.00     0.003 A 
ATOM     22  C   UNK d   1      21.350  13.339  30.709  0.00  0.00     0.029 A 
ENDBRANCH   2  17
BRANCH   3  23
ATOM     23  C   UNK d   1      24.705  14.080  28.739  0.00  0.00     0.129 C 
BRANCH  23  24
ATOM     24  C   UNK d   1      23.613  14.766  27.932  0.00  0.00     0.040 C 
BRANCH  24  25
ATOM     25  C   UNK d   1      23.249  16.063  28.654  0.00  0.00     0.131 C 
BRANCH  25  26
ATOM     26  N   UNK d   1      23.112  17.170  27.728  0.00  0.00    -0.352 N 
ATOM     27  C   UNK d   1      23.595  17.251  26.466  0.00  0.00     0.182 A 
ATOM     28  N   UNK d   1      23.251  18.441  25.944  0.00  0.00    -0.361 N 
ATOM     29  C   UNK d   1      22.548  19.141  26.847  0.00  0.00     0.106 A 
ATOM     30  H   UNK d   1      23.486  18.792  24.974  0.00  0.00     0.166 HD
ATOM     31  C   UNK d   1      22.472  18.326  27.958  0.00  0.00     0.108 A 
ENDBRANCH  25  26
ENDBRANCH  24  25
ENDBRANCH  23  24
ENDBRANCH   3  23
TORSDOF 7
ENDMDL
