MODEL 1
REMARK VINA RESULT:    -7.932      0.000      0.000
REMARK INTER + INTRA:         -10.761
REMARK INTER:                 -10.715
REMARK INTRA:                  -0.046
REMARK UNBOUND:                -0.046
REMARK  6 active torsions:
REMARK  status: ('A' for Active; 'I' for Inactive)
REMARK    1  A    between atoms: C_5  and  C_8 
REMARK    2  A    between atoms: C_10  and  C_24 
REMARK    3  A    between atoms: N_11  and  C_16 
REMARK    4  A    between atoms: C_16  and  C_17 
REMARK    5  A    between atoms: C_17  and  N_18 
REMARK    6  A    between atoms: C_26  and  N_30 
ROOT
ATOM      1  C   UNK d   1      25.652   7.087  29.524  0.00  0.00     0.130 C 
ATOM      2  C   UNK d   1      24.824   6.464  30.320  0.00  0.00     0.062 C 
ATOM      3  C   UNK d   1      23.772   7.082  31.205  0.00  0.00     0.161 C 
ATOM      4  N   UNK d   1      22.743   6.101  31.226  0.00  0.00    -0.331 N 
ATOM      5  C   UNK d   1      23.381   4.812  31.057  0.00  0.00     0.295 C 
ATOM      6  O   UNK d   1      22.911   3.685  31.346  0.00  0.00    -0.264 OA
ATOM      7  C   UNK d   1      24.703   5.033  30.481  0.00  0.00     0.250 C 
ATOM      8  O   UNK d   1      25.545   4.117  30.193  0.00  0.00    -0.282 OA
ATOM      9  O   UNK d   1      25.576   8.496  29.456  0.00  0.00    -0.190 OA
ENDROOT
BRANCH   1  10
ATOM     10  C   UNK d   1      26.625   6.357  28.729  0.00  0.00     0.001 A 
ATOM     11  C   UNK d   1      27.932   6.371  29.213  0.00  0.00     0.015 A 
ATOM     12  C   UNK d   1      28.923   5.681  28.573  0.00  0.00     0.020 A 
ATOM     13  C   UNK d   1      28.608   4.968  27.438  0.00  0.00     0.011 A 
ATOM     14 Br   UNK d   1      30.026   4.009  26.562  0.00  0.00    -0.051 Br
ATOM     15  C   UNK d   1      27.316   4.950  26.954  0.00  0.00     0.020 A 
ATOM     16  C   UNK d   1      26.326   5.651  27.611  0.00  0.00     0.015 A 
ENDBRANCH   1  10
BRANCH   3  17
ATOM     17  C   UNK d   1      23.428   8.427  30.764  0.00  0.00    -0.028 A 
ATOM     18  C   UNK d   1      23.825   9.595  31.359  0.00  0.00     0.045 A 
ATOM     19  C   UNK d   1      23.464  10.825  30.875  0.00  0.00     0.103 A 
ATOM     20  C   UNK d   1      22.677  10.905  29.758  0.00  0.00     0.036 A 
ATOM     21  C   UNK d   1      22.241   9.754  29.110  0.00  0.00     0.003 A 
ATOM     22  C   UNK d   1      22.621   8.539  29.620  0.00  0.00     0.010 A 
BRANCH  19  23
ATOM     23  N   UNK d   1      23.910  11.986  31.537  0.00  0.00    -0.116 N 
ATOM     24  O   UNK d   1      24.962  12.004  32.226  0.00  0.00    -0.532 OA
ATOM     25  O   UNK d   1      23.162  13.135  31.421  0.00  0.00    -0.532 OA
ENDBRANCH  19  23
ENDBRANCH   3  17
BRANCH   4  26
ATOM     26  C   UNK d   1      21.306   6.162  31.420  0.00  0.00     0.155 C 
BRANCH  26  27
ATOM     27  C   UNK d   1      20.837   5.961  32.825  0.00  0.00     0.255 C 
BRANCH  27  28
ATOM     28  N   UNK d   1      19.969   7.031  33.289  0.00  0.00    -0.066 N 
ATOM     29  C   UNK d   1      18.677   6.990  32.596  0.00  0.00     0.261 C 
ATOM     30  C   UNK d   1      17.822   8.058  33.292  0.00  0.00     0.195 C 
ATOM     31  O   UNK d   1      18.374   9.312  33.196  0.00  0.00    -0.388 OA
ATOM     32  C   UNK d   1      19.694   9.386  33.613  0.00  0.00     0.195 C 
ATOM     33  C   UNK d   1      20.549   8.315  32.983  0.00  0.00     0.261 C 
ATOM     34  H   UNK d   1      19.749   6.994  34.288  0.00  0.00     0.280 HD
ENDBRANCH  27  28
ENDBRANCH  26  27
ENDBRANCH   4  26
TORSDOF 6
ENDMDL
