/Users/jonathanwahrer/Desktop/Msc/3_Semester/Drug_Design_Praktikum/waehrer_HTS_screening/HTS_experiment/out/docking_results/vina_output/3elj/0263_docked.pdbqt
 OpenBabel03192217283D

 34 37  0  0  1  0  0  0  0  0999 V2000
   25.6520    7.0870   29.5240 C   0  0  0  0  0  0  0  0  0  0  0  0
   24.8240    6.4640   30.3200 C   0  0  0  0  0  0  0  0  0  0  0  0
   23.7720    7.0820   31.2050 C   0  0  2  0  0  3  0  0  0  0  0  0
   22.7430    6.1010   31.2260 N   0  0  0  0  0  0  0  0  0  0  0  0
   23.3810    4.8120   31.0570 C   0  0  0  0  0  0  0  0  0  0  0  0
   22.9110    3.6850   31.3460 O   0  0  0  0  0  0  0  0  0  0  0  0
   24.7030    5.0330   30.4810 C   0  0  0  0  0  0  0  0  0  0  0  0
   25.5450    4.1170   30.1930 O   0  0  0  0  0  0  0  0  0  0  0  0
   25.5760    8.4960   29.4560 O   0  0  0  0  0  1  0  0  0  0  0  0
   26.6250    6.3570   28.7290 C   0  0  0  0  0  0  0  0  0  0  0  0
   27.9320    6.3710   29.2130 C   0  0  0  0  0  3  0  0  0  0  0  0
   28.9230    5.6810   28.5730 C   0  0  0  0  0  3  0  0  0  0  0  0
   28.6080    4.9680   27.4380 C   0  0  0  0  0  0  0  0  0  0  0  0
   30.0260    4.0090   26.5620 Br  0  0  0  0  0  0  0  0  0  0  0  0
   27.3160    4.9500   26.9540 C   0  0  0  0  0  3  0  0  0  0  0  0
   26.3260    5.6510   27.6110 C   0  0  0  0  0  3  0  0  0  0  0  0
   23.4280    8.4270   30.7640 C   0  0  0  0  0  0  0  0  0  0  0  0
   23.8250    9.5950   31.3590 C   0  0  0  0  0  3  0  0  0  0  0  0
   23.4640   10.8250   30.8750 C   0  0  0  0  0  0  0  0  0  0  0  0
   22.6770   10.9050   29.7580 C   0  0  0  0  0  3  0  0  0  0  0  0
   22.2410    9.7540   29.1100 C   0  0  0  0  0  3  0  0  0  0  0  0
   22.6210    8.5390   29.6200 C   0  0  0  0  0  3  0  0  0  0  0  0
   23.9100   11.9860   31.5370 N   0  0  0  0  0  0  0  0  0  0  0  0
   24.9620   12.0040   32.2260 O   0  0  0  0  0  0  0  0  0  0  0  0
   23.1620   13.1350   31.4210 O   0  0  0  0  0  0  0  0  0  0  0  0
   21.3060    6.1620   31.4200 C   0  0  0  0  0  2  0  0  0  0  0  0
   20.8370    5.9610   32.8250 C   0  0  0  0  0  2  0  0  0  0  0  0
   19.9690    7.0310   33.2890 N   0  0  0  0  0  4  0  0  0  0  0  0
   18.6770    6.9900   32.5960 C   0  0  0  0  0  2  0  0  0  0  0  0
   17.8220    8.0580   33.2920 C   0  0  0  0  0  2  0  0  0  0  0  0
   18.3740    9.3120   33.1960 O   0  0  0  0  0  0  0  0  0  0  0  0
   19.6940    9.3860   33.6130 C   0  0  0  0  0  2  0  0  0  0  0  0
   20.5490    8.3150   32.9830 C   0  0  0  0  0  2  0  0  0  0  0  0
   19.7490    6.9940   34.2880 H   0  0  0  0  0  0  0  0  0  0  0  0
  1  2  2  0  0  0  0
  2  7  1  0  0  0  0
  2  3  1  0  0  0  0
  3 17  1  6  0  0  0
  3  4  1  0  0  0  0
  4 26  1  0  0  0  0
  5  4  1  0  0  0  0
  5  6  2  0  0  0  0
  7  5  1  0  0  0  0
  8  7  2  0  0  0  0
  9  1  1  0  0  0  0
 10 11  1  0  0  0  0
 10  1  1  0  0  0  0
 12 11  2  0  0  0  0
 13 12  1  0  0  0  0
 14 13  1  0  0  0  0
 15 13  2  0  0  0  0
 15 16  1  0  0  0  0
 16 10  2  0  0  0  0
 17 18  1  0  0  0  0
 19 18  2  0  0  0  0
 19 23  1  0  0  0  0
 20 19  1  0  0  0  0
 21 22  1  0  0  0  0
 21 20  2  0  0  0  0
 22 17  2  0  0  0  0
 23 24  2  0  0  0  0
 25 23  2  0  0  0  0
 26 27  1  0  0  0  0
 27 28  1  0  0  0  0
 28 34  1  0  0  0  0
 29 28  1  0  0  0  0
 29 30  1  0  0  0  0
 31 30  1  0  0  0  0
 31 32  1  0  0  0  0
 33 28  1  0  0  0  0
 33 32  1  0  0  0  0
M  END
>  <Pose>
1

>  <Score>
-7.932

$$$$
