MODEL 1
REMARK VINA RESULT:    -7.204      0.000      0.000
REMARK INTER + INTRA:         -11.010
REMARK INTER:                 -10.152
REMARK INTRA:                  -0.858
REMARK UNBOUND:                -0.858
REMARK  7 active torsions:
REMARK  status: ('A' for Active; 'I' for Inactive)
REMARK    1  A    between atoms: C_5  and  C_8 
REMARK    2  A    between atoms: C_10  and  C_24 
REMARK    3  A    between atoms: N_11  and  C_16 
REMARK    4  A    between atoms: C_16  and  C_17 
REMARK    5  A    between atoms: C_17  and  N_18 
REMARK    6  A    between atoms: C_27  and  C_30 
REMARK    7  A    between atoms: C_30  and  O_32 
ROOT
ATOM      1  C   UNK d   1      26.520   5.537  27.551  0.00  0.00     0.130 C 
ATOM      2  C   UNK d   1      26.234   6.530  28.364  0.00  0.00     0.062 A 
ATOM      3  C   UNK d   1      24.981   6.661  29.193  0.00  0.00     0.161 A 
ATOM      4  N   UNK d   1      25.069   7.922  29.844  0.00  0.00    -0.331 N 
ATOM      5  C   UNK d   1      26.347   8.545  29.600  0.00  0.00     0.295 A 
ATOM      6  O   UNK d   1      26.791   9.607  30.059  0.00  0.00    -0.264 OA
ATOM      7  C   UNK d   1      27.080   7.661  28.666  0.00  0.00     0.250 A 
ATOM      8  O   UNK d   1      28.254   7.882  28.224  0.00  0.00    -0.282 OA
ATOM      9  O   UNK d   1      25.549   4.511  27.473  0.00  0.00    -0.190 OA
ENDROOT
BRANCH   3  10
ATOM     10  C   UNK d   1      25.061   5.531  30.169  0.00  0.00    -0.030 A 
ATOM     11  C   UNK d   1      23.899   5.005  30.639  0.00  0.00     0.011 A 
ATOM     12  C   UNK d   1      23.914   3.965  31.546  0.00  0.00     0.018 A 
ATOM     13  C   UNK d   1      25.107   3.453  31.979  0.00  0.00     0.039 A 
ATOM     14  C   UNK d   1      26.277   3.985  31.502  0.00  0.00     0.018 A 
ATOM     15  C   UNK d   1      26.269   5.029  30.592  0.00  0.00     0.011 A 
BRANCH  13  16
ATOM     16  C   UNK d   1      25.136   2.352  32.944  0.00  0.00     0.292 C 
ATOM     17  O   UNK d   1      26.094   1.538  32.924  0.00  0.00    -0.259 OA
BRANCH  16  18
ATOM     18  O   UNK d   1      24.159   2.154  33.881  0.00  0.00    -0.323 OA
ATOM     19  C   UNK d   1      24.381   1.454  35.086  0.00  0.00     0.213 C 
ENDBRANCH  16  18
ENDBRANCH  13  16
ENDBRANCH   3  10
BRANCH   4  20
ATOM     20  C   UNK d   1      24.078   8.567  30.662  0.00  0.00     0.155 C 
BRANCH  20  21
ATOM     21  C   UNK d   1      22.708   8.623  30.079  0.00  0.00     0.255 C 
BRANCH  21  22
ATOM     22  N   UNK d   1      21.644   8.795  31.023  0.00  0.00    -0.066 N 
ATOM     23  C   UNK d   1      21.890   9.829  32.006  0.00  0.00     0.261 C 
ATOM     24  C   UNK d   1      20.607  10.012  32.790  0.00  0.00     0.195 C 
ATOM     25  O   UNK d   1      20.438   8.819  33.532  0.00  0.00    -0.388 OA
ATOM     26  C   UNK d   1      20.143   7.828  32.591  0.00  0.00     0.195 C 
ATOM     27  C   UNK d   1      21.410   7.559  31.795  0.00  0.00     0.261 C 
ATOM     28  H   UNK d   1      20.716   8.952  30.547  0.00  0.00     0.280 HD
ENDBRANCH  21  22
ENDBRANCH  20  21
ENDBRANCH   4  20
BRANCH   1  29
ATOM     29  C   UNK d   1      27.743   5.460  26.766  0.00  0.00     0.001 A 
ATOM     30  C   UNK d   1      27.816   6.077  25.511  0.00  0.00     0.015 A 
ATOM     31  C   UNK d   1      28.957   6.068  24.738  0.00  0.00     0.020 A 
ATOM     32  C   UNK d   1      30.098   5.434  25.181  0.00  0.00     0.011 A 
ATOM     33 Br   UNK d   1      31.667   5.431  24.087  0.00  0.00    -0.051 Br
ATOM     34  C   UNK d   1      30.053   4.820  26.410  0.00  0.00     0.020 A 
ATOM     35  C   UNK d   1      28.891   4.833  27.192  0.00  0.00     0.015 A 
ENDBRANCH   1  29
TORSDOF 7
ENDMDL
