MODEL 1
REMARK VINA RESULT:    -9.126      0.000      0.000
REMARK INTER + INTRA:         -14.195
REMARK INTER:                 -12.860
REMARK INTRA:                  -1.334
REMARK UNBOUND:                -1.334
REMARK  8 active torsions:
REMARK  status: ('A' for Active; 'I' for Inactive)
REMARK    1  A    between atoms: C_5  and  C_8 
REMARK    2  A    between atoms: N_9  and  N_10 
REMARK       I    between atoms: N_10  and  C_11 
REMARK    3  A    between atoms: C_11  and  C_13 
REMARK    4  A    between atoms: C_13  and  N_14 
REMARK    5  A    between atoms: C_16  and  C_25 
REMARK    6  A    between atoms: C_18  and  C_19 
REMARK    7  A    between atoms: C_23  and  N_24 
REMARK    8  A    between atoms: C_29  and  N_30 
ROOT
ATOM      1  N   UNK d   1      26.018  14.764  26.901  0.00  0.00    -0.239 N 
ATOM      2  N   UNK d   1      25.040  15.211  27.747  0.00  0.00    -0.147 NA
ATOM      3  C   UNK d   1      24.497  16.322  27.230  0.00  0.00     0.206 A 
ATOM      4  N   UNK d   1      25.143  16.538  26.085  0.00  0.00    -0.203 NA
ATOM      5  C   UNK d   1      26.103  15.562  25.869  0.00  0.00     0.184 A 
ENDROOT
BRANCH   1   6
ATOM      6  C   UNK d   1      26.750  13.556  27.226  0.00  0.00     0.257 C 
BRANCH   6   7
ATOM      7  C   UNK d   1      25.849  12.509  27.777  0.00  0.00     0.257 C 
ATOM      8  N   UNK d   1      25.273  12.647  29.063  0.00  0.00    -0.246 N 
ATOM      9  H   UNK d   1      25.473  13.504  29.664  0.00  0.00     0.192 HD
ATOM     10  O   UNK d   1      25.592  11.490  27.098  0.00  0.00    -0.270 OA
BRANCH   8  11
ATOM     11  N   UNK d   1      24.442  11.659  29.543  0.00  0.00    -0.184 NA
ATOM     12  C   UNK d   1      23.770  11.713  30.625  0.00  0.00     0.150 C 
BRANCH  12  13
ATOM     13  C   UNK d   1      22.902  10.634  31.086  0.00  0.00    -0.017 A 
ATOM     14  C   UNK d   1      21.922  10.850  32.032  0.00  0.00     0.014 A 
ATOM     15  C   UNK d   1      21.111   9.811  32.454  0.00  0.00     0.020 A 
ATOM     16  C   UNK d   1      21.244   8.525  31.952  0.00  0.00     0.011 A 
ATOM     17 Br   UNK d   1      20.109   7.113  32.554  0.00  0.00    -0.051 Br
ATOM     18  C   UNK d   1      22.225   8.309  31.006  0.00  0.00     0.020 A 
ATOM     19  C   UNK d   1      23.027   9.352  30.593  0.00  0.00     0.014 A 
ENDBRANCH  12  13
ENDBRANCH   8  11
ENDBRANCH   6   7
ENDBRANCH   1   6
BRANCH   5  20
ATOM     20  C   UNK d   1      26.952  15.557  24.696  0.00  0.00     0.181 A 
ATOM     21  N   UNK d   1      26.459  15.243  23.433  0.00  0.00    -0.097 NA
ATOM     22  O   UNK d   1      27.397  15.326  22.573  0.00  0.00    -0.104 OA
ATOM     23  N   UNK d   1      28.484  15.670  23.143  0.00  0.00    -0.085 NA
ATOM     24  C   UNK d   1      28.243  15.824  24.480  0.00  0.00     0.186 A 
BRANCH  24  25
ATOM     25  N   UNK d   1      29.270  16.214  25.348  0.00  0.00    -0.380 N 
ATOM     26  H   UNK d   1      29.556  15.572  26.123  0.00  0.00     0.158 HD
ATOM     27  H   UNK d   1      29.792  17.112  25.276  0.00  0.00     0.158 HD
ENDBRANCH  24  25
ENDBRANCH   5  20
BRANCH   3  28
ATOM     28  C   UNK d   1      23.424  17.131  27.795  0.00  0.00     0.183 A 
ATOM     29  N   UNK d   1      22.839  16.979  28.986  0.00  0.00    -0.097 NA
ATOM     30  O   UNK d   1      21.910  17.907  29.136  0.00  0.00    -0.104 OA
ATOM     31  N   UNK d   1      21.859  18.671  28.082  0.00  0.00    -0.085 NA
ATOM     32  C   UNK d   1      22.806  18.207  27.210  0.00  0.00     0.186 A 
BRANCH  32  33
ATOM     33  N   UNK d   1      23.056  18.784  25.938  0.00  0.00    -0.380 N 
ATOM     34  H   UNK d   1      22.269  19.260  25.414  0.00  0.00     0.158 HD
ATOM     35  H   UNK d   1      23.982  18.774  25.470  0.00  0.00     0.158 HD
ENDBRANCH  32  33
ENDBRANCH   3  28
TORSDOF 8
ENDMDL
