/Users/jonathanwahrer/Desktop/Msc/3_Semester/Drug_Design_Praktikum/waehrer_HTS_screening/HTS_experiment/out/docking_results/vina_output/3elj/0305_docked.pdbqt
 OpenBabel03192217303D

 27 30  0  0  0  0  0  0  0  0999 V2000
   23.0770   10.2620   30.4810 C   0  0  0  0  0  0  0  0  0  0  0  0
   22.4290    9.1940   30.9280 N   0  0  0  0  0  0  0  0  0  0  0  0
   22.9530    8.0600   30.4010 C   0  0  0  0  0  0  0  0  0  0  0  0
   23.9670    8.4500   29.6050 N   0  0  0  0  0  0  0  0  0  0  0  0
   24.0610    9.7390   29.6390 N   0  0  0  0  0  0  0  0  0  0  0  0
   22.3210    6.9650   30.8390 N   0  0  0  0  0  0  0  0  0  0  0  0
   21.3770    7.4130   31.6730 C   0  0  0  0  0  0  0  0  0  0  0  0
   21.4190    8.8120   31.7580 C   0  0  0  0  0  0  0  0  0  0  0  0
   20.5970    9.4740   32.5570 N   0  0  0  0  0  0  0  0  0  0  0  0
   19.6990    8.7420   33.2850 C   0  0  0  0  0  0  0  0  0  0  0  0
   18.9000    9.3300   34.0510 O   0  0  0  0  0  0  0  0  0  0  0  0
   19.6280    7.4070   33.2190 N   0  0  0  0  0  0  0  0  0  0  0  0
   20.4590    6.7150   32.4210 C   0  0  0  0  0  0  0  0  0  0  0  0
   20.4230    5.4600   32.3340 O   0  0  0  0  0  0  0  0  0  0  0  0
   20.6110   10.8860   32.8370 C   0  0  0  0  0  1  0  0  0  0  0  0
   18.9440    6.8500   33.7710 H   0  0  0  0  0  0  0  0  0  0  0  0
   22.9960   11.6990   30.6600 C   0  0  0  0  0  0  0  0  0  0  0  0
   21.8980   12.3590   30.1030 C   0  0  0  0  0  3  0  0  0  0  0  0
   21.6460   13.6750   30.3340 C   0  0  0  0  0  3  0  0  0  0  0  0
   22.4910   14.4040   31.1440 C   0  0  0  0  0  0  0  0  0  0  0  0
   22.1370   16.2370   31.4620 Br  0  0  0  0  0  0  0  0  0  0  0  0
   23.5900   13.8100   31.7240 C   0  0  0  0  0  3  0  0  0  0  0  0
   23.7940   12.4790   31.4560 C   0  0  0  0  0  3  0  0  0  0  0  0
   22.5950    5.5900   30.4850 C   0  0  0  0  0  2  0  0  0  0  0  0
   23.7560    5.0080   31.2630 C   0  0  0  0  0  2  0  0  0  0  0  0
   23.3480    3.9940   32.1220 O   0  0  0  0  0  0  0  0  0  0  0  0
   24.4520    3.1720   32.3480 C   0  0  0  0  0  1  0  0  0  0  0  0
  1 17  1  0  0  0  0
  1  2  1  0  0  0  0
  2  8  1  0  0  0  0
  3  6  1  0  0  0  0
  3  2  1  0  0  0  0
  4  5  1  0  0  0  0
  4  3  2  0  0  0  0
  5  1  2  0  0  0  0
  6  7  1  0  0  0  0
  7  8  2  0  0  0  0
  7 13  1  0  0  0  0
  8  9  1  0  0  0  0
  9 15  1  0  0  0  0
  9 10  1  0  0  0  0
 10 11  2  0  0  0  0
 12 10  1  0  0  0  0
 12 16  1  0  0  0  0
 13 12  1  0  0  0  0
 14 13  2  0  0  0  0
 17 23  1  0  0  0  0
 18 19  1  0  0  0  0
 18 17  2  0  0  0  0
 19 20  2  0  0  0  0
 20 21  1  0  0  0  0
 20 22  1  0  0  0  0
 23 22  2  0  0  0  0
 24  6  1  0  0  0  0
 24 25  1  0  0  0  0
 25 26  1  0  0  0  0
 26 27  1  0  0  0  0
M  END
>  <Pose>
1

>  <Score>
-8.489

$$$$
