MODEL 1
REMARK VINA RESULT:    -9.168      0.000      0.000
REMARK INTER + INTRA:         -13.245
REMARK INTER:                 -12.383
REMARK INTRA:                  -0.862
REMARK UNBOUND:                -0.862
REMARK  6 active torsions:
REMARK  status: ('A' for Active; 'I' for Inactive)
REMARK    1  A    between atoms: C_5  and  C_8 
REMARK    2  A    between atoms: C_9  and  C_28 
REMARK    3  A    between atoms: C_16  and  C_17 
REMARK    4  A    between atoms: C_17  and  N_18 
REMARK    5  A    between atoms: C_28  and  O_30 
REMARK    6  A    between atoms: O_30  and  C_31 
ROOT
ATOM      1  C   UNK d   1      22.928   7.091  31.171  0.00  0.00     0.065 A 
ATOM      2  C   UNK d   1      23.054   8.400  31.568  0.00  0.00     0.166 A 
ATOM      3  O   UNK d   1      22.079   9.067  32.156  0.00  0.00    -0.302 OA
ATOM      4  C   UNK d   1      20.919   8.513  32.400  0.00  0.00     0.101 A 
ATOM      5  C   UNK d   1      20.733   7.228  32.032  0.00  0.00     0.050 A 
ATOM      6  C   UNK d   1      19.523   6.616  32.278  0.00  0.00     0.021 A 
ATOM      7  C   UNK d   1      18.538   7.342  32.896  0.00  0.00     0.041 A 
ATOM      8  C   UNK d   1      18.743   8.682  33.276  0.00  0.00     0.118 A 
ATOM      9  C   UNK d   1      19.930   9.308  33.042  0.00  0.00     0.039 A 
ATOM     10  O   UNK d   1      17.638   9.252  33.887  0.00  0.00    -0.191 OA
ATOM     11  C   UNK d   1      21.704   6.465  31.412  0.00  0.00     0.199 A 
ATOM     12  O   UNK d   1      21.531   5.289  31.077  0.00  0.00    -0.286 OA
ENDROOT
BRANCH   9  13
ATOM     13  C   UNK d   1      20.282  10.673  33.351  0.00  0.00     0.279 C 
BRANCH  13  14
ATOM     14  N   UNK d   1      20.198  11.725  32.422  0.00  0.00    -0.064 N 
ATOM     15  C   UNK d   1      21.438  11.984  31.781  0.00  0.00     0.254 C 
ATOM     16  C   UNK d   1      21.719  13.346  31.280  0.00  0.00     0.144 C 
ATOM     17  N   UNK d   1      20.916  14.336  31.854  0.00  0.00    -0.413 N 
ATOM     18  C   UNK d   1      19.547  14.092  31.995  0.00  0.00     0.144 C 
ATOM     19  C   UNK d   1      21.477  15.546  32.288  0.00  0.00     0.143 C 
ATOM     20  C   UNK d   1      19.299  12.789  32.687  0.00  0.00     0.254 C 
ATOM     21  H   UNK d   1      19.642  11.204  31.577  0.00  0.00     0.280 HD
ENDBRANCH  13  14
ENDBRANCH   9  13
BRANCH   2  22
ATOM     22  C   UNK d   1      24.336   9.079  31.321  0.00  0.00     0.318 C 
ATOM     23  O   UNK d   1      25.105   9.256  32.299  0.00  0.00    -0.257 OA
BRANCH  22  24
ATOM     24  O   UNK d   1      24.732   9.523  30.098  0.00  0.00    -0.316 OA
BRANCH  24  25
ATOM     25  C   UNK d   1      23.991  10.508  29.419  0.00  0.00     0.175 C 
ATOM     26  C   UNK d   1      24.694  11.831  29.554  0.00  0.00     0.034 C 
ENDBRANCH  24  25
ENDBRANCH  22  24
ENDBRANCH   2  22
BRANCH   1  27
ATOM     27  C   UNK d   1      24.032   6.398  30.560  0.00  0.00    -0.019 A 
ATOM     28  C   UNK d   1      24.348   6.509  29.209  0.00  0.00     0.014 A 
ATOM     29  C   UNK d   1      25.413   5.858  28.625  0.00  0.00     0.020 A 
ATOM     30  C   UNK d   1      26.207   5.060  29.395  0.00  0.00     0.011 A 
ATOM     31 Br   UNK d   1      27.683   4.167  28.568  0.00  0.00    -0.051 Br
ATOM     32  C   UNK d   1      25.936   4.916  30.739  0.00  0.00     0.020 A 
ATOM     33  C   UNK d   1      24.845   5.590  31.311  0.00  0.00     0.014 A 
ENDBRANCH   1  27
TORSDOF 6
ENDMDL
