/Users/jonathanwahrer/Desktop/Msc/3_Semester/Drug_Design_Praktikum/waehrer_HTS_screening/HTS_experiment/out/docking_results/vina_output/3elj/0346_docked.pdbqt
 OpenBabel03192217313D

 35 38  0  0  1  0  0  0  0  0999 V2000
   24.3280   12.5840   30.5550 C   0  0  2  0  0  3  0  0  0  0  0  0
   24.8110   12.8320   29.2240 N   0  0  0  0  0  0  0  0  0  0  0  0
   25.1300   11.6220   28.5640 C   0  0  0  0  0  0  0  0  0  0  0  0
   25.6010   11.4640   27.3950 O   0  0  0  0  0  0  0  0  0  0  0  0
   24.8250   10.4880   29.4650 C   0  0  0  0  0  0  0  0  0  0  0  0
   24.9960    9.2800   29.1870 O   0  0  0  0  0  0  0  0  0  0  0  0
   24.3140   11.0890   30.6790 C   0  0  1  0  0  3  0  0  0  0  0  0
   23.9500   10.3840   31.7270 C   0  0  1  0  0  3  0  0  0  0  0  0
   24.9220   10.1410   32.7210 O   0  0  0  0  0  1  0  0  0  0  0  0
   22.6410    9.8320   31.9700 C   0  0  0  0  0  0  0  0  0  0  0  0
   21.5950   10.4580   32.5510 C   0  0  0  0  0  3  0  0  0  0  0  0
   20.3790    9.8220   32.6920 C   0  0  0  0  0  0  0  0  0  0  0  0
   20.1470    8.5340   32.2600 C   0  0  0  0  0  0  0  0  0  0  0  0
   19.2470   10.5600   33.3430 C   0  0  0  0  0  1  0  0  0  0  0  0
   21.2330    7.9160   31.6710 C   0  0  0  0  0  3  0  0  0  0  0  0
   22.4510    8.5180   31.5160 C   0  0  0  0  0  3  0  0  0  0  0  0
   18.9200    7.8990   32.4050 O   0  0  0  0  0  0  0  0  0  0  0  0
   18.8190    6.7160   33.1850 C   0  0  0  0  0  1  0  0  0  0  0  0
   23.0110   13.1730   30.8130 C   0  0  0  0  0  0  0  0  0  0  0  0
   21.9070   12.7850   30.0850 C   0  0  0  0  0  3  0  0  0  0  0  0
   20.6500   13.3470   30.3280 C   0  0  0  0  0  3  0  0  0  0  0  0
   20.4840   14.3050   31.3030 C   0  0  0  0  0  0  0  0  0  0  0  0
   18.7420   15.0560   31.6070 Br  0  0  0  0  0  0  0  0  0  0  0  0
   21.5740   14.6950   32.0300 C   0  0  0  0  0  3  0  0  0  0  0  0
   22.8030   14.1330   31.7780 C   0  0  0  0  0  3  0  0  0  0  0  0
   24.9520   14.1610   28.6570 C   0  0  0  0  0  2  0  0  0  0  0  0
   23.6740   14.7010   28.0770 C   0  0  0  0  0  2  0  0  0  0  0  0
   23.2970   16.0150   28.6920 C   0  0  0  0  0  2  0  0  0  0  0  0
   23.5290   17.1330   27.8250 N   0  0  0  0  0  4  0  0  0  0  0  0
   22.4990   18.1480   27.9090 C   0  0  0  0  0  2  0  0  0  0  0  0
   23.0110   19.3620   27.1270 C   0  0  0  0  0  2  0  0  0  0  0  0
   24.1420   19.0330   26.3950 O   0  0  0  0  0  0  0  0  0  0  0  0
   23.8920   17.8990   25.5920 C   0  0  0  0  0  2  0  0  0  0  0  0
   23.7260   16.6710   26.4800 C   0  0  0  0  0  2  0  0  0  0  0  0
   24.4310   17.6090   28.1250 H   0  0  0  0  0  0  0  0  0  0  0  0
  1  7  1  0  0  0  0
  1 19  1  6  0  0  0
  2  1  1  0  0  0  0
  3  2  1  0  0  0  0
  3  5  1  0  0  0  0
  4  3  2  0  0  0  0
  5  7  1  0  0  0  0
  6  5  2  0  0  0  0
  7  8  1  1  0  0  0
  8 10  1  0  0  0  0
  8  9  1  1  0  0  0
 10 11  1  0  0  0  0
 11 12  2  0  0  0  0
 12 14  1  0  0  0  0
 13 17  1  0  0  0  0
 13 12  1  0  0  0  0
 15 13  2  0  0  0  0
 16 15  1  0  0  0  0
 16 10  2  0  0  0  0
 17 18  1  0  0  0  0
 19 25  1  0  0  0  0
 20 21  1  0  0  0  0
 20 19  2  0  0  0  0
 21 22  2  0  0  0  0
 22 23  1  0  0  0  0
 22 24  1  0  0  0  0
 25 24  2  0  0  0  0
 26  2  1  0  0  0  0
 27 26  1  0  0  0  0
 27 28  1  0  0  0  0
 29 30  1  0  0  0  0
 29 35  1  0  0  0  0
 29 28  1  0  0  0  0
 31 30  1  0  0  0  0
 32 31  1  0  0  0  0
 33 32  1  0  0  0  0
 33 34  1  0  0  0  0
 34 29  1  0  0  0  0
M  END
>  <Pose>
1

>  <Score>
-8.737

$$$$
