MODEL 1
REMARK VINA RESULT:    -8.737      0.000      0.000
REMARK INTER + INTRA:         -14.802
REMARK INTER:                 -12.823
REMARK INTRA:                  -1.979
REMARK UNBOUND:                -1.979
REMARK  8 active torsions:
REMARK  status: ('A' for Active; 'I' for Inactive)
REMARK    1  A    between atoms: C_5  and  C_8 
REMARK    2  A    between atoms: N_9  and  C_26 
REMARK    3  A    between atoms: C_14  and  C_15 
REMARK    4  A    between atoms: C_15  and  C_17 
REMARK    5  A    between atoms: C_20  and  O_23 
REMARK    6  A    between atoms: C_26  and  C_27 
REMARK    7  A    between atoms: C_27  and  C_28 
REMARK    8  A    between atoms: C_28  and  N_29 
ROOT
ATOM      1  C   UNK d   1      24.328  12.584  30.555  0.00  0.00     0.161 A 
ATOM      2  N   UNK d   1      24.811  12.832  29.224  0.00  0.00    -0.332 N 
ATOM      3  C   UNK d   1      25.130  11.622  28.564  0.00  0.00     0.295 A 
ATOM      4  O   UNK d   1      25.601  11.464  27.395  0.00  0.00    -0.264 OA
ATOM      5  C   UNK d   1      24.825  10.488  29.465  0.00  0.00     0.250 A 
ATOM      6  O   UNK d   1      24.996   9.280  29.187  0.00  0.00    -0.282 OA
ATOM      7  C   UNK d   1      24.314  11.089  30.679  0.00  0.00     0.062 A 
ENDROOT
BRANCH   7   8
ATOM      8  C   UNK d   1      23.950  10.384  31.727  0.00  0.00     0.130 C 
ATOM      9  O   UNK d   1      24.922  10.141  32.721  0.00  0.00    -0.190 OA
BRANCH   8  10
ATOM     10  C   UNK d   1      22.641   9.832  31.970  0.00  0.00     0.002 A 
ATOM     11  C   UNK d   1      21.595  10.458  32.551  0.00  0.00     0.024 A 
ATOM     12  C   UNK d   1      20.379   9.822  32.692  0.00  0.00    -0.028 A 
ATOM     13  C   UNK d   1      20.147   8.534  32.260  0.00  0.00     0.074 A 
ATOM     14  C   UNK d   1      19.247  10.560  33.343  0.00  0.00     0.051 C 
ATOM     15  C   UNK d   1      21.233   7.916  31.671  0.00  0.00     0.038 A 
ATOM     16  C   UNK d   1      22.451   8.518  31.516  0.00  0.00     0.017 A 
BRANCH  13  17
ATOM     17  O   UNK d   1      18.920   7.899  32.405  0.00  0.00    -0.355 OA
ATOM     18  C   UNK d   1      18.819   6.716  33.185  0.00  0.00     0.210 C 
ENDBRANCH  13  17
ENDBRANCH   8  10
ENDBRANCH   7   8
BRANCH   1  19
ATOM     19  C   UNK d   1      23.011  13.173  30.813  0.00  0.00    -0.030 A 
ATOM     20  C   UNK d   1      21.907  12.785  30.085  0.00  0.00     0.011 A 
ATOM     21  C   UNK d   1      20.650  13.347  30.328  0.00  0.00     0.019 A 
ATOM     22  C   UNK d   1      20.484  14.305  31.303  0.00  0.00     0.011 A 
ATOM     23 Br   UNK d   1      18.742  15.056  31.607  0.00  0.00    -0.051 Br
ATOM     24  C   UNK d   1      21.574  14.695  32.030  0.00  0.00     0.019 A 
ATOM     25  C   UNK d   1      22.803  14.133  31.778  0.00  0.00     0.011 A 
ENDBRANCH   1  19
BRANCH   2  26
ATOM     26  C   UNK d   1      24.952  14.161  28.657  0.00  0.00     0.129 C 
BRANCH  26  27
ATOM     27  C   UNK d   1      23.674  14.701  28.077  0.00  0.00     0.048 C 
BRANCH  27  28
ATOM     28  C   UNK d   1      23.297  16.015  28.692  0.00  0.00     0.236 C 
BRANCH  28  29
ATOM     29  N   UNK d   1      23.529  17.133  27.825  0.00  0.00    -0.067 N 
ATOM     30  C   UNK d   1      22.499  18.148  27.909  0.00  0.00     0.261 C 
ATOM     31  C   UNK d   1      23.011  19.362  27.127  0.00  0.00     0.195 C 
ATOM     32  O   UNK d   1      24.142  19.033  26.395  0.00  0.00    -0.388 OA
ATOM     33  C   UNK d   1      23.892  17.899  25.592  0.00  0.00     0.195 C 
ATOM     34  C   UNK d   1      23.726  16.671  26.480  0.00  0.00     0.261 C 
ATOM     35  H   UNK d   1      24.431  17.609  28.125  0.00  0.00     0.280 HD
ENDBRANCH  28  29
ENDBRANCH  27  28
ENDBRANCH  26  27
ENDBRANCH   2  26
TORSDOF 8
ENDMDL
