MODEL 1
REMARK VINA RESULT:    -7.598      0.000      0.000
REMARK INTER + INTRA:         -11.753
REMARK INTER:                 -10.707
REMARK INTRA:                  -1.046
REMARK UNBOUND:                -1.046
REMARK  7 active torsions:
REMARK  status: ('A' for Active; 'I' for Inactive)
REMARK    1  A    between atoms: C_5  and  C_8 
REMARK    2  A    between atoms: N_9  and  C_25 
REMARK    3  A    between atoms: C_15  and  C_17 
REMARK    4  A    between atoms: C_19  and  O_23 
REMARK    5  A    between atoms: C_25  and  C_26 
REMARK    6  A    between atoms: C_26  and  C_27 
REMARK    7  A    between atoms: C_27  and  N_28 
ROOT
ATOM      1  C   UNK d   1      24.091  11.312  29.476  0.00  0.00     0.161 C 
ATOM      2  N   UNK d   1      24.095  12.376  30.460  0.00  0.00    -0.332 N 
ATOM      3  C   UNK d   1      24.402  11.762  31.713  0.00  0.00     0.295 C 
ATOM      4  O   UNK d   1      24.930  12.311  32.712  0.00  0.00    -0.264 OA
ATOM      5  C   UNK d   1      23.974  10.373  31.591  0.00  0.00     0.250 C 
ATOM      6  O   UNK d   1      24.039   9.441  32.432  0.00  0.00    -0.282 OA
ATOM      7  C   UNK d   1      23.421  10.204  30.252  0.00  0.00     0.062 C 
ATOM      8  C   UNK d   1      22.582   9.280  29.852  0.00  0.00     0.130 C 
ATOM      9  O   UNK d   1      22.241   9.302  28.488  0.00  0.00    -0.190 OA
ENDROOT
BRANCH   2  10
ATOM     10  C   UNK d   1      23.837  13.809  30.237  0.00  0.00     0.129 C 
BRANCH  10  11
ATOM     11  C   UNK d   1      22.436  14.011  29.640  0.00  0.00     0.048 C 
BRANCH  11  12
ATOM     12  C   UNK d   1      21.420  13.363  30.536  0.00  0.00     0.236 C 
BRANCH  12  13
ATOM     13  N   UNK d   1      21.150  14.237  31.652  0.00  0.00    -0.067 N 
ATOM     14  C   UNK d   1      20.657  13.567  32.814  0.00  0.00     0.261 C 
ATOM     15  C   UNK d   1      19.250  13.095  32.667  0.00  0.00     0.195 C 
ATOM     16  O   UNK d   1      18.410  14.142  32.332  0.00  0.00    -0.388 OA
ATOM     17  C   UNK d   1      18.835  14.649  31.103  0.00  0.00     0.195 C 
ATOM     18  C   UNK d   1      20.198  15.279  31.311  0.00  0.00     0.261 C 
ATOM     19  H   UNK d   1      22.040  14.728  31.903  0.00  0.00     0.280 HD
ENDBRANCH  12  13
ENDBRANCH  11  12
ENDBRANCH  10  11
ENDBRANCH   2  10
BRANCH   1  20
ATOM     20  C   UNK d   1      25.445  10.950  29.082  0.00  0.00    -0.030 A 
ATOM     21  C   UNK d   1      26.185  11.779  28.275  0.00  0.00     0.011 A 
ATOM     22  C   UNK d   1      27.481  11.438  27.878  0.00  0.00     0.019 A 
ATOM     23  C   UNK d   1      28.042  10.253  28.293  0.00  0.00     0.011 A 
ATOM     24 Br   UNK d   1      29.810   9.791  27.747  0.00  0.00    -0.051 Br
ATOM     25  C   UNK d   1      27.314   9.417  29.098  0.00  0.00     0.019 A 
ATOM     26  C   UNK d   1      26.033   9.771  29.481  0.00  0.00     0.011 A 
ENDBRANCH   1  20
BRANCH   8  27
ATOM     27  C   UNK d   1      22.009   8.275  30.742  0.00  0.00     0.004 A 
ATOM     28  C   UNK d   1      20.983   8.520  31.625  0.00  0.00     0.051 A 
ATOM     29  C   UNK d   1      20.449   7.578  32.486  0.00  0.00     0.069 A 
ATOM     30  C   UNK d   1      20.966   6.314  32.468  0.00  0.00     0.037 A 
ATOM     31  C   UNK d   1      22.005   6.021  31.590  0.00  0.00     0.004 A 
ATOM     32  C   UNK d   1      22.512   6.986  30.746  0.00  0.00     0.014 A 
BRANCH  29  33
ATOM     33  O   UNK d   1      19.423   7.998  33.302  0.00  0.00    -0.356 OA
ATOM     34  C   UNK d   1      18.902   9.277  33.424  0.00  0.00     0.210 C 
ENDBRANCH  29  33
ENDBRANCH   8  27
TORSDOF 7
ENDMDL
