MODEL 1
REMARK VINA RESULT:    -8.618      0.000      0.000
REMARK INTER + INTRA:         -12.421
REMARK INTER:                 -11.137
REMARK INTRA:                  -1.284
REMARK UNBOUND:                -1.284
REMARK  5 active torsions:
REMARK  status: ('A' for Active; 'I' for Inactive)
REMARK    1  A    between atoms: C_5  and  C_8 
REMARK    2  A    between atoms: N_9  and  C_24 
REMARK    3  A    between atoms: C_15  and  C_17 
REMARK    4  A    between atoms: C_24  and  C_25 
REMARK    5  A    between atoms: C_25  and  N_26 
ROOT
ATOM      1  C   UNK d   1      23.829   6.925  31.289  0.00  0.00     0.161 C 
ATOM      2  N   UNK d   1      22.877   5.900  31.308  0.00  0.00    -0.331 N 
ATOM      3  C   UNK d   1      23.673   4.698  31.630  0.00  0.00     0.295 C 
ATOM      4  O   UNK d   1      23.286   3.673  32.257  0.00  0.00    -0.264 OA
ATOM      5  C   UNK d   1      24.995   4.972  31.056  0.00  0.00     0.250 C 
ATOM      6  O   UNK d   1      26.023   4.229  31.062  0.00  0.00    -0.282 OA
ATOM      7  C   UNK d   1      24.895   6.312  30.447  0.00  0.00     0.062 C 
ATOM      8  C   UNK d   1      25.552   6.774  29.407  0.00  0.00     0.130 C 
ATOM      9  O   UNK d   1      25.286   8.046  28.914  0.00  0.00    -0.190 OA
ENDROOT
BRANCH   2  10
ATOM     10  C   UNK d   1      21.440   5.745  31.145  0.00  0.00     0.155 C 
BRANCH  10  11
ATOM     11  C   UNK d   1      20.649   5.993  32.404  0.00  0.00     0.255 C 
BRANCH  11  12
ATOM     12  N   UNK d   1      19.909   7.212  32.391  0.00  0.00    -0.066 N 
ATOM     13  C   UNK d   1      20.565   8.205  33.221  0.00  0.00     0.261 C 
ATOM     14  C   UNK d   1      19.779   9.488  33.148  0.00  0.00     0.195 C 
ATOM     15  O   UNK d   1      18.571   9.249  33.822  0.00  0.00    -0.388 OA
ATOM     16  C   UNK d   1      17.878   8.293  33.116  0.00  0.00     0.195 C 
ATOM     17  C   UNK d   1      18.606   6.975  33.043  0.00  0.00     0.261 C 
ATOM     18  H   UNK d   1      19.737   7.575  31.442  0.00  0.00     0.280 HD
ENDBRANCH  11  12
ENDBRANCH  10  11
ENDBRANCH   2  10
BRANCH   1  19
ATOM     19  C   UNK d   1      23.614   8.320  31.223  0.00  0.00    -0.030 A 
ATOM     20  C   UNK d   1      24.431   9.136  32.019  0.00  0.00     0.011 A 
ATOM     21  C   UNK d   1      24.304  10.496  32.043  0.00  0.00     0.019 A 
ATOM     22  C   UNK d   1      23.352  11.127  31.272  0.00  0.00     0.011 A 
ATOM     23 Br   UNK d   1      23.149  13.032  31.281  0.00  0.00    -0.051 Br
ATOM     24  C   UNK d   1      22.549  10.332  30.490  0.00  0.00     0.019 A 
ATOM     25  C   UNK d   1      22.683   8.943  30.470  0.00  0.00     0.011 A 
ENDBRANCH   1  19
BRANCH   8  26
ATOM     26  C   UNK d   1      26.585   6.015  28.721  0.00  0.00     0.001 A 
ATOM     27  C   UNK d   1      26.386   5.093  27.741  0.00  0.00     0.015 A 
ATOM     28  C   UNK d   1      27.466   4.469  27.133  0.00  0.00     0.007 A 
ATOM     29  C   UNK d   1      28.753   4.774  27.514  0.00  0.00    -0.062 A 
ATOM     30  C   UNK d   1      28.997   5.699  28.501  0.00  0.00     0.007 A 
ATOM     31  C   UNK d   1      29.940   4.123  26.883  0.00  0.00     0.048 C 
ATOM     32  C   UNK d   1      27.901   6.311  29.094  0.00  0.00     0.015 A 
ENDBRANCH   8  26
TORSDOF 5
ENDMDL
