/Users/jonathanwahrer/Desktop/Msc/3_Semester/Drug_Design_Praktikum/waehrer_HTS_screening/HTS_experiment/out/docking_results/vina_output/3elj/0354_docked.pdbqt
 OpenBabel03192217323D

 32 35  0  0  1  0  0  0  0  0999 V2000
   21.7060   11.0780   31.3450 C   0  0  1  0  0  3  0  0  0  0  0  0
   21.0120   10.5050   32.4540 N   0  0  0  0  0  0  0  0  0  0  0  0
   20.0790   11.5240   32.8980 C   0  0  0  0  0  0  0  0  0  0  0  0
   19.0540   11.3000   33.5930 O   0  0  0  0  0  0  0  0  0  0  0  0
   20.5470   12.8030   32.3990 C   0  0  0  0  0  0  0  0  0  0  0  0
   20.0170   13.9430   32.5700 O   0  0  0  0  0  0  0  0  0  0  0  0
   21.7600   12.5310   31.6550 C   0  0  0  0  0  0  0  0  0  0  0  0
   22.7040   13.4080   31.3630 C   0  0  0  0  0  0  0  0  0  0  0  0
   23.8270   12.9040   30.6640 O   0  0  0  0  0  1  0  0  0  0  0  0
   21.0620    9.1740   33.0610 C   0  0  0  0  0  2  0  0  0  0  0  0
   20.1570    8.1620   32.4460 C   0  0  0  0  0  2  0  0  0  0  0  0
   20.7520    6.7630   32.4910 C   0  0  0  0  0  2  0  0  0  0  0  0
   21.4660    6.4570   31.2740 N   0  0  0  0  0  4  0  0  0  0  0  0
   22.8260    6.9480   31.2890 C   0  0  0  0  0  2  0  0  0  0  0  0
   23.5720    6.2070   30.1780 C   0  0  0  0  0  2  0  0  0  0  0  0
   23.8360    4.9090   30.6140 O   0  0  0  0  0  0  0  0  0  0  0  0
   22.7570    4.3740   31.3170 C   0  0  0  0  0  2  0  0  0  0  0  0
   21.4590    5.0640   30.9490 C   0  0  0  0  0  2  0  0  0  0  0  0
   20.9700    6.9650   30.5030 H   0  0  0  0  0  0  0  0  0  0  0  0
   22.9880   10.5170   30.9680 C   0  0  0  0  0  0  0  0  0  0  0  0
   24.0300   10.2290   31.7830 C   0  0  0  0  0  3  0  0  0  0  0  0
   25.2040    9.6720   31.3150 C   0  0  0  0  0  3  0  0  0  0  0  0
   25.3800    9.3780   29.9800 C   0  0  0  0  0  0  0  0  0  0  0  0
   26.9940    8.6080   29.3120 Br  0  0  0  0  0  0  0  0  0  0  0  0
   24.3400    9.6590   29.1210 C   0  0  0  0  0  3  0  0  0  0  0  0
   23.1790   10.2130   29.6100 C   0  0  0  0  0  3  0  0  0  0  0  0
   22.6500   14.8160   31.7020 C   0  0  0  0  0  0  0  0  0  0  0  0
   22.2060   15.6760   30.6900 C   0  0  0  0  0  3  0  0  0  0  0  0
   22.0650   17.0340   30.8870 C   0  0  0  0  0  3  0  0  0  0  0  0
   22.3610   17.5640   32.0880 N   0  0  0  0  0  0  0  0  0  0  0  0
   22.7900   16.7580   33.0820 C   0  0  0  0  0  3  0  0  0  0  0  0
   22.9360   15.3850   32.8940 C   0  0  0  0  0  3  0  0  0  0  0  0
  1 20  1  1  0  0  0
  1  7  1  0  0  0  0
  1  2  1  0  0  0  0
  2  3  1  0  0  0  0
  2 10  1  0  0  0  0
  3  4  2  0  0  0  0
  5  6  2  0  0  0  0
  5  3  1  0  0  0  0
  7  5  1  0  0  0  0
  8  7  2  0  0  0  0
  8 27  1  0  0  0  0
  9  8  1  0  0  0  0
 11 12  1  0  0  0  0
 11 10  1  0  0  0  0
 13 14  1  0  0  0  0
 13 12  1  0  0  0  0
 15 16  1  0  0  0  0
 15 14  1  0  0  0  0
 16 17  1  0  0  0  0
 18 13  1  0  0  0  0
 18 17  1  0  0  0  0
 19 13  1  0  0  0  0
 20 21  1  0  0  0  0
 22 21  2  0  0  0  0
 23 22  1  0  0  0  0
 24 23  1  0  0  0  0
 25 26  1  0  0  0  0
 25 23  2  0  0  0  0
 26 20  2  0  0  0  0
 27 32  1  0  0  0  0
 28 29  1  0  0  0  0
 28 27  2  0  0  0  0
 29 30  2  0  0  0  0
 30 31  1  0  0  0  0
 32 31  2  0  0  0  0
M  END
>  <Pose>
1

>  <Score>
-8.327

$$$$
