MODEL 1
REMARK VINA RESULT:    -7.324      0.000      0.000
REMARK INTER + INTRA:         -10.393
REMARK INTER:                  -9.893
REMARK INTRA:                  -0.500
REMARK UNBOUND:                -0.500
REMARK  6 active torsions:
REMARK  status: ('A' for Active; 'I' for Inactive)
REMARK    1  A    between atoms: C_5  and  C_8 
REMARK    2  A    between atoms: N_9  and  C_27 
REMARK    3  A    between atoms: C_15  and  C_17 
REMARK    4  A    between atoms: C_27  and  C_28 
REMARK    5  A    between atoms: C_28  and  C_29 
REMARK    6  A    between atoms: C_29  and  N_30 
ROOT
ATOM      1  C   UNK d   1      25.490   9.727  30.140  0.00  0.00     0.161 C 
ATOM      2  N   UNK d   1      25.777  10.792  29.273  0.00  0.00    -0.332 N 
ATOM      3  C   UNK d   1      27.208  10.653  29.060  0.00  0.00     0.295 C 
ATOM      4  O   UNK d   1      28.050  11.564  28.752  0.00  0.00    -0.264 OA
ATOM      5  C   UNK d   1      27.549   9.249  29.261  0.00  0.00     0.251 C 
ATOM      6  O   UNK d   1      28.668   8.646  29.189  0.00  0.00    -0.282 OA
ATOM      7  C   UNK d   1      26.283   8.598  29.590  0.00  0.00     0.064 C 
ATOM      8  C   UNK d   1      25.958   7.325  29.466  0.00  0.00     0.149 C 
ATOM      9  O   UNK d   1      24.712   6.883  29.888  0.00  0.00    -0.189 OA
ENDROOT
BRANCH   1  10
ATOM     10  C   UNK d   1      24.166   9.401  30.571  0.00  0.00    -0.030 A 
ATOM     11  C   UNK d   1      23.125   9.241  29.701  0.00  0.00     0.011 A 
ATOM     12  C   UNK d   1      21.865   8.943  30.173  0.00  0.00     0.019 A 
ATOM     13  C   UNK d   1      21.602   8.793  31.522  0.00  0.00     0.011 A 
ATOM     14 Br   UNK d   1      19.857   8.380  32.175  0.00  0.00    -0.051 Br
ATOM     15  C   UNK d   1      22.660   8.956  32.395  0.00  0.00     0.019 A 
ATOM     16  C   UNK d   1      23.911   9.254  31.905  0.00  0.00     0.011 A 
ENDBRANCH   1  10
BRANCH   8  17
ATOM     17  C   UNK d   1      26.858   6.336  28.894  0.00  0.00     0.102 A 
ATOM     18  N   UNK d   1      27.477   6.374  27.702  0.00  0.00    -0.302 N 
ATOM     19  C   UNK d   1      28.262   5.282  27.551  0.00  0.00     0.134 A 
ATOM     20  C   UNK d   1      27.471   7.238  26.645  0.00  0.00     0.099 A 
ATOM     21  N   UNK d   1      28.122   4.559  28.674  0.00  0.00    -0.233 NA
ATOM     22  C   UNK d   1      29.007   5.057  26.413  0.00  0.00     0.051 A 
ATOM     23  C   UNK d   1      27.282   5.159  29.513  0.00  0.00     0.063 A 
ATOM     24  C   UNK d   1      26.824   4.738  30.864  0.00  0.00     0.073 C 
ATOM     25  C   UNK d   1      28.981   5.947  25.365  0.00  0.00     0.005 A 
ATOM     26  C   UNK d   1      28.186   7.063  25.501  0.00  0.00     0.018 A 
ENDBRANCH   8  17
BRANCH   2  27
ATOM     27  C   UNK d   1      25.118  11.884  28.633  0.00  0.00     0.129 C 
BRANCH  27  28
ATOM     28  C   UNK d   1      24.506  12.978  29.355  0.00  0.00     0.048 C 
BRANCH  28  29
ATOM     29  C   UNK d   1      23.056  12.839  29.753  0.00  0.00     0.236 C 
BRANCH  29  30
ATOM     30  N   UNK d   1      22.902  12.827  31.205  0.00  0.00    -0.067 N 
ATOM     31  C   UNK d   1      21.586  12.475  31.649  0.00  0.00     0.261 C 
ATOM     32  C   UNK d   1      20.633  13.627  31.764  0.00  0.00     0.195 C 
ATOM     33  O   UNK d   1      21.068  14.768  31.143  0.00  0.00    -0.388 OA
ATOM     34  C   UNK d   1      22.327  15.183  31.489  0.00  0.00     0.195 C 
ATOM     35  C   UNK d   1      23.277  14.074  31.799  0.00  0.00     0.261 C 
ATOM     36  H   UNK d   1      23.552  12.082  31.559  0.00  0.00     0.280 HD
ENDBRANCH  29  30
ENDBRANCH  28  29
ENDBRANCH  27  28
ENDBRANCH   2  27
TORSDOF 6
ENDMDL
