/Users/jonathanwahrer/Desktop/Msc/3_Semester/Drug_Design_Praktikum/waehrer_HTS_screening/HTS_experiment/out/docking_results/vina_output/3elj/0381_docked.pdbqt
 OpenBabel03192217343D

 29 32  0  0  0  0  0  0  0  0999 V2000
   24.5150    8.2200   29.8550 N   0  0  0  0  0  0  0  0  0  0  0  0
   23.3850    8.3780   30.5380 N   0  0  0  0  0  0  0  0  0  0  0  0
   22.6160    7.3150   30.9090 C   0  0  0  0  0  0  0  0  0  0  0  0
   23.0060    6.0750   30.5750 N   0  0  0  0  0  0  0  0  0  0  0  0
   22.0430    5.1000   31.0380 C   0  0  0  0  0  3  0  0  0  0  0  0
   20.9570    5.8580   31.7410 C   0  0  0  0  0  3  0  0  0  0  0  0
   21.4120    7.2340   31.6620 N   0  0  0  0  0  0  0  0  0  0  0  0
   24.1340    5.8520   29.8870 C   0  0  0  0  0  0  0  0  0  0  0  0
   24.4960    4.6920   29.5760 O   0  0  0  0  0  0  0  0  0  0  0  0
   24.8750    6.9630   29.5390 C   0  0  0  0  0  0  0  0  0  0  0  0
   25.9410    6.8050   28.8920 O   0  0  0  0  0  0  0  0  0  0  0  0
   25.3730    9.3550   29.4770 C   0  0  0  0  0  2  0  0  0  0  0  0
   24.8180   10.6120   29.9760 C   0  0  0  0  0  0  0  0  0  0  0  0
   23.6700   11.2820   29.5340 N   0  0  0  0  0  0  0  0  0  0  0  0
   23.1410   10.8310   28.7350 H   0  0  0  0  0  0  0  0  0  0  0  0
   25.5100   11.1260   30.9420 O   0  0  0  0  0  0  0  0  0  0  0  0
   23.1760   12.4830   30.0500 C   0  0  0  0  0  0  0  0  0  0  0  0
   22.3830   12.6470   31.1580 C   0  0  0  0  0  3  0  0  0  0  0  0
   21.9590   13.9040   31.6120 C   0  0  0  0  0  3  0  0  0  0  0  0
   22.3230   15.0550   30.9650 C   0  0  0  0  0  0  0  0  0  0  0  0
   21.7590   16.7770   31.5740 Br  0  0  0  0  0  0  0  0  0  0  0  0
   23.1210   14.9150   29.8470 C   0  0  0  0  0  3  0  0  0  0  0  0
   23.5290   13.6860   29.4090 C   0  0  0  0  0  3  0  0  0  0  0  0
   20.7170    8.3060   32.2700 C   0  0  0  0  0  0  0  0  0  0  0  0
   21.2780    9.5260   32.5340 C   0  0  0  0  0  3  0  0  0  0  0  0
   20.5760   10.5500   33.1450 C   0  0  0  0  0  3  0  0  0  0  0  0
   19.2570   10.3500   33.5080 C   0  0  0  0  0  3  0  0  0  0  0  0
   18.6810    9.1460   33.2540 C   0  0  0  0  0  3  0  0  0  0  0  0
   19.3880    8.1310   32.6460 C   0  0  0  0  0  3  0  0  0  0  0  0
  1  2  1  0  0  0  0
  2  3  2  0  0  0  0
  3  7  1  0  0  0  0
  4  3  1  0  0  0  0
  4  5  1  0  0  0  0
  5  6  2  0  0  0  0
  7  6  1  0  0  0  0
  7 24  1  0  0  0  0
  8  4  1  0  0  0  0
  9  8  2  0  0  0  0
 10  1  1  0  0  0  0
 10  8  1  0  0  0  0
 11 10  2  0  0  0  0
 12  1  1  0  0  0  0
 12 13  1  0  0  0  0
 13 16  2  0  0  0  0
 14 13  1  0  0  0  0
 14 17  1  0  0  0  0
 15 14  1  0  0  0  0
 17 18  1  0  0  0  0
 18 19  2  0  0  0  0
 20 21  1  0  0  0  0
 20 19  1  0  0  0  0
 22 20  2  0  0  0  0
 23 22  1  0  0  0  0
 23 17  2  0  0  0  0
 24 25  2  0  0  0  0
 24 29  1  0  0  0  0
 25 26  1  0  0  0  0
 26 27  2  0  0  0  0
 28 27  1  0  0  0  0
 29 28  2  0  0  0  0
M  END
>  <Pose>
1

>  <Score>
-9.290

$$$$
