MODEL 1
REMARK VINA RESULT:    -9.060      0.000      0.000
REMARK INTER + INTRA:         -11.510
REMARK INTER:                 -10.914
REMARK INTRA:                  -0.595
REMARK UNBOUND:                -0.595
REMARK  4 active torsions:
REMARK  status: ('A' for Active; 'I' for Inactive)
REMARK    1  A    between atoms: C_5  and  N_8 
REMARK       I    between atoms: N_8  and  C_9 
REMARK    2  A    between atoms: C_9  and  C_11 
REMARK    3  A    between atoms: C_18  and  N_23 
REMARK    4  A    between atoms: C_20  and  N_22 
ROOT
ATOM      1  C   UNK d   1      23.070  13.480  30.704  0.00  0.00     0.127 C 
ATOM      2  C   UNK d   1      22.671  14.022  32.045  0.00  0.00     0.122 C 
ATOM      3  C   UNK d   1      21.914  15.279  31.994  0.00  0.00     0.224 C 
ATOM      4  O   UNK d   1      21.071  15.497  32.906  0.00  0.00    -0.273 OA
ATOM      5  N   UNK d   1      22.135  16.204  30.945  0.00  0.00    -0.310 N 
ATOM      6  C   UNK d   1      22.822  15.799  29.779  0.00  0.00     0.160 A 
ATOM      7  N   UNK d   1      23.036  16.714  28.783  0.00  0.00    -0.044 NA
ATOM      8  C   UNK d   1      23.690  16.404  27.662  0.00  0.00     0.728 A 
ATOM      9  N   UNK d   1      24.139  15.149  27.531  0.00  0.00    -0.045 NA
ATOM     10  C   UNK d   1      23.950  14.198  28.492  0.00  0.00     0.151 A 
ATOM     11  C   UNK d   1      23.279  14.494  29.662  0.00  0.00     0.048 A 
ATOM     12  H   UNK d   1      21.797  17.208  31.005  0.00  0.00     0.170 HD
ENDROOT
BRANCH   1  13
ATOM     13  C   UNK d   1      21.953  12.485  30.322  0.00  0.00     0.231 C 
ATOM     14  N   UNK d   1      22.162  11.185  30.442  0.00  0.00    -0.327 N 
ATOM     15  H   UNK d   1      20.979  10.933  29.814  0.00  0.00     0.169 HD
ATOM     16  O   UNK d   1      20.913  13.140  29.913  0.00  0.00    -0.272 OA
BRANCH  14  17
ATOM     17  C   UNK d   1      22.377   9.836  30.565  0.00  0.00     0.034 A 
ATOM     18  C   UNK d   1      21.599   9.156  31.554  0.00  0.00     0.031 A 
ATOM     19  C   UNK d   1      21.672   7.820  31.715  0.00  0.00     0.021 A 
ATOM     20  C   UNK d   1      22.498   7.046  30.939  0.00  0.00     0.011 A 
ATOM     21 Br   UNK d   1      22.585   5.144  31.178  0.00  0.00    -0.051 Br
ATOM     22  C   UNK d   1      23.267   7.662  29.976  0.00  0.00     0.021 A 
ATOM     23  C   UNK d   1      23.193   9.023  29.809  0.00  0.00     0.031 A 
ENDBRANCH  14  17
ENDBRANCH   1  13
BRANCH  10  24
ATOM     24  N   UNK d   1      24.436  12.874  28.300  0.00  0.00    -0.383 N 
ATOM     25  H   UNK d   1      25.025  12.600  27.508  0.00  0.00     0.157 HD
ATOM     26  H   UNK d   1      24.173  12.137  29.004  0.00  0.00     0.157 HD
ENDBRANCH  10  24
BRANCH   8  27
ATOM     27  N   UNK d   1      23.902  17.387  26.622  0.00  0.00    -0.210 N 
ATOM     28  C   UNK d   1      23.201  18.617  26.743  0.00  0.00     0.167 C 
ATOM     29  C   UNK d   1      23.776  19.738  25.925  0.00  0.00     0.188 C 
ATOM     30  O   UNK d   1      24.948  19.374  25.272  0.00  0.00    -0.388 OA
ATOM     31  C   UNK d   1      24.797  18.194  24.557  0.00  0.00     0.188 C 
ATOM     32  C   UNK d   1      24.809  17.054  25.543  0.00  0.00     0.167 C 
ENDBRANCH   8  27
TORSDOF 4
ENDMDL
