MODEL 1
REMARK VINA RESULT:    -9.203      0.000      0.000
REMARK INTER + INTRA:         -12.341
REMARK INTER:                 -11.623
REMARK INTRA:                  -0.718
REMARK UNBOUND:                -0.718
REMARK  5 active torsions:
REMARK  status: ('A' for Active; 'I' for Inactive)
REMARK    1  A    between atoms: C_5  and  N_8 
REMARK    2  A    between atoms: C_9  and  C_11 
REMARK    3  A    between atoms: C_18  and  N_23 
REMARK    4  A    between atoms: C_20  and  O_22 
REMARK    5  A    between atoms: C_26  and  C_29 
REMARK       I    between atoms: C_29  and  N_31 
ROOT
ATOM      1  C   UNK d   1      21.425   6.342  31.869  0.00  0.00     0.113 C 
ATOM      2  C   UNK d   1      19.924   6.540  31.978  0.00  0.00     0.121 C 
ATOM      3  C   UNK d   1      19.683   7.706  32.882  0.00  0.00     0.224 C 
ATOM      4  O   UNK d   1      18.885   7.629  33.799  0.00  0.00    -0.273 OA
ATOM      5  N   UNK d   1      20.416   8.870  32.610  0.00  0.00    -0.310 N 
ATOM      6  C   UNK d   1      21.619   8.812  31.869  0.00  0.00     0.160 A 
ATOM      7  N   UNK d   1      22.281   9.932  31.517  0.00  0.00    -0.044 NA
ATOM      8  C   UNK d   1      23.367   9.976  30.745  0.00  0.00     0.729 A 
ATOM      9  N   UNK d   1      23.805   8.770  30.300  0.00  0.00    -0.038 NA
ATOM     10  C   UNK d   1      23.191   7.601  30.616  0.00  0.00     0.192 A 
ATOM     11  C   UNK d   1      22.084   7.557  31.408  0.00  0.00     0.054 A 
ATOM     12  H   UNK d   1      20.111   9.827  32.933  0.00  0.00     0.170 HD
ENDROOT
BRANCH   1  13
ATOM     13  C   UNK d   1      21.823   5.025  31.301  0.00  0.00     0.165 C 
ATOM     14  N   UNK d   1      22.780   4.259  31.860  0.00  0.00    -0.338 N 
ATOM     15  H   UNK d   1      22.507   3.268  30.988  0.00  0.00     0.168 HD
ATOM     16  O   UNK d   1      21.111   4.774  30.237  0.00  0.00    -0.176 OA
BRANCH  14  17
ATOM     17  C   UNK d   1      23.755   3.477  32.427  0.00  0.00     0.033 A 
ATOM     18  C   UNK d   1      25.028   3.564  31.777  0.00  0.00     0.031 A 
ATOM     19  C   UNK d   1      26.024   2.770  32.238  0.00  0.00     0.021 A 
ATOM     20  C   UNK d   1      25.869   1.890  33.295  0.00  0.00     0.011 A 
ATOM     21 Br   UNK d   1      27.331   0.826  33.856  0.00  0.00    -0.051 Br
ATOM     22  C   UNK d   1      24.661   1.795  33.925  0.00  0.00     0.021 A 
ATOM     23  C   UNK d   1      23.634   2.594  33.473  0.00  0.00     0.031 A 
ENDBRANCH  14  17
ENDBRANCH   1  13
BRANCH  10  24
ATOM     24  O   UNK d   1      23.704   6.408  30.114  0.00  0.00    -0.344 OA
ATOM     25  H   UNK d   1      23.185   5.533  30.152  0.00  0.00     0.219 HD
ENDBRANCH  10  24
BRANCH   8  26
ATOM     26  N   UNK d   1      24.074  11.161  30.432  0.00  0.00    -0.214 N 
ATOM     27  C   UNK d   1      24.121  11.820  29.153  0.00  0.00     0.142 C 
ATOM     28  C   UNK d   1      24.094  13.327  29.390  0.00  0.00     0.034 C 
ATOM     29  C   UNK d   1      23.356  13.691  30.645  0.00  0.00     0.081 C 
ATOM     30  C   UNK d   1      23.978  13.070  31.846  0.00  0.00     0.034 C 
ATOM     31  C   UNK d   1      24.835  11.832  31.492  0.00  0.00     0.142 C 
BRANCH  29  32
ATOM     32  C   UNK d   1      21.905  13.413  30.536  0.00  0.00     0.219 C 
ATOM     33  O   UNK d   1      21.200  13.601  31.549  0.00  0.00    -0.273 OA
ATOM     34  N   UNK d   1      21.279  12.947  29.358  0.00  0.00    -0.370 N 
ATOM     35  H   UNK d   1      21.575  13.246  28.411  0.00  0.00     0.159 HD
ATOM     36  H   UNK d   1      20.490  12.273  29.445  0.00  0.00     0.159 HD
ENDBRANCH  29  32
ENDBRANCH   8  26
TORSDOF 5
ENDMDL
