MODEL 1
REMARK VINA RESULT:    -7.046      0.000      0.000
REMARK INTER + INTRA:          -9.197
REMARK INTER:                  -8.282
REMARK INTRA:                  -0.915
REMARK UNBOUND:                -0.915
REMARK  3 active torsions:
REMARK  status: ('A' for Active; 'I' for Inactive)
REMARK    1  A    between atoms: C_5  and  N_8 
REMARK    2  A    between atoms: C_11  and  C_18 
REMARK    3  A    between atoms: C_12  and  N_13 
REMARK       I    between atoms: C_18  and  N_20 
ROOT
ATOM      1  N   UNK d   1      25.091   7.858  29.732  0.00  0.00    -0.216 N 
ATOM      2  N   UNK d   1      26.198   8.085  29.069  0.00  0.00    -0.177 NA
ATOM      3  C   UNK d   1      26.803   6.948  28.671  0.00  0.00     0.160 A 
ATOM      4  C   UNK d   1      26.012   5.926  29.122  0.00  0.00     0.097 A 
ATOM      5  C   UNK d   1      24.953   6.516  29.779  0.00  0.00     0.153 A 
ENDROOT
BRANCH   4   6
ATOM      6  C   UNK d   1      26.277   4.507  28.923  0.00  0.00     0.259 C 
ATOM      7  O   UNK d   1      25.856   4.003  27.853  0.00  0.00    -0.267 OA
ATOM      8  N   UNK d   1      26.966   3.704  29.858  0.00  0.00    -0.338 N 
ATOM      9  C   UNK d   1      27.175   2.307  29.563  0.00  0.00     0.146 C 
ATOM     10  C   UNK d   1      27.496   4.166  31.120  0.00  0.00     0.228 C 
ATOM     11  C   UNK d   1      28.646   2.090  29.369  0.00  0.00     0.142 C 
ATOM     12  N   UNK d   1      29.445   3.138  29.994  0.00  0.00    -0.358 N 
ATOM     13  C   UNK d   1      28.958   3.934  31.069  0.00  0.00     0.235 C 
ATOM     14  H   UNK d   1      30.426   3.297  29.615  0.00  0.00     0.162 HD
ATOM     15  O   UNK d   1      29.761   4.402  31.913  0.00  0.00    -0.272 OA
ENDBRANCH   4   6
BRANCH   5  16
ATOM     16  N   UNK d   1      23.858   5.826  30.423  0.00  0.00    -0.317 N 
ATOM     17  C   UNK d   1      22.567   5.879  30.131  0.00  0.00     0.098 A 
ATOM     18  C   UNK d   1      21.847   5.073  30.981  0.00  0.00     0.019 A 
ATOM     19  C   UNK d   1      22.776   4.513  31.825  0.00  0.00     0.019 A 
ATOM     20  C   UNK d   1      24.015   4.991  31.463  0.00  0.00     0.098 A 
ENDBRANCH   5  16
BRANCH   1  21
ATOM     21  C   UNK d   1      24.229   8.858  30.281  0.00  0.00     0.060 A 
ATOM     22  C   UNK d   1      23.226   9.449  29.536  0.00  0.00     0.033 A 
ATOM     23  C   UNK d   1      22.381  10.416  30.044  0.00  0.00     0.021 A 
ATOM     24  C   UNK d   1      22.523  10.829  31.352  0.00  0.00     0.011 A 
ATOM     25 Br   UNK d   1      21.365  12.167  32.077  0.00  0.00    -0.051 Br
ATOM     26  C   UNK d   1      23.522  10.250  32.111  0.00  0.00     0.021 A 
ATOM     27  C   UNK d   1      24.359   9.283  31.590  0.00  0.00     0.033 A 
ENDBRANCH   1  21
TORSDOF 3
ENDMDL
