MODEL 1
REMARK VINA RESULT:    -8.990      0.000      0.000
REMARK INTER + INTRA:         -10.487
REMARK INTER:                 -10.567
REMARK INTRA:                   0.080
REMARK UNBOUND:                 0.080
REMARK  3 active torsions:
REMARK  status: ('A' for Active; 'I' for Inactive)
REMARK    1  A    between atoms: C_5  and  N_8 
REMARK    2  A    between atoms: N_15  and  C_18 
REMARK    3  A    between atoms: C_18  and  C_19 
REMARK       I    between atoms: C_19  and  N_21 
ROOT
ATOM      1  N   UNK d   1      20.736  10.366  32.656  0.00  0.00    -0.218 N 
ATOM      2  N   UNK d   1      19.931   9.915  33.602  0.00  0.00     0.012 NA
ATOM      3  N   UNK d   1      19.860   8.595  33.588  0.00  0.00    -0.150 NA
ATOM      4  C   UNK d   1      20.653   8.128  32.586  0.00  0.00     0.190 A 
ATOM      5  C   UNK d   1      21.188   9.271  32.020  0.00  0.00     0.185 A 
ATOM      6  N   UNK d   1      22.024   9.103  30.988  0.00  0.00    -0.222 NA
ATOM      7  C   UNK d   1      22.320   7.873  30.534  0.00  0.00     0.215 A 
ATOM      8  N   UNK d   1      21.800   6.751  31.082  0.00  0.00    -0.298 N 
ATOM      9  C   UNK d   1      20.959   6.874  32.116  0.00  0.00     0.283 A 
ATOM     10  O   UNK d   1      20.476   5.838  32.625  0.00  0.00    -0.265 OA
ENDROOT
BRANCH   8  11
ATOM     11  C   UNK d   1      22.178   5.468  30.520  0.00  0.00     0.236 C 
BRANCH  11  12
ATOM     12  C   UNK d   1      23.679   5.325  30.516  0.00  0.00     0.238 C 
ATOM     13  O   UNK d   1      24.389   6.037  29.756  0.00  0.00    -0.272 OA
ATOM     14  N   UNK d   1      24.321   4.391  31.363  0.00  0.00    -0.346 N 
ATOM     15  C   UNK d   1      25.757   4.245  31.367  0.00  0.00     0.157 C 
ATOM     16  C   UNK d   1      23.543   3.556  32.248  0.00  0.00     0.157 C 
ATOM     17  C   UNK d   1      26.049   2.755  31.356  0.00  0.00     0.136 C 
ATOM     18  O   UNK d   1      25.445   2.070  32.379  0.00  0.00    -0.378 OA
ATOM     19  C   UNK d   1      27.562   2.616  31.555  0.00  0.00     0.041 C 
ATOM     20  C   UNK d   1      24.535   2.798  33.105  0.00  0.00     0.136 C 
ATOM     21  C   UNK d   1      23.800   1.985  34.130  0.00  0.00     0.041 C 
ENDBRANCH  11  12
ENDBRANCH   8  11
BRANCH   1  22
ATOM     22  C   UNK d   1      21.070  11.722  32.351  0.00  0.00     0.057 A 
ATOM     23  C   UNK d   1      20.221  12.745  32.718  0.00  0.00     0.032 A 
ATOM     24  C   UNK d   1      20.538  14.064  32.427  0.00  0.00     0.021 A 
ATOM     25  C   UNK d   1      21.699  14.408  31.767  0.00  0.00     0.011 A 
ATOM     26 Br   UNK d   1      22.115  16.236  31.376  0.00  0.00    -0.051 Br
ATOM     27  C   UNK d   1      22.548  13.385  31.400  0.00  0.00     0.021 A 
ATOM     28  C   UNK d   1      22.230  12.074  31.691  0.00  0.00     0.032 A 
ENDBRANCH   1  22
TORSDOF 3
ENDMDL
