/Users/jonathanwahrer/Desktop/Msc/3_Semester/Drug_Design_Praktikum/waehrer_HTS_screening/HTS_experiment/out/docking_results/vina_output/3elj/0399_docked.pdbqt
 OpenBabel03192217353D

 28 31  0  0  1  0  0  0  0  0999 V2000
   25.8990   14.5570   27.4170 N   0  0  0  0  0  0  0  0  0  0  0  0
   25.7300   13.1670   27.6710 C   0  0  0  0  0  0  0  0  0  0  0  0
   26.5110   12.2690   27.2900 O   0  0  0  0  0  0  0  0  0  0  0  0
   24.5080   12.9100   28.4470 C   0  0  2  0  0  3  0  0  0  0  0  0
   23.6650   14.1400   28.1270 C   0  0  0  0  0  2  0  0  0  0  0  0
   24.7040   15.1950   27.9090 C   0  0  0  0  0  0  0  0  0  0  0  0
   24.4640   16.3930   28.1460 O   0  0  0  0  0  0  0  0  0  0  0  0
   24.6970   12.7900   29.8750 N   0  0  1  0  0  4  0  0  0  0  0  0
   23.6550   13.4460   30.6260 C   0  0  0  0  0  2  0  0  0  0  0  0
   22.5590   12.5230   31.1110 C   0  0  0  0  0  2  0  0  0  0  0  0
   23.0970   11.2740   31.5870 N   0  0  0  0  0  0  0  0  0  0  0  0
   24.5330   11.2580   31.7300 C   0  0  0  0  0  2  0  0  0  0  0  0
   25.0530   11.4840   30.2980 C   0  0  0  0  0  2  0  0  0  0  0  0
   25.5630   13.4010   30.0630 H   0  0  0  0  0  0  0  0  0  0  0  0
   22.3180   10.1480   31.8760 C   0  0  0  0  0  0  0  0  0  0  0  0
   22.6140    8.8530   31.5020 C   0  0  0  0  0  3  0  0  0  0  0  0
   21.7940    7.7750   31.7940 C   0  0  0  0  0  3  0  0  0  0  0  0
   20.6270    7.9670   32.4830 C   0  0  0  0  0  0  0  0  0  0  0  0
   20.2810    9.2430   32.8810 C   0  0  0  0  0  3  0  0  0  0  0  0
   19.7570    6.9260   32.8090 O   0  0  0  0  0  1  0  0  0  0  0  0
   21.1170   10.3030   32.5780 C   0  0  0  0  0  3  0  0  0  0  0  0
   27.0020   15.2340   26.8110 C   0  0  0  0  0  0  0  0  0  0  0  0
   28.1850   15.4070   27.4700 C   0  0  0  0  0  3  0  0  0  0  0  0
   29.2620   16.0720   26.8730 C   0  0  0  0  0  3  0  0  0  0  0  0
   29.1730   16.5760   25.6050 C   0  0  0  0  0  0  0  0  0  0  0  0
   30.6420   17.4870   24.7800 Br  0  0  0  0  0  0  0  0  0  0  0  0
   27.9830   16.4030   24.9370 C   0  0  0  0  0  3  0  0  0  0  0  0
   26.9090   15.7350   25.5450 C   0  0  0  0  0  3  0  0  0  0  0  0
  1  2  1  0  0  0  0
  1  6  1  0  0  0  0
  2  4  1  0  0  0  0
  3  2  2  0  0  0  0
  4  5  1  1  0  0  0
  4  8  1  0  0  0  0
  6  5  1  0  0  0  0
  6  7  2  0  0  0  0
  8 14  1  1  0  0  0
  8 13  1  0  0  0  0
  8  9  1  0  0  0  0
  9 10  1  0  0  0  0
 10 11  1  0  0  0  0
 11 12  1  0  0  0  0
 11 15  1  0  0  0  0
 13 12  1  0  0  0  0
 15 21  1  0  0  0  0
 16 17  1  0  0  0  0
 16 15  2  0  0  0  0
 17 18  2  0  0  0  0
 18 20  1  0  0  0  0
 18 19  1  0  0  0  0
 21 19  2  0  0  0  0
 22  1  1  0  0  0  0
 22 23  1  0  0  0  0
 24 23  2  0  0  0  0
 25 24  1  0  0  0  0
 26 25  1  0  0  0  0
 27 28  1  0  0  0  0
 27 25  2  0  0  0  0
 28 22  2  0  0  0  0
M  END
>  <Pose>
1

>  <Score>
-8.238

$$$$
