MODEL 1
REMARK VINA RESULT:    -8.238      0.000      0.000
REMARK INTER + INTRA:         -10.314
REMARK INTER:                  -9.683
REMARK INTRA:                  -0.631
REMARK UNBOUND:                -0.631
REMARK  3 active torsions:
REMARK  status: ('A' for Active; 'I' for Inactive)
REMARK    1  A    between atoms: C_5  and  N_8 
REMARK    2  A    between atoms: C_11  and  N_15 
REMARK    3  A    between atoms: N_18  and  C_21 
ROOT
ATOM      1  N   UNK d   1      25.899  14.557  27.417  0.00  0.00    -0.251 N 
ATOM      2  C   UNK d   1      25.730  13.167  27.671  0.00  0.00     0.262 C 
ATOM      3  O   UNK d   1      26.511  12.269  27.290  0.00  0.00    -0.270 OA
ATOM      4  C   UNK d   1      24.508  12.910  28.447  0.00  0.00     0.289 C 
ATOM      5  C   UNK d   1      23.665  14.140  28.127  0.00  0.00     0.146 C 
ATOM      6  C   UNK d   1      24.704  15.195  27.909  0.00  0.00     0.233 C 
ATOM      7  O   UNK d   1      24.464  16.393  28.146  0.00  0.00    -0.273 OA
ENDROOT
BRANCH   4   8
ATOM      8  N   UNK d   1      24.697  12.790  29.875  0.00  0.00    -0.055 N 
ATOM      9  C   UNK d   1      23.655  13.446  30.626  0.00  0.00     0.255 C 
ATOM     10  C   UNK d   1      22.559  12.523  31.111  0.00  0.00     0.150 C 
ATOM     11  N   UNK d   1      23.097  11.274  31.587  0.00  0.00    -0.378 N 
ATOM     12  C   UNK d   1      24.533  11.258  31.730  0.00  0.00     0.150 C 
ATOM     13  C   UNK d   1      25.053  11.484  30.298  0.00  0.00     0.255 C 
ATOM     14  H   UNK d   1      25.563  13.401  30.063  0.00  0.00     0.281 HD
BRANCH  11  15
ATOM     15  C   UNK d   1      22.318  10.148  31.876  0.00  0.00     0.030 A 
ATOM     16  C   UNK d   1      22.614   8.853  31.502  0.00  0.00     0.032 A 
ATOM     17  C   UNK d   1      21.794   7.775  31.794  0.00  0.00     0.042 A 
ATOM     18  C   UNK d   1      20.627   7.967  32.483  0.00  0.00     0.107 A 
ATOM     19  C   UNK d   1      20.281   9.243  32.881  0.00  0.00     0.042 A 
ATOM     20  O   UNK d   1      19.757   6.926  32.809  0.00  0.00    -0.192 OA
ATOM     21  C   UNK d   1      21.117  10.303  32.578  0.00  0.00     0.032 A 
ENDBRANCH  11  15
ENDBRANCH   4   8
BRANCH   1  22
ATOM     22  C   UNK d   1      27.002  15.234  26.811  0.00  0.00     0.045 A 
ATOM     23  C   UNK d   1      28.185  15.407  27.470  0.00  0.00     0.031 A 
ATOM     24  C   UNK d   1      29.262  16.072  26.873  0.00  0.00     0.021 A 
ATOM     25  C   UNK d   1      29.173  16.576  25.605  0.00  0.00     0.011 A 
ATOM     26 Br   UNK d   1      30.642  17.487  24.780  0.00  0.00    -0.051 Br
ATOM     27  C   UNK d   1      27.983  16.403  24.937  0.00  0.00     0.021 A 
ATOM     28  C   UNK d   1      26.909  15.735  25.545  0.00  0.00     0.031 A 
ENDBRANCH   1  22
TORSDOF 3
ENDMDL
