MODEL 1
REMARK VINA RESULT:    -8.468      0.000      0.000
REMARK INTER + INTRA:         -11.702
REMARK INTER:                 -10.449
REMARK INTRA:                  -1.254
REMARK UNBOUND:                -1.254
REMARK  4 active torsions:
REMARK  status: ('A' for Active; 'I' for Inactive)
REMARK    1  A    between atoms: C_5  and  N_8 
REMARK    2  A    between atoms: C_11  and  N_15 
REMARK    3  A    between atoms: C_18  and  N_21 
REMARK    4  A    between atoms: C_18  and  C_27 
REMARK       I    between atoms: C_27  and  N_29 
ROOT
ATOM      1  N   UNK d   1      24.139  12.489  30.377  0.00  0.00    -0.399 N 
ATOM      2  C   UNK d   1      23.553  12.669  31.643  0.00  0.00     0.120 C 
ATOM      3  C   UNK d   1      23.224  14.157  31.824  0.00  0.00     0.060 C 
ATOM      4  C   UNK d   1      22.128  14.593  30.877  0.00  0.00     0.112 C 
ATOM      5  C   UNK d   1      22.341  13.975  29.554  0.00  0.00     0.060 C 
ATOM      6  C   UNK d   1      23.740  13.431  29.401  0.00  0.00     0.120 C 
ENDROOT
BRANCH   1   7
ATOM      7  C   UNK d   1      24.424  11.188  29.925  0.00  0.00     0.181 C 
ATOM      8  C   UNK d   1      23.163  10.409  29.817  0.00  0.00     0.254 C 
ATOM      9  N   UNK d   1      23.188   9.400  30.832  0.00  0.00    -0.251 N 
ATOM     10  O   UNK d   1      22.260  10.626  28.973  0.00  0.00    -0.270 OA
ATOM     11  C   UNK d   1      24.566   9.157  31.082  0.00  0.00     0.233 C 
ATOM     12  C   UNK d   1      25.342  10.402  30.836  0.00  0.00     0.138 C 
ATOM     13  O   UNK d   1      25.045   8.031  31.462  0.00  0.00    -0.273 OA
BRANCH   9  14
ATOM     14  C   UNK d   1      22.057   8.778  31.448  0.00  0.00     0.045 A 
ATOM     15  C   UNK d   1      21.156   9.537  32.147  0.00  0.00     0.031 A 
ATOM     16  C   UNK d   1      20.042   8.947  32.756  0.00  0.00     0.021 A 
ATOM     17  C   UNK d   1      19.807   7.593  32.681  0.00  0.00     0.011 A 
ATOM     18 Br   UNK d   1      18.289   6.776  33.509  0.00  0.00    -0.051 Br
ATOM     19  C   UNK d   1      20.714   6.830  31.978  0.00  0.00     0.021 A 
ATOM     20  C   UNK d   1      21.812   7.425  31.378  0.00  0.00     0.031 A 
ENDBRANCH   9  14
ENDBRANCH   1   7
BRANCH   4  21
ATOM     21  N   UNK d   1      20.889  14.359  31.494  0.00  0.00    -0.396 N 
ATOM     22  C   UNK d   1      20.847  14.190  32.886  0.00  0.00     0.118 C 
ATOM     23  C   UNK d   1      20.151  12.843  33.149  0.00  0.00     0.019 C 
ATOM     24  C   UNK d   1      18.727  13.015  32.662  0.00  0.00     0.003 C 
ATOM     25  C   UNK d   1      18.544  14.191  31.762  0.00  0.00     0.019 C 
ATOM     26  C   UNK d   1      19.708  14.375  30.777  0.00  0.00     0.118 C 
ENDBRANCH   4  21
BRANCH   4  27
ATOM     27  C   UNK d   1      22.295  16.083  30.734  0.00  0.00     0.243 C 
ATOM     28  O   UNK d   1      22.526  16.793  31.759  0.00  0.00    -0.271 OA
ATOM     29  N   UNK d   1      22.205  16.750  29.490  0.00  0.00    -0.368 N 
ATOM     30  H   UNK d   1      21.466  17.447  29.338  0.00  0.00     0.159 HD
ATOM     31  H   UNK d   1      22.878  16.548  28.726  0.00  0.00     0.159 HD
ENDBRANCH   4  27
TORSDOF 4
ENDMDL
