/Users/jonathanwahrer/Desktop/Msc/3_Semester/Drug_Design_Praktikum/waehrer_HTS_screening/HTS_experiment/out/docking_results/vina_output/3elj/0408_docked.pdbqt
 OpenBabel03192217353D

 31 34  0  0  0  0  0  0  0  0999 V2000
   25.9980   14.4220   27.2930 N   0  0  0  0  0  0  0  0  0  0  0  0
   25.9930   13.1670   27.7720 C   0  0  0  0  0  0  0  0  0  0  0  0
   26.9380   12.3390   27.5870 O   0  0  0  0  0  0  0  0  0  0  0  0
   24.8230   12.9070   28.4860 C   0  0  0  0  0  0  0  0  0  0  0  0
   24.1190   14.0340   28.4310 C   0  0  0  0  0  0  0  0  0  0  0  0
   22.9980   13.7620   29.1240 N   0  0  0  0  0  0  0  0  0  0  0  0
   23.0290   12.5200   29.5790 N   0  0  0  0  0  0  0  0  0  0  0  0
   24.1590   11.9810   29.1880 N   0  0  0  0  0  0  0  0  0  0  0  0
   24.8290   14.9670   27.7030 C   0  0  0  0  0  0  0  0  0  0  0  0
   24.4860   16.1400   27.4390 O   0  0  0  0  0  0  0  0  0  0  0  0
   22.2440   14.4840   29.2480 H   0  0  0  0  0  0  0  0  0  0  0  0
   22.2570   12.1000   30.1450 H   0  0  0  0  0  0  0  0  0  0  0  0
   24.6250   10.6430   29.4500 C   0  0  0  0  0  2  0  0  0  0  0  0
   23.4960    9.7130   29.7840 C   0  0  0  0  0  0  0  0  0  0  0  0
   22.6680    9.5470   28.8570 O   0  0  0  0  0  0  0  0  0  0  0  0
   23.3800    9.0860   31.0280 N   0  0  0  0  0  0  0  0  0  0  0  0
   24.1670    9.3280   31.7200 H   0  0  0  0  0  0  0  0  0  0  0  0
   22.3750    8.2060   31.4450 C   0  0  0  0  0  0  0  0  0  0  0  0
   21.3020    8.7540   32.1670 C   0  0  0  0  0  0  0  0  0  0  0  0
   20.2940    7.9270   32.5950 C   0  0  0  0  0  3  0  0  0  0  0  0
   21.2380   10.1960   32.4750 C   0  0  0  0  0  1  0  0  0  0  0  0
   20.2810    6.5710   32.3470 C   0  0  0  0  0  3  0  0  0  0  0  0
   21.3190    6.0320   31.6470 C   0  0  0  0  0  3  0  0  0  0  0  0
   22.3390    6.8530   31.2120 C   0  0  0  0  0  3  0  0  0  0  0  0
   27.0150   15.0510   26.5190 C   0  0  0  0  0  0  0  0  0  0  0  0
   28.1260   15.6050   27.1330 C   0  0  0  0  0  3  0  0  0  0  0  0
   29.1250   16.2190   26.4020 C   0  0  0  0  0  3  0  0  0  0  0  0
   29.0540   16.3050   25.0280 C   0  0  0  0  0  0  0  0  0  0  0  0
   30.4430   17.1590   24.0160 Br  0  0  0  0  0  0  0  0  0  0  0  0
   27.9540   15.7580   24.4070 C   0  0  0  0  0  3  0  0  0  0  0  0
   26.9640   15.1470   25.1430 C   0  0  0  0  0  3  0  0  0  0  0  0
  1  9  1  0  0  0  0
  1  2  1  0  0  0  0
  2  4  1  0  0  0  0
  3  2  2  0  0  0  0
  4  8  1  0  0  0  0
  5  4  2  0  0  0  0
  5  6  1  0  0  0  0
  6 11  1  0  0  0  0
  6  7  1  0  0  0  0
  7 12  1  0  0  0  0
  8 13  1  0  0  0  0
  8  7  1  0  0  0  0
  9  5  1  0  0  0  0
 10  9  2  0  0  0  0
 13 14  1  0  0  0  0
 14 16  1  0  0  0  0
 15 14  2  0  0  0  0
 16 18  1  0  0  0  0
 16 17  1  0  0  0  0
 18 19  1  0  0  0  0
 19 21  1  0  0  0  0
 19 20  2  0  0  0  0
 22 20  1  0  0  0  0
 23 22  2  0  0  0  0
 24 18  2  0  0  0  0
 24 23  1  0  0  0  0
 25 26  1  0  0  0  0
 25  1  1  0  0  0  0
 27 26  2  0  0  0  0
 28 27  1  0  0  0  0
 29 28  1  0  0  0  0
 30 28  2  0  0  0  0
 30 31  1  0  0  0  0
 31 25  2  0  0  0  0
M  END
>  <Pose>
1

>  <Score>
-8.936

$$$$
