MODEL 1
REMARK VINA RESULT:    -8.936      0.000      0.000
REMARK INTER + INTRA:         -12.007
REMARK INTER:                 -11.025
REMARK INTRA:                  -0.981
REMARK UNBOUND:                -0.981
REMARK  4 active torsions:
REMARK  status: ('A' for Active; 'I' for Inactive)
REMARK    1  A    between atoms: C_5  and  N_8 
REMARK    2  A    between atoms: N_15  and  C_16 
REMARK    3  A    between atoms: C_16  and  C_17 
REMARK       I    between atoms: C_17  and  N_19 
REMARK    4  A    between atoms: N_19  and  C_20 
ROOT
ATOM      1  N   UNK d   1      25.998  14.422  27.293  0.00  0.00    -0.241 N 
ATOM      2  C   UNK d   1      25.993  13.167  27.772  0.00  0.00     0.286 A 
ATOM      3  O   UNK d   1      26.938  12.339  27.587  0.00  0.00    -0.265 OA
ATOM      4  C   UNK d   1      24.823  12.907  28.486  0.00  0.00     0.155 A 
ATOM      5  C   UNK d   1      24.119  14.034  28.431  0.00  0.00     0.152 A 
ATOM      6  N   UNK d   1      22.998  13.762  29.124  0.00  0.00    -0.279 N 
ATOM      7  N   UNK d   1      23.029  12.520  29.579  0.00  0.00    -0.239 N 
ATOM      8  N   UNK d   1      24.159  11.981  29.188  0.00  0.00    -0.261 N 
ATOM      9  C   UNK d   1      24.829  14.967  27.703  0.00  0.00     0.286 A 
ATOM     10  O   UNK d   1      24.486  16.140  27.439  0.00  0.00    -0.265 OA
ATOM     11  H   UNK d   1      22.244  14.484  29.248  0.00  0.00     0.189 HD
ATOM     12  H   UNK d   1      22.257  12.100  30.145  0.00  0.00     0.208 HD
ENDROOT
BRANCH   8  13
ATOM     13  C   UNK d   1      24.625  10.643  29.450  0.00  0.00     0.254 C 
BRANCH  13  14
ATOM     14  C   UNK d   1      23.496   9.713  29.784  0.00  0.00     0.242 C 
ATOM     15  O   UNK d   1      22.668   9.547  28.857  0.00  0.00    -0.271 OA
ATOM     16  N   UNK d   1      23.380   9.086  31.028  0.00  0.00    -0.325 N 
ATOM     17  H   UNK d   1      24.167   9.328  31.720  0.00  0.00     0.169 HD
BRANCH  16  18
ATOM     18  C   UNK d   1      22.375   8.206  31.445  0.00  0.00     0.040 A 
ATOM     19  C   UNK d   1      21.302   8.754  32.167  0.00  0.00    -0.035 A 
ATOM     20  C   UNK d   1      20.294   7.927  32.595  0.00  0.00     0.009 A 
ATOM     21  C   UNK d   1      21.238  10.196  32.475  0.00  0.00     0.050 C 
ATOM     22  C   UNK d   1      20.281   6.571  32.347  0.00  0.00     0.001 A 
ATOM     23  C   UNK d   1      21.319   6.032  31.647  0.00  0.00     0.002 A 
ATOM     24  C   UNK d   1      22.339   6.853  31.212  0.00  0.00     0.030 A 
ENDBRANCH  16  18
ENDBRANCH  13  14
ENDBRANCH   8  13
BRANCH   1  25
ATOM     25  C   UNK d   1      27.015  15.051  26.519  0.00  0.00     0.046 A 
ATOM     26  C   UNK d   1      28.126  15.605  27.133  0.00  0.00     0.031 A 
ATOM     27  C   UNK d   1      29.125  16.219  26.402  0.00  0.00     0.021 A 
ATOM     28  C   UNK d   1      29.054  16.305  25.028  0.00  0.00     0.011 A 
ATOM     29 Br   UNK d   1      30.443  17.159  24.016  0.00  0.00    -0.051 Br
ATOM     30  C   UNK d   1      27.954  15.758  24.407  0.00  0.00     0.021 A 
ATOM     31  C   UNK d   1      26.964  15.147  25.143  0.00  0.00     0.031 A 
ENDBRANCH   1  25
TORSDOF 4
ENDMDL
