MODEL 1
REMARK VINA RESULT:    -8.756      0.000      0.000
REMARK INTER + INTRA:         -12.281
REMARK INTER:                 -11.828
REMARK INTRA:                  -0.453
REMARK UNBOUND:                -0.453
REMARK  6 active torsions:
REMARK  status: ('A' for Active; 'I' for Inactive)
REMARK    1  A    between atoms: C_5  and  N_8 
REMARK    2  A    between atoms: N_15  and  C_16 
REMARK    3  A    between atoms: C_16  and  C_17 
REMARK       I    between atoms: C_17  and  N_19 
REMARK    4  A    between atoms: N_19  and  C_20 
REMARK    5  A    between atoms: C_22  and  O_28 
REMARK    6  A    between atoms: C_23  and  O_26 
ROOT
ATOM      1  N   UNK d   1      24.199   7.796  30.293  0.00  0.00    -0.241 N 
ATOM      2  C   UNK d   1      23.322   8.046  31.279  0.00  0.00     0.286 A 
ATOM      3  O   UNK d   1      23.379   9.085  31.985  0.00  0.00    -0.265 OA
ATOM      4  C   UNK d   1      22.390   7.028  31.390  0.00  0.00     0.155 A 
ATOM      5  C   UNK d   1      22.707   6.143  30.453  0.00  0.00     0.152 A 
ATOM      6  N   UNK d   1      21.804   5.157  30.562  0.00  0.00    -0.279 N 
ATOM      7  N   UNK d   1      20.958   5.432  31.539  0.00  0.00    -0.239 N 
ATOM      8  N   UNK d   1      21.302   6.579  32.061  0.00  0.00    -0.261 N 
ATOM      9  C   UNK d   1      23.816   6.607  29.777  0.00  0.00     0.286 A 
ATOM     10  O   UNK d   1      24.394   6.008  28.810  0.00  0.00    -0.265 OA
ATOM     11  H   UNK d   1      21.747   4.294  29.985  0.00  0.00     0.189 HD
ATOM     12  H   UNK d   1      20.135   4.842  31.863  0.00  0.00     0.208 HD
ENDROOT
BRANCH   8  13
ATOM     13  C   UNK d   1      20.666   7.276  33.154  0.00  0.00     0.254 C 
BRANCH  13  14
ATOM     14  C   UNK d   1      20.240   8.647  32.684  0.00  0.00     0.242 C 
ATOM     15  O   UNK d   1      19.274   8.749  31.895  0.00  0.00    -0.271 OA
ATOM     16  N   UNK d   1      20.923   9.788  33.132  0.00  0.00    -0.326 N 
ATOM     17  H   UNK d   1      21.739   9.625  33.807  0.00  0.00     0.169 HD
BRANCH  16  18
ATOM     18  C   UNK d   1      20.626  11.119  32.779  0.00  0.00     0.037 A 
ATOM     19  C   UNK d   1      21.395  11.933  31.987  0.00  0.00     0.069 A 
ATOM     20  C   UNK d   1      21.057  13.238  31.692  0.00  0.00     0.103 A 
ATOM     21  C   UNK d   1      19.887  13.739  32.223  0.00  0.00     0.101 A 
ATOM     22  C   UNK d   1      19.081  12.950  33.027  0.00  0.00     0.042 A 
ATOM     23  C   UNK d   1      19.437  11.659  33.307  0.00  0.00     0.032 A 
BRANCH  20  24
ATOM     24  O   UNK d   1      21.859  14.041  30.884  0.00  0.00    -0.353 OA
ATOM     25  C   UNK d   1      23.242  13.686  30.762  0.00  0.00     0.210 C 
ENDBRANCH  20  24
BRANCH  21  26
ATOM     26  O   UNK d   1      19.526  15.054  31.937  0.00  0.00    -0.353 OA
ATOM     27  C   UNK d   1      18.591  15.304  30.907  0.00  0.00     0.210 C 
ENDBRANCH  21  26
ENDBRANCH  16  18
ENDBRANCH  13  14
ENDBRANCH   8  13
BRANCH   1  28
ATOM     28  C   UNK d   1      25.307   8.563  29.837  0.00  0.00     0.046 A 
ATOM     29  C   UNK d   1      26.488   7.993  29.409  0.00  0.00     0.031 A 
ATOM     30  C   UNK d   1      27.553   8.774  28.969  0.00  0.00     0.021 A 
ATOM     31  C   UNK d   1      27.464  10.152  28.947  0.00  0.00     0.011 A 
ATOM     32 Br   UNK d   1      28.925  11.234  28.343  0.00  0.00    -0.051 Br
ATOM     33  C   UNK d   1      26.279  10.714  29.377  0.00  0.00     0.021 A 
ATOM     34  C   UNK d   1      25.224   9.937  29.812  0.00  0.00     0.031 A 
ENDBRANCH   1  28
TORSDOF 6
ENDMDL
