/Users/jonathanwahrer/Desktop/Msc/3_Semester/Drug_Design_Praktikum/waehrer_HTS_screening/HTS_experiment/out/docking_results/vina_output/3elj/0411_docked.pdbqt
 OpenBabel03192217363D

 34 37  0  0  0  0  0  0  0  0999 V2000
   24.1990    7.7960   30.2930 N   0  0  0  0  0  0  0  0  0  0  0  0
   23.3220    8.0460   31.2790 C   0  0  0  0  0  0  0  0  0  0  0  0
   23.3790    9.0850   31.9850 O   0  0  0  0  0  0  0  0  0  0  0  0
   22.3900    7.0280   31.3900 C   0  0  0  0  0  0  0  0  0  0  0  0
   22.7070    6.1430   30.4530 C   0  0  0  0  0  0  0  0  0  0  0  0
   21.8040    5.1570   30.5620 N   0  0  0  0  0  0  0  0  0  0  0  0
   20.9580    5.4320   31.5390 N   0  0  0  0  0  0  0  0  0  0  0  0
   21.3020    6.5790   32.0610 N   0  0  0  0  0  0  0  0  0  0  0  0
   23.8160    6.6070   29.7770 C   0  0  0  0  0  0  0  0  0  0  0  0
   24.3940    6.0080   28.8100 O   0  0  0  0  0  0  0  0  0  0  0  0
   21.7470    4.2940   29.9850 H   0  0  0  0  0  0  0  0  0  0  0  0
   20.1350    4.8420   31.8630 H   0  0  0  0  0  0  0  0  0  0  0  0
   20.6660    7.2760   33.1540 C   0  0  0  0  0  2  0  0  0  0  0  0
   20.2400    8.6470   32.6840 C   0  0  0  0  0  0  0  0  0  0  0  0
   19.2740    8.7490   31.8950 O   0  0  0  0  0  0  0  0  0  0  0  0
   20.9230    9.7880   33.1320 N   0  0  0  0  0  0  0  0  0  0  0  0
   21.7390    9.6250   33.8070 H   0  0  0  0  0  0  0  0  0  0  0  0
   20.6260   11.1190   32.7790 C   0  0  0  0  0  0  0  0  0  0  0  0
   21.3950   11.9330   31.9870 C   0  0  0  0  0  3  0  0  0  0  0  0
   21.0570   13.2380   31.6920 C   0  0  0  0  0  0  0  0  0  0  0  0
   19.8870   13.7390   32.2230 C   0  0  0  0  0  0  0  0  0  0  0  0
   19.0810   12.9500   33.0270 C   0  0  0  0  0  3  0  0  0  0  0  0
   19.4370   11.6590   33.3070 C   0  0  0  0  0  3  0  0  0  0  0  0
   21.8590   14.0410   30.8840 O   0  0  0  0  0  0  0  0  0  0  0  0
   23.2420   13.6860   30.7620 C   0  0  0  0  0  1  0  0  0  0  0  0
   19.5260   15.0540   31.9370 O   0  0  0  0  0  0  0  0  0  0  0  0
   18.5910   15.3040   30.9070 C   0  0  0  0  0  1  0  0  0  0  0  0
   25.3070    8.5630   29.8370 C   0  0  0  0  0  0  0  0  0  0  0  0
   26.4880    7.9930   29.4090 C   0  0  0  0  0  3  0  0  0  0  0  0
   27.5530    8.7740   28.9690 C   0  0  0  0  0  3  0  0  0  0  0  0
   27.4640   10.1520   28.9470 C   0  0  0  0  0  0  0  0  0  0  0  0
   28.9250   11.2340   28.3430 Br  0  0  0  0  0  0  0  0  0  0  0  0
   26.2790   10.7140   29.3770 C   0  0  0  0  0  3  0  0  0  0  0  0
   25.2240    9.9370   29.8120 C   0  0  0  0  0  3  0  0  0  0  0  0
  1  2  1  0  0  0  0
  2  4  1  0  0  0  0
  2  3  2  0  0  0  0
  4  8  1  0  0  0  0
  5  6  1  0  0  0  0
  5  4  2  0  0  0  0
  6  7  1  0  0  0  0
  7 12  1  0  0  0  0
  7  8  1  0  0  0  0
  8 13  1  0  0  0  0
  9  1  1  0  0  0  0
  9  5  1  0  0  0  0
 10  9  2  0  0  0  0
 11  6  1  0  0  0  0
 14 16  1  0  0  0  0
 14 13  1  0  0  0  0
 15 14  2  0  0  0  0
 16 17  1  0  0  0  0
 18 16  1  0  0  0  0
 18 23  1  0  0  0  0
 19 18  2  0  0  0  0
 20 19  1  0  0  0  0
 20 21  2  0  0  0  0
 21 22  1  0  0  0  0
 22 23  2  0  0  0  0
 24 20  1  0  0  0  0
 25 24  1  0  0  0  0
 26 21  1  0  0  0  0
 27 26  1  0  0  0  0
 28  1  1  0  0  0  0
 29 28  2  0  0  0  0
 30 29  1  0  0  0  0
 31 30  2  0  0  0  0
 31 33  1  0  0  0  0
 32 31  1  0  0  0  0
 33 34  2  0  0  0  0
 34 28  1  0  0  0  0
M  END
>  <Pose>
1

>  <Score>
-8.756

$$$$
