MODEL 1
REMARK VINA RESULT:    -9.120      0.000      0.000
REMARK INTER + INTRA:         -13.344
REMARK INTER:                 -12.853
REMARK INTRA:                  -0.491
REMARK UNBOUND:                -0.491
REMARK  7 active torsions:
REMARK  status: ('A' for Active; 'I' for Inactive)
REMARK    1  A    between atoms: C_5  and  N_8 
REMARK    2  A    between atoms: N_15  and  C_16 
REMARK    3  A    between atoms: C_16  and  C_17 
REMARK       I    between atoms: C_17  and  N_19 
REMARK    4  A    between atoms: N_19  and  C_20 
REMARK    5  A    between atoms: C_23  and  C_26 
REMARK    6  A    between atoms: C_26  and  O_28 
REMARK    7  A    between atoms: O_28  and  C_29 
ROOT
ATOM      1  N   UNK d   1      24.155   7.704  30.250  0.00  0.00    -0.241 N 
ATOM      2  C   UNK d   1      23.315   8.043  31.260  0.00  0.00     0.286 A 
ATOM      3  O   UNK d   1      23.397   9.081  31.987  0.00  0.00    -0.265 OA
ATOM      4  C   UNK d   1      22.333   7.076  31.390  0.00  0.00     0.155 A 
ATOM      5  C   UNK d   1      22.598   6.168  30.454  0.00  0.00     0.152 A 
ATOM      6  N   UNK d   1      21.649   5.208  30.561  0.00  0.00    -0.279 N 
ATOM      7  N   UNK d   1      20.837   5.559  31.553  0.00  0.00    -0.239 N 
ATOM      8  N   UNK d   1      21.226   6.701  32.087  0.00  0.00    -0.261 N 
ATOM      9  C   UNK d   1      23.716   6.542  29.747  0.00  0.00     0.286 A 
ATOM     10  O   UNK d   1      24.250   5.926  28.797  0.00  0.00    -0.265 OA
ATOM     11  H   UNK d   1      21.580   4.357  29.966  0.00  0.00     0.189 HD
ATOM     12  H   UNK d   1      20.016   5.008  31.860  0.00  0.00     0.208 HD
ENDROOT
BRANCH   8  13
ATOM     13  C   UNK d   1      20.639   7.453  33.189  0.00  0.00     0.254 C 
BRANCH  13  14
ATOM     14  C   UNK d   1      20.246   8.824  32.695  0.00  0.00     0.242 C 
ATOM     15  O   UNK d   1      19.221   8.799  31.969  0.00  0.00    -0.271 OA
ATOM     16  N   UNK d   1      21.001   9.937  33.058  0.00  0.00    -0.326 N 
ATOM     17  H   UNK d   1      21.842   9.738  33.688  0.00  0.00     0.169 HD
BRANCH  16  18
ATOM     18  C   UNK d   1      20.776  11.286  32.686  0.00  0.00     0.034 A 
ATOM     19  C   UNK d   1      19.778  12.089  33.185  0.00  0.00     0.030 A 
ATOM     20  C   UNK d   1      19.620  13.417  32.764  0.00  0.00     0.020 A 
ATOM     21  C   UNK d   1      20.460  13.977  31.832  0.00  0.00     0.039 A 
ATOM     22  C   UNK d   1      21.461  13.183  31.327  0.00  0.00     0.020 A 
ATOM     23  C   UNK d   1      21.615  11.875  31.743  0.00  0.00     0.030 A 
BRANCH  21  24
ATOM     24  C   UNK d   1      20.258  15.363  31.424  0.00  0.00     0.293 C 
ATOM     25  O   UNK d   1      19.099  15.842  31.510  0.00  0.00    -0.259 OA
BRANCH  24  26
ATOM     26  O   UNK d   1      21.245  16.182  30.952  0.00  0.00    -0.318 OA
BRANCH  26  27
ATOM     27  C   UNK d   1      21.958  17.131  31.692  0.00  0.00     0.174 C 
ATOM     28  C   UNK d   1      22.672  16.364  32.813  0.00  0.00     0.034 C 
ENDBRANCH  26  27
ENDBRANCH  24  26
ENDBRANCH  21  24
ENDBRANCH  16  18
ENDBRANCH  13  14
ENDBRANCH   8  13
BRANCH   1  29
ATOM     29  C   UNK d   1      25.277   8.491  29.858  0.00  0.00     0.046 A 
ATOM     30  C   UNK d   1      25.185   9.874  29.883  0.00  0.00     0.031 A 
ATOM     31  C   UNK d   1      26.235  10.656  29.516  0.00  0.00     0.021 A 
ATOM     32  C   UNK d   1      27.434  10.114  29.103  0.00  0.00     0.011 A 
ATOM     33 Br   UNK d   1      28.927  11.170  28.582  0.00  0.00    -0.051 Br
ATOM     34  C   UNK d   1      27.513   8.739  29.084  0.00  0.00     0.021 A 
ATOM     35  C   UNK d   1      26.465   7.939  29.450  0.00  0.00     0.031 A 
ENDBRANCH   1  29
TORSDOF 7
ENDMDL
