MODEL 1
REMARK VINA RESULT:    -9.333      0.000      0.000
REMARK INTER + INTRA:         -10.905
REMARK INTER:                 -10.970
REMARK INTRA:                   0.064
REMARK UNBOUND:                 0.064
REMARK  3 active torsions:
REMARK  status: ('A' for Active; 'I' for Inactive)
REMARK    1  A    between atoms: C_5  and  N_8 
REMARK    2  A    between atoms: N_15  and  C_16 
REMARK    3  A    between atoms: C_19  and  N_22 
ROOT
ATOM      1  N   UNK d   1      21.852   8.750  31.905  0.00  0.00    -0.241 N 
ATOM      2  C   UNK d   1      21.921  10.079  31.674  0.00  0.00     0.286 A 
ATOM      3  O   UNK d   1      22.727  10.692  30.903  0.00  0.00    -0.265 OA
ATOM      4  C   UNK d   1      20.964  10.756  32.408  0.00  0.00     0.160 A 
ATOM      5  C   UNK d   1      20.315   9.808  33.088  0.00  0.00     0.152 A 
ATOM      6  N   UNK d   1      19.376  10.468  33.808  0.00  0.00    -0.278 N 
ATOM      7  N   UNK d   1      19.480  11.761  33.551  0.00  0.00    -0.234 N 
ATOM      8  N   UNK d   1      20.458  11.970  32.685  0.00  0.00    -0.234 N 
ATOM      9  C   UNK d   1      20.853   8.575  32.786  0.00  0.00     0.286 A 
ATOM     10  O   UNK d   1      20.510   7.450  33.226  0.00  0.00    -0.265 OA
ATOM     11  H   UNK d   1      18.690  10.002  34.457  0.00  0.00     0.189 HD
ATOM     12  H   UNK d   1      18.897  12.542  33.950  0.00  0.00     0.209 HD
ENDROOT
BRANCH   8  13
ATOM     13  C   UNK d   1      20.881  13.233  32.157  0.00  0.00     0.058 A 
ATOM     14  C   UNK d   1      22.220  13.555  32.067  0.00  0.00     0.034 A 
ATOM     15  C   UNK d   1      22.661  14.770  31.559  0.00  0.00     0.038 A 
ATOM     16  C   UNK d   1      21.749  15.708  31.123  0.00  0.00     0.103 A 
ATOM     17  C   UNK d   1      20.410  15.389  31.212  0.00  0.00     0.038 A 
ATOM     18  C   UNK d   1      19.974  14.175  31.719  0.00  0.00     0.034 A 
BRANCH  16  19
ATOM     19  N   UNK d   1      22.170  16.963  30.598  0.00  0.00    -0.116 N 
ATOM     20  O   UNK d   1      22.569  17.092  29.425  0.00  0.00    -0.532 OA
ATOM     21  O   UNK d   1      22.139  18.062  31.397  0.00  0.00    -0.532 OA
ENDBRANCH  16  19
ENDBRANCH   8  13
BRANCH   1  22
ATOM     22  C   UNK d   1      22.691   7.747  31.315  0.00  0.00     0.046 A 
ATOM     23  C   UNK d   1      22.185   6.589  30.764  0.00  0.00     0.031 A 
ATOM     24  C   UNK d   1      23.026   5.634  30.199  0.00  0.00     0.021 A 
ATOM     25  C   UNK d   1      24.393   5.817  30.172  0.00  0.00     0.011 A 
ATOM     26 Br   UNK d   1      25.566   4.516  29.400  0.00  0.00    -0.051 Br
ATOM     27  C   UNK d   1      24.902   6.975  30.722  0.00  0.00     0.021 A 
ATOM     28  C   UNK d   1      24.060   7.917  31.281  0.00  0.00     0.031 A 
ENDBRANCH   1  22
TORSDOF 3
ENDMDL
