MODEL 1
REMARK VINA RESULT:    -7.704      0.000      0.000
REMARK INTER + INTRA:          -9.022
REMARK INTER:                  -8.604
REMARK INTRA:                  -0.417
REMARK UNBOUND:                -0.417
REMARK  2 active torsions:
REMARK  status: ('A' for Active; 'I' for Inactive)
REMARK    1  A    between atoms: C_5  and  N_8 
REMARK    2  A    between atoms: C_12  and  C_20 
ROOT
ATOM      1  N   UNK d   1      22.927  11.798  31.479  0.00  0.00    -0.252 N 
ATOM      2  C   UNK d   1      24.052  10.973  31.739  0.00  0.00     0.239 C 
ATOM      3  O   UNK d   1      25.243  11.357  31.651  0.00  0.00    -0.272 OA
ATOM      4  C   UNK d   1      23.581   9.616  32.125  0.00  0.00     0.138 C 
ATOM      5  C   UNK d   1      23.530   8.681  30.956  0.00  0.00     0.142 C 
ATOM      6  O   UNK d   1      22.448   7.856  31.335  0.00  0.00    -0.360 OA
ATOM      7  C   UNK d   1      21.471   8.881  31.411  0.00  0.00     0.160 C 
ATOM      8  C   UNK d   1      22.090   9.792  32.415  0.00  0.00     0.128 C 
ATOM      9  C   UNK d   1      21.778  11.210  32.087  0.00  0.00     0.239 C 
ATOM     10  O   UNK d   1      20.699  11.763  32.314  0.00  0.00    -0.272 OA
ATOM     11  C   UNK d   1      21.643   9.480  30.062  0.00  0.00     0.005 C 
ATOM     12  C   UNK d   1      22.948   9.406  29.815  0.00  0.00     0.015 C 
ENDROOT
BRANCH   1  13
ATOM     13  C   UNK d   1      23.012  13.010  30.718  0.00  0.00     0.045 A 
ATOM     14  C   UNK d   1      22.489  14.195  31.187  0.00  0.00     0.031 A 
ATOM     15  C   UNK d   1      22.562  15.366  30.464  0.00  0.00     0.021 A 
ATOM     16  C   UNK d   1      23.178  15.336  29.237  0.00  0.00     0.011 A 
ATOM     17 Br   UNK d   1      23.296  16.928  28.212  0.00  0.00    -0.051 Br
ATOM     18  C   UNK d   1      23.705  14.167  28.748  0.00  0.00     0.021 A 
ATOM     19  C   UNK d   1      23.634  12.978  29.477  0.00  0.00     0.031 A 
ENDBRANCH   1  13
BRANCH   5  20
ATOM     20  C   UNK d   1      24.761   7.926  30.692  0.00  0.00     0.298 C 
ATOM     21  O   UNK d   1      25.043   7.766  29.363  0.00  0.00    -0.356 OA
ATOM     22  C   UNK d   1      24.873   6.446  29.031  0.00  0.00     0.197 C 
ATOM     23  C   UNK d   1      24.457   5.745  30.282  0.00  0.00     0.197 C 
ATOM     24  O   UNK d   1      24.733   6.674  31.279  0.00  0.00    -0.356 OA
ENDBRANCH   5  20
TORSDOF 2
ENDMDL
