MODEL 1
REMARK VINA RESULT:    -7.251      0.000      0.000
REMARK INTER + INTRA:          -8.004
REMARK INTER:                  -7.675
REMARK INTRA:                  -0.329
REMARK UNBOUND:                -0.329
REMARK  1 active torsions:
REMARK  status: ('A' for Active; 'I' for Inactive)
REMARK    1  A    between atoms: C_5  and  N_8 
ROOT
ATOM      1  N   UNK d   1      25.888   9.131  29.602  0.00  0.00    -0.231 N 
ATOM      2  C   UNK d   1      26.774  10.265  29.575  0.00  0.00     0.357 A 
ATOM      3  O   UNK d   1      26.414  11.348  30.116  0.00  0.00    -0.244 OA
ATOM      4  N   UNK d   1      28.018  10.095  28.934  0.00  0.00    -0.169 NA
ATOM      5  C   UNK d   1      28.400   9.017  28.386  0.00  0.00     0.202 A 
ATOM      6  C   UNK d   1      27.628   7.752  28.315  0.00  0.00     0.140 A 
ATOM      7  C   UNK d   1      27.526   7.349  26.884  0.00  0.00     0.269 C 
ATOM      8  N   UNK d   1      27.403   5.963  26.610  0.00  0.00    -0.043 N 
ATOM      9  C   UNK d   1      27.144   5.135  27.721  0.00  0.00     0.140 A 
ATOM     10  C   UNK d   1      27.664   5.455  28.981  0.00  0.00    -0.021 A 
ATOM     11  C   UNK d   1      27.402   4.640  30.046  0.00  0.00     0.016 A 
ATOM     12  C   UNK d   1      26.641   3.496  29.963  0.00  0.00    -0.061 A 
ATOM     13  C   UNK d   1      26.130   3.186  28.720  0.00  0.00     0.009 A 
ATOM     14  C   UNK d   1      26.379   3.994  27.618  0.00  0.00     0.038 A 
ATOM     15  C   UNK d   1      26.376   2.638  31.141  0.00  0.00     0.048 C 
ATOM     16  C   UNK d   1      28.478   6.697  29.027  0.00  0.00     0.070 C 
ATOM     17  C   UNK d   1      28.544   5.443  25.838  0.00  0.00     0.276 C 
ATOM     18  C   UNK d   1      26.321   7.923  28.985  0.00  0.00     0.251 A 
ATOM     19  O   UNK d   1      25.489   6.959  29.042  0.00  0.00    -0.271 OA
ATOM     20  O   UNK d   1      29.674   8.986  27.779  0.00  0.00    -0.173 OA
ATOM     21  H   UNK d   1      26.576   5.841  25.952  0.00  0.00     0.286 HD
ENDROOT
BRANCH   1  22
ATOM     22  C   UNK d   1      24.619   9.225  30.231  0.00  0.00     0.047 A 
ATOM     23  C   UNK d   1      24.567   9.098  31.601  0.00  0.00     0.031 A 
ATOM     24  C   UNK d   1      23.368   9.175  32.300  0.00  0.00     0.021 A 
ATOM     25  C   UNK d   1      22.202   9.383  31.614  0.00  0.00     0.011 A 
ATOM     26 Br   UNK d   1      20.562   9.487  32.581  0.00  0.00    -0.051 Br
ATOM     27  C   UNK d   1      22.226   9.514  30.234  0.00  0.00     0.021 A 
ATOM     28  C   UNK d   1      23.434   9.434  29.561  0.00  0.00     0.031 A 
ENDBRANCH   1  22
TORSDOF 1
ENDMDL
