/Users/jonathanwahrer/Desktop/Msc/3_Semester/Drug_Design_Praktikum/waehrer_HTS_screening/HTS_experiment/out/docking_results/vina_output/3elj/0429_docked.pdbqt
 OpenBabel03192217383D

 36 39  0  0  0  0  0  0  0  0999 V2000
   21.4710   10.7410   31.9890 N   0  0  0  0  0  0  0  0  0  0  0  0
   20.5770   10.3070   33.0150 C   0  0  0  0  0  0  0  0  0  0  0  0
   20.6750    9.1010   33.4070 O   0  0  0  0  0  0  0  0  0  0  0  0
   19.6290   11.2140   33.5510 N   0  0  0  0  0  0  0  0  0  0  0  0
   19.5010   12.5680   33.1280 C   0  0  0  0  0  0  0  0  0  0  0  0
   18.6470   13.3530   33.6250 O   0  0  0  0  0  0  0  0  0  0  0  0
   20.4080   13.0490   32.0710 C   0  0  0  0  0  0  0  0  0  0  0  0
   20.3380   14.2970   31.6330 C   0  0  0  0  0  3  0  0  0  0  0  0
   21.3720   12.0920   31.5400 C   0  0  0  0  0  0  0  0  0  0  0  0
   22.1670   12.4570   30.6360 O   0  0  0  0  0  0  0  0  0  0  0  0
   18.9940   10.8560   34.3010 H   0  0  0  0  0  0  0  0  0  0  0  0
   21.2260   14.7320   30.6130 N   0  0  0  0  0  0  0  0  0  0  0  0
   21.4760   14.0030   29.8910 H   0  0  0  0  0  0  0  0  0  0  0  0
   21.7660   16.0030   30.5100 N   0  0  0  0  0  0  0  0  0  0  0  0
   21.6990   16.5890   31.3920 H   0  0  0  0  0  0  0  0  0  0  0  0
   22.3720   16.5310   29.3360 C   0  0  0  0  0  0  0  0  0  0  0  0
   23.3320   15.9280   28.6270 N   0  0  0  0  0  0  0  0  0  0  0  0
   23.6700   16.7010   27.5820 C   0  0  0  0  0  0  0  0  0  0  0  0
   23.9810   14.6330   28.8610 C   0  0  0  0  0  1  0  0  0  0  0  0
   22.8830   17.8430   27.6430 C   0  0  0  0  0  0  0  0  0  0  0  0
   24.5600   16.6160   26.5450 C   0  0  0  0  0  0  0  0  0  0  0  0
   22.1170   17.6870   28.7210 N   0  0  0  0  0  0  0  0  0  0  0  0
   22.9870   18.8210   26.7260 N   0  0  0  0  0  0  0  0  0  0  0  0
   23.8700   18.6870   25.7370 C   0  0  0  0  0  0  0  0  0  0  0  0
   22.1400   19.9710   26.8550 C   0  0  0  0  0  1  0  0  0  0  0  0
   23.9990   19.5870   24.8510 O   0  0  0  0  0  0  0  0  0  0  0  0
   24.6720   17.5950   25.6170 N   0  0  0  0  0  0  0  0  0  0  0  0
   25.6100   17.4960   24.5280 C   0  0  0  0  0  1  0  0  0  0  0  0
   25.2960   15.6130   26.4400 O   0  0  0  0  0  0  0  0  0  0  0  0
   22.4050    9.8440   31.4590 C   0  0  0  0  0  0  0  0  0  0  0  0
   22.1020    9.1280   30.3180 C   0  0  0  0  0  3  0  0  0  0  0  0
   22.9930    8.2330   29.7580 C   0  0  0  0  0  3  0  0  0  0  0  0
   24.2340    8.0260   30.3360 C   0  0  0  0  0  0  0  0  0  0  0  0
   25.4770    6.7880   29.5700 Br  0  0  0  0  0  0  0  0  0  0  0  0
   24.5150    8.7510   31.4730 C   0  0  0  0  0  3  0  0  0  0  0  0
   23.6370    9.6500   32.0460 C   0  0  0  0  0  3  0  0  0  0  0  0
  1  2  1  0  0  0  0
  2  3  2  0  0  0  0
  2  4  1  0  0  0  0
  4 11  1  0  0  0  0
  5  4  1  0  0  0  0
  5  6  2  0  0  0  0
  7  5  1  0  0  0  0
  8  7  2  0  0  0  0
  9  1  1  0  0  0  0
  9  7  1  0  0  0  0
 10  9  2  0  0  0  0
 12  8  1  0  0  0  0
 13 12  1  0  0  0  0
 14 12  1  0  0  0  0
 14 15  1  0  0  0  0
 16 14  1  0  0  0  0
 17 19  1  0  0  0  0
 17 16  1  0  0  0  0
 18 20  2  0  0  0  0
 18 17  1  0  0  0  0
 20 22  1  0  0  0  0
 21 18  1  0  0  0  0
 22 16  2  0  0  0  0
 23 25  1  0  0  0  0
 23 20  1  0  0  0  0
 24 23  1  0  0  0  0
 26 24  2  0  0  0  0
 27 24  1  0  0  0  0
 27 21  1  0  0  0  0
 28 27  1  0  0  0  0
 29 21  2  0  0  0  0
 30  1  1  0  0  0  0
 30 36  1  0  0  0  0
 31 30  2  0  0  0  0
 32 31  1  0  0  0  0
 32 33  2  0  0  0  0
 33 35  1  0  0  0  0
 34 33  1  0  0  0  0
 35 36  2  0  0  0  0
M  END
>  <Pose>
1

>  <Score>
-10.163

$$$$
