/Users/jonathanwahrer/Desktop/Msc/3_Semester/Drug_Design_Praktikum/waehrer_HTS_screening/HTS_experiment/out/docking_results/vina_output/3elj/0436_docked.pdbqt
 OpenBabel03192217383D

 29 32  0  0  0  0  0  0  0  0999 V2000
   22.9710    9.4560   31.6500 N   0  0  0  0  0  0  0  0  0  0  0  0
   23.4610   10.8160   31.7510 C   0  0  0  0  0  2  0  0  0  0  0  0
   24.8470   10.9880   31.1750 C   0  0  0  0  0  2  0  0  0  0  0  0
   24.8680   10.2360   29.8350 C   0  0  0  0  0  2  0  0  0  0  0  0
   24.8150    8.8420   30.1910 N   0  0  0  0  0  0  0  0  0  0  0  0
   23.8550    8.4880   31.0990 C   0  0  0  0  0  0  0  0  0  0  0  0
   23.9450    7.1660   31.3170 N   0  0  0  0  0  0  0  0  0  0  0  0
   24.9600    6.7130   30.5390 C   0  0  0  0  0  0  0  0  0  0  0  0
   25.5140    7.7640   29.8250 C   0  0  0  0  0  0  0  0  0  0  0  0
   26.5700    7.5490   28.9600 C   0  0  0  0  0  0  0  0  0  0  0  0
   27.0510    8.5430   28.3200 O   0  0  0  0  0  0  0  0  0  0  0  0
   27.0590    6.3050   28.8140 N   0  0  0  0  0  0  0  0  0  0  0  0
   26.5030    5.3040   29.5190 C   0  0  0  0  0  0  0  0  0  0  0  0
   26.9920    4.1550   29.3510 O   0  0  0  0  0  0  0  0  0  0  0  0
   25.4850    5.4880   30.3590 N   0  0  0  0  0  0  0  0  0  0  0  0
   24.9070    4.3810   31.1070 C   0  0  0  0  0  1  0  0  0  0  0  0
   21.6620    9.1600   32.0940 C   0  0  0  0  0  0  0  0  0  0  0  0
   21.0470    7.9400   31.9220 C   0  0  0  0  0  3  0  0  0  0  0  0
   19.7500    7.7430   32.3990 C   0  0  0  0  0  3  0  0  0  0  0  0
   19.0650    8.7510   33.0440 C   0  0  0  0  0  0  0  0  0  0  0  0
   17.3120    8.5170   33.7000 Br  0  0  0  0  0  0  0  0  0  0  0  0
   19.6760    9.9760   33.2190 C   0  0  0  0  0  3  0  0  0  0  0  0
   20.9480   10.1410   32.7420 C   0  0  0  0  0  3  0  0  0  0  0  0
   28.1680    6.0680   27.9060 C   0  0  0  0  0  2  0  0  0  0  0  0
   27.6300    5.9820   26.5080 C   0  0  0  0  0  0  0  0  0  0  0  0
   27.0730    4.9360   26.1040 O   0  0  0  0  0  0  0  0  0  0  0  0
   27.7350    7.0700   25.6110 N   0  0  0  0  0  0  0  0  0  0  0  0
   26.9870    7.3060   24.9200 H   0  0  0  0  0  0  0  0  0  0  0  0
   28.5800    7.6930   25.6050 H   0  0  0  0  0  0  0  0  0  0  0  0
  1  2  1  0  0  0  0
  1 17  1  0  0  0  0
  3  2  1  0  0  0  0
  4  5  1  0  0  0  0
  4  3  1  0  0  0  0
  5  6  1  0  0  0  0
  6  7  2  0  0  0  0
  6  1  1  0  0  0  0
  8  7  1  0  0  0  0
  9  5  1  0  0  0  0
  9  8  2  0  0  0  0
 10  9  1  0  0  0  0
 11 10  2  0  0  0  0
 12 10  1  0  0  0  0
 12 13  1  0  0  0  0
 13 15  1  0  0  0  0
 14 13  2  0  0  0  0
 15  8  1  0  0  0  0
 15 16  1  0  0  0  0
 17 23  1  0  0  0  0
 18 17  2  0  0  0  0
 18 19  1  0  0  0  0
 19 20  2  0  0  0  0
 20 22  1  0  0  0  0
 20 21  1  0  0  0  0
 23 22  2  0  0  0  0
 24 12  1  0  0  0  0
 25 24  1  0  0  0  0
 26 25  2  0  0  0  0
 27 25  1  0  0  0  0
 28 27  1  0  0  0  0
 29 27  1  0  0  0  0
M  END
>  <Pose>
1

>  <Score>
-8.257

$$$$
