/Users/jonathanwahrer/Desktop/Msc/3_Semester/Drug_Design_Praktikum/waehrer_HTS_screening/HTS_experiment/out/docking_results/vina_output/3elj/0439_docked.pdbqt
 OpenBabel03192217383D

 28 32  0  0  1  0  0  0  0  0999 V2000
   22.4610    5.5500   31.7320 N   0  0  0  0  0  0  0  0  0  0  0  0
   21.2010    5.3340   32.0960 N   0  0  0  0  0  0  0  0  0  0  0  0
   20.5100    6.4890   32.1070 C   0  0  0  0  0  0  0  0  0  0  0  0
   19.2290    6.6350   32.4220 C   0  0  0  0  0  1  0  0  0  0  0  0
   21.3570    7.5110   31.7310 C   0  0  0  0  0  0  0  0  0  0  0  0
   22.5700    6.8760   31.5060 C   0  0  0  0  0  0  0  0  0  0  0  0
   23.6110    7.4700   31.1440 O   0  0  0  0  0  0  0  0  0  0  0  0
   20.8060    4.4040   32.3390 H   0  0  0  0  0  0  0  0  0  0  0  0
   21.0890    8.8140   31.6090 C   0  0  0  0  0  2  0  0  0  0  0  0
   21.9570    9.7360   32.2570 N   0  0  0  0  0  0  0  0  0  0  0  0
   22.1170    9.6190   33.2680 H   0  0  0  0  0  0  0  0  0  0  0  0
   22.6040   10.8040   31.5510 C   0  0  1  0  0  0  0  0  0  0  0  0
   21.9540   12.1150   31.8570 C   0  0  0  0  0  2  0  0  0  0  0  0
   22.6980   13.1810   31.2010 N   0  0  1  0  0  0  0  0  0  0  0  0
   24.0600   13.1550   31.7200 C   0  0  0  0  0  2  0  0  0  0  0  0
   22.6840   12.9580   29.7770 C   0  0  0  0  0  2  0  0  0  0  0  0
   24.7380   11.9280   31.3790 N   0  0  2  0  0  0  0  0  0  0  0  0
   24.6790   11.7230   29.9350 C   0  0  0  0  0  2  0  0  0  0  0  0
   24.0660   10.8200   32.0060 C   0  0  0  0  0  2  0  0  0  0  0  0
   23.3170   11.7010   29.4520 N   0  0  1  0  0  0  0  0  0  0  0  0
   22.5890   10.6100   30.0520 C   0  0  0  0  0  2  0  0  0  0  0  0
   23.5070    4.5950   31.5990 C   0  0  0  0  0  0  0  0  0  0  0  0
   23.6700    3.6090   32.5500 C   0  0  0  0  0  3  0  0  0  0  0  0
   24.6820    2.6590   32.4510 C   0  0  0  0  0  3  0  0  0  0  0  0
   25.5450    2.6850   31.3970 C   0  0  0  0  0  0  0  0  0  0  0  0
   26.9610    1.3970   31.2110 Br  0  0  0  0  0  0  0  0  0  0  0  0
   25.4060    3.6630   30.4250 C   0  0  0  0  0  3  0  0  0  0  0  0
   24.3970    4.5900   30.5460 C   0  0  0  0  0  3  0  0  0  0  0  0
  1  2  1  0  0  0  0
  2  3  1  0  0  0  0
  2  8  1  0  0  0  0
  3  4  1  0  0  0  0
  5  3  2  0  0  0  0
  6  5  1  0  0  0  0
  6  1  1  0  0  0  0
  7  6  2  0  0  0  0
  9  5  1  0  0  0  0
  9 10  1  0  0  0  0
 10 11  1  0  0  0  0
 12 13  1  0  0  0  0
 12 19  1  0  0  0  0
 12 10  1  1  0  0  0
 14 16  1  6  0  0  0
 14 15  1  0  0  0  0
 14 13  1  0  0  0  0
 17 18  1  6  0  0  0
 17 15  1  0  0  0  0
 17 19  1  0  0  0  0
 20 16  1  1  0  0  0
 20 18  1  0  0  0  0
 20 21  1  0  0  0  0
 21 12  1  0  0  0  0
 22  1  1  0  0  0  0
 22 23  1  0  0  0  0
 24 23  2  0  0  0  0
 25 24  1  0  0  0  0
 26 25  1  0  0  0  0
 27 28  1  0  0  0  0
 27 25  2  0  0  0  0
 28 22  2  0  0  0  0
M  END
>  <Pose>
1

>  <Score>
-7.760

$$$$
