MODEL 1
REMARK VINA RESULT:    -7.760      0.000      0.000
REMARK INTER + INTRA:         -10.379
REMARK INTER:                  -9.575
REMARK INTRA:                  -0.805
REMARK UNBOUND:                -0.805
REMARK  4 active torsions:
REMARK  status: ('A' for Active; 'I' for Inactive)
REMARK    1  A    between atoms: C_5  and  N_8 
REMARK    2  A    between atoms: C_12  and  C_13 
REMARK    3  A    between atoms: C_13  and  N_14 
REMARK    4  A    between atoms: N_14  and  C_15 
ROOT
ATOM      1  N   UNK d   1      22.461   5.550  31.732  0.00  0.00    -0.220 N 
ATOM      2  N   UNK d   1      21.201   5.334  32.096  0.00  0.00    -0.291 N 
ATOM      3  C   UNK d   1      20.510   6.489  32.107  0.00  0.00     0.056 A 
ATOM      4  C   UNK d   1      19.229   6.635  32.422  0.00  0.00     0.045 C 
ATOM      5  C   UNK d   1      21.357   7.511  31.731  0.00  0.00     0.076 A 
ATOM      6  C   UNK d   1      22.570   6.876  31.506  0.00  0.00     0.280 A 
ATOM      7  O   UNK d   1      23.611   7.470  31.144  0.00  0.00    -0.265 OA
ATOM      8  H   UNK d   1      20.806   4.404  32.339  0.00  0.00     0.187 HD
ENDROOT
BRANCH   5   9
ATOM      9  C   UNK d   1      21.089   8.814  31.609  0.00  0.00     0.103 C 
BRANCH   9  10
ATOM     10  N   UNK d   1      21.957   9.736  32.257  0.00  0.00    -0.384 N 
ATOM     11  H   UNK d   1      22.117   9.619  33.268  0.00  0.00     0.159 HD
BRANCH  10  12
ATOM     12  C   UNK d   1      22.604  10.804  31.551  0.00  0.00     0.109 C 
ATOM     13  C   UNK d   1      21.954  12.115  31.857  0.00  0.00     0.311 C 
ATOM     14  N   UNK d   1      22.698  13.181  31.201  0.00  0.00     0.147 N 
ATOM     15  C   UNK d   1      24.060  13.155  31.720  0.00  0.00     0.547 C 
ATOM     16  C   UNK d   1      22.684  12.958  29.777  0.00  0.00     0.547 C 
ATOM     17  N   UNK d   1      24.738  11.928  31.379  0.00  0.00     0.147 N 
ATOM     18  C   UNK d   1      24.679  11.723  29.935  0.00  0.00     0.547 C 
ATOM     19  C   UNK d   1      24.066  10.820  32.006  0.00  0.00     0.311 C 
ATOM     20  N   UNK d   1      23.317  11.701  29.452  0.00  0.00     0.147 N 
ATOM     21  C   UNK d   1      22.589  10.610  30.052  0.00  0.00     0.311 C 
ENDBRANCH  10  12
ENDBRANCH   9  10
ENDBRANCH   5   9
BRANCH   1  22
ATOM     22  C   UNK d   1      23.507   4.595  31.599  0.00  0.00     0.060 A 
ATOM     23  C   UNK d   1      23.670   3.609  32.550  0.00  0.00     0.033 A 
ATOM     24  C   UNK d   1      24.682   2.659  32.451  0.00  0.00     0.021 A 
ATOM     25  C   UNK d   1      25.545   2.685  31.397  0.00  0.00     0.011 A 
ATOM     26 Br   UNK d   1      26.961   1.397  31.211  0.00  0.00    -0.051 Br
ATOM     27  C   UNK d   1      25.406   3.663  30.425  0.00  0.00     0.021 A 
ATOM     28  C   UNK d   1      24.397   4.590  30.546  0.00  0.00     0.033 A 
ENDBRANCH   1  22
TORSDOF 4
ENDMDL
