MODEL 1
REMARK VINA RESULT:    -9.194      0.000      0.000
REMARK INTER + INTRA:         -13.884
REMARK INTER:                 -13.494
REMARK INTRA:                  -0.389
REMARK UNBOUND:                -0.389
REMARK  10 active torsions:
REMARK  status: ('A' for Active; 'I' for Inactive)
REMARK    1  A    between atoms: C_5  and  O_8 
REMARK    2  A    between atoms: O_8  and  C_9 
REMARK    3  A    between atoms: C_9  and  C_10 
REMARK       I    between atoms: C_10  and  N_12 
REMARK    4  A    between atoms: N_12  and  C_13 
REMARK    5  A    between atoms: N_16  and  C_23 
REMARK    6  A    between atoms: C_20  and  O_22 
REMARK    7  A    between atoms: C_25  and  C_30 
REMARK    8  A    between atoms: C_26  and  O_29 
REMARK    9  A    between atoms: C_27  and  O_28 
REMARK   10  A    between atoms: C_30  and  O_31 
ROOT
ATOM      1  C   UNK d   1      22.772  16.941  28.595  0.00  0.00     0.733 A 
ATOM      2  N   UNK d   1      23.663  16.533  27.672  0.00  0.00    -0.042 NA
ATOM      3  C   UNK d   1      23.920  17.301  26.627  0.00  0.00     0.185 A 
ATOM      4  N   UNK d   1      24.751  17.116  25.592  0.00  0.00    -0.293 N 
ATOM      5  C   UNK d   1      24.618  18.216  24.816  0.00  0.00     0.214 A 
ATOM      6  N   UNK d   1      23.731  19.056  25.357  0.00  0.00    -0.235 NA
ATOM      7  C   UNK d   1      23.265  18.531  26.491  0.00  0.00     0.158 A 
ATOM      8  C   UNK d   1      22.349  18.957  27.435  0.00  0.00     0.214 A 
ATOM      9  N   UNK d   1      22.130  18.140  28.469  0.00  0.00    -0.036 NA
ENDROOT
BRANCH   1  10
ATOM     10  N   UNK d   1      22.465  16.139  29.733  0.00  0.00    -0.154 N 
ATOM     11  C   UNK d   1      22.178  16.689  30.998  0.00  0.00     0.260 C 
ATOM     12  O   UNK d   1      22.187  17.922  31.163  0.00  0.00    -0.270 OA
ATOM     13  H   UNK d   1      22.459  15.087  29.593  0.00  0.00     0.187 HD
BRANCH  11  14
ATOM     14  C   UNK d   1      21.868  15.797  32.130  0.00  0.00     0.279 C 
BRANCH  14  15
ATOM     15  O   UNK d   1      20.738  15.003  31.913  0.00  0.00    -0.342 OA
BRANCH  15  16
ATOM     16  C   UNK d   1      20.807  13.645  32.132  0.00  0.00     0.069 A 
ATOM     17  C   UNK d   1      19.958  13.037  33.026  0.00  0.00     0.038 A 
ATOM     18  C   UNK d   1      20.021  11.660  33.256  0.00  0.00     0.022 A 
ATOM     19  C   UNK d   1      20.945  10.897  32.578  0.00  0.00     0.011 A 
ATOM     20 Br   UNK d   1      21.032   9.005  32.892  0.00  0.00    -0.051 Br
ATOM     21  C   UNK d   1      21.796  11.511  31.681  0.00  0.00     0.022 A 
ATOM     22  C   UNK d   1      21.722  12.867  31.467  0.00  0.00     0.038 A 
ENDBRANCH  15  16
ENDBRANCH  14  15
ENDBRANCH  11  14
ENDBRANCH   1  10
BRANCH   8  23
ATOM     23  O   UNK d   1      21.728  20.184  27.251  0.00  0.00    -0.343 OA
ATOM     24  H   UNK d   1      21.593  20.745  28.099  0.00  0.00     0.219 HD
ENDBRANCH   8  23
BRANCH   4  25
ATOM     25  C   UNK d   1      25.622  16.051  25.275  0.00  0.00     0.262 C 
ATOM     26  O   UNK d   1      26.457  15.720  26.351  0.00  0.00    -0.353 OA
ATOM     27  C   UNK d   1      27.639  16.384  26.036  0.00  0.00     0.179 C 
ATOM     28  C   UNK d   1      27.846  15.906  24.606  0.00  0.00     0.182 C 
ATOM     29  C   UNK d   1      26.445  16.175  24.063  0.00  0.00     0.198 C 
BRANCH  27  30
ATOM     30  C   UNK d   1      28.776  15.993  26.934  0.00  0.00     0.198 C 
BRANCH  30  31
ATOM     31  O   UNK d   1      28.435  15.908  28.257  0.00  0.00    -0.398 OA
ATOM     32  H   UNK d   1      29.265  15.946  28.799  0.00  0.00     0.209 HD
ENDBRANCH  30  31
ENDBRANCH  27  30
BRANCH  28  33
ATOM     33  O   UNK d   1      28.828  16.581  23.938  0.00  0.00    -0.390 OA
ATOM     34  H   UNK d   1      28.669  16.634  22.942  0.00  0.00     0.210 HD
ENDBRANCH  28  33
BRANCH  29  35
ATOM     35  O   UNK d   1      26.112  15.204  23.092  0.00  0.00    -0.388 OA
ATOM     36  H   UNK d   1      25.181  15.410  22.823  0.00  0.00     0.210 HD
ENDBRANCH  29  35
ENDBRANCH   4  25
TORSDOF 10
ENDMDL
