/Users/jonathanwahrer/Desktop/Msc/3_Semester/Drug_Design_Praktikum/waehrer_HTS_screening/HTS_experiment/out/docking_results/vina_output/3elj/0441_docked.pdbqt
 OpenBabel03192217383D

 36 39  0  0  1  0  0  0  0  0999 V2000
   22.7720   16.9410   28.5950 C   0  0  0  0  0  0  0  0  0  0  0  0
   23.6630   16.5330   27.6720 N   0  0  0  0  0  0  0  0  0  0  0  0
   23.9200   17.3010   26.6270 C   0  0  0  0  0  0  0  0  0  0  0  0
   24.7510   17.1160   25.5920 N   0  0  0  0  0  0  0  0  0  0  0  0
   24.6180   18.2160   24.8160 C   0  0  0  0  0  3  0  0  0  0  0  0
   23.7310   19.0560   25.3570 N   0  0  0  0  0  0  0  0  0  0  0  0
   23.2650   18.5310   26.4910 C   0  0  0  0  0  0  0  0  0  0  0  0
   22.3490   18.9570   27.4350 C   0  0  0  0  0  0  0  0  0  0  0  0
   22.1300   18.1400   28.4690 N   0  0  0  0  0  0  0  0  0  0  0  0
   22.4650   16.1390   29.7330 N   0  0  0  0  0  0  0  0  0  0  0  0
   22.1780   16.6890   30.9980 C   0  0  0  0  0  0  0  0  0  0  0  0
   22.1870   17.9220   31.1630 O   0  0  0  0  0  0  0  0  0  0  0  0
   22.4590   15.0870   29.5930 H   0  0  0  0  0  0  0  0  0  0  0  0
   21.8680   15.7970   32.1300 C   0  0  0  0  0  2  0  0  0  0  0  0
   20.7380   15.0030   31.9130 O   0  0  0  0  0  0  0  0  0  0  0  0
   20.8070   13.6450   32.1320 C   0  0  0  0  0  0  0  0  0  0  0  0
   19.9580   13.0370   33.0260 C   0  0  0  0  0  3  0  0  0  0  0  0
   20.0210   11.6600   33.2560 C   0  0  0  0  0  3  0  0  0  0  0  0
   20.9450   10.8970   32.5780 C   0  0  0  0  0  0  0  0  0  0  0  0
   21.0320    9.0050   32.8920 Br  0  0  0  0  0  0  0  0  0  0  0  0
   21.7960   11.5110   31.6810 C   0  0  0  0  0  3  0  0  0  0  0  0
   21.7220   12.8670   31.4670 C   0  0  0  0  0  3  0  0  0  0  0  0
   21.7280   20.1840   27.2510 O   0  0  0  0  0  0  0  0  0  0  0  0
   21.5930   20.7450   28.0990 H   0  0  0  0  0  0  0  0  0  0  0  0
   25.6220   16.0510   25.2750 C   0  0  2  0  0  3  0  0  0  0  0  0
   26.4570   15.7200   26.3510 O   0  0  0  0  0  0  0  0  0  0  0  0
   27.6390   16.3840   26.0360 C   0  0  2  0  0  3  0  0  0  0  0  0
   27.8460   15.9060   24.6060 C   0  0  1  0  0  3  0  0  0  0  0  0
   26.4450   16.1750   24.0630 C   0  0  1  0  0  3  0  0  0  0  0  0
   28.7760   15.9930   26.9340 C   0  0  0  0  0  2  0  0  0  0  0  0
   28.4350   15.9080   28.2570 O   0  0  0  0  0  0  0  0  0  0  0  0
   29.2650   15.9460   28.7990 H   0  0  0  0  0  0  0  0  0  0  0  0
   28.8280   16.5810   23.9380 O   0  0  0  0  0  0  0  0  0  0  0  0
   28.6690   16.6340   22.9420 H   0  0  0  0  0  0  0  0  0  0  0  0
   26.1120   15.2040   23.0920 O   0  0  0  0  0  0  0  0  0  0  0  0
   25.1810   15.4100   22.8230 H   0  0  0  0  0  0  0  0  0  0  0  0
  1 10  1  0  0  0  0
  2  1  2  0  0  0  0
  3  2  1  0  0  0  0
  4  3  1  0  0  0  0
  5  6  2  0  0  0  0
  5  4  1  0  0  0  0
  6  7  1  0  0  0  0
  7  3  2  0  0  0  0
  7  8  1  0  0  0  0
  8  9  2  0  0  0  0
  9  1  1  0  0  0  0
 10 11  1  0  0  0  0
 11 12  2  0  0  0  0
 11 14  1  0  0  0  0
 13 10  1  0  0  0  0
 15 14  1  0  0  0  0
 15 16  1  0  0  0  0
 16 17  1  0  0  0  0
 17 18  2  0  0  0  0
 19 20  1  0  0  0  0
 19 18  1  0  0  0  0
 21 19  2  0  0  0  0
 22 21  1  0  0  0  0
 22 16  2  0  0  0  0
 23  8  1  0  0  0  0
 23 24  1  0  0  0  0
 25  4  1  1  0  0  0
 25 26  1  0  0  0  0
 27 26  1  0  0  0  0
 27 30  1  1  0  0  0
 28 33  1  6  0  0  0
 28 27  1  0  0  0  0
 29 35  1  6  0  0  0
 29 28  1  0  0  0  0
 29 25  1  0  0  0  0
 30 31  1  0  0  0  0
 31 32  1  0  0  0  0
 34 33  1  0  0  0  0
 36 35  1  0  0  0  0
M  END
>  <Pose>
1

>  <Score>
-9.194

$$$$
