/Users/jonathanwahrer/Desktop/Msc/3_Semester/Drug_Design_Praktikum/waehrer_HTS_screening/HTS_experiment/out/docking_results/vina_output/3elj/0444_docked.pdbqt
 OpenBabel03192217393D

 33 36  0  0  1  0  0  0  0  0999 V2000
   22.6930   14.1880   30.7360 N   0  0  0  0  0  0  0  0  0  0  0  0
   22.6920   15.3780   30.0920 C   0  0  0  0  0  0  0  0  0  0  0  0
   23.4340   15.2480   28.9390 C   0  0  0  0  0  0  0  0  0  0  0  0
   23.8520   13.9990   28.9340 N   0  0  0  0  0  0  0  0  0  0  0  0
   23.4190   13.3040   30.0330 C   0  0  0  0  0  0  0  0  0  0  0  0
   23.6410   16.2600   28.0480 N   0  0  0  0  0  0  0  0  0  0  0  0
   23.0870   17.4420   28.3220 C   0  0  0  0  0  0  0  0  0  0  0  0
   23.2680   18.3880   27.5090 O   0  0  0  0  0  0  0  0  0  0  0  0
   22.3620   17.5990   29.4370 N   0  0  0  0  0  0  0  0  0  0  0  0
   22.1380   16.6150   30.3390 C   0  0  0  0  0  0  0  0  0  0  0  0
   21.4630   16.7900   31.3630 O   0  0  0  0  0  0  0  0  0  0  0  0
   24.4390   16.0200   26.8440 C   0  0  0  0  0  1  0  0  0  0  0  0
   21.9450   18.5360   29.6170 H   0  0  0  0  0  0  0  0  0  0  0  0
   21.9820   13.8830   31.9580 C   0  0  0  0  0  2  0  0  0  0  0  0
   20.5900   13.3490   31.7800 C   0  0  1  0  0  3  0  0  0  0  0  0
   19.8180   13.0490   33.0260 C   0  0  0  0  0  2  0  0  0  0  0  0
   19.6710   11.7730   33.3120 O   0  0  0  0  0  0  0  0  0  0  0  0
   19.7920   10.4800   33.1290 C   0  0  0  0  0  0  0  0  0  0  0  0
   18.7660    9.5650   33.2520 C   0  0  0  0  0  3  0  0  0  0  0  0
   18.9550    8.2150   33.0500 C   0  0  0  0  0  3  0  0  0  0  0  0
   20.2020    7.7600   32.7140 C   0  0  0  0  0  0  0  0  0  0  0  0
   20.4560    5.8970   32.4360 Br  0  0  0  0  0  0  0  0  0  0  0  0
   21.2470    8.6510   32.5820 C   0  0  0  0  0  3  0  0  0  0  0  0
   21.0660    9.9790   32.7800 C   0  0  0  0  0  3  0  0  0  0  0  0
   19.7990   14.1900   30.9860 O   0  0  0  0  0  0  0  0  0  0  0  0
   19.3270   14.8530   31.5860 H   0  0  0  0  0  0  0  0  0  0  0  0
   23.7890   11.9410   30.3120 N   0  0  0  0  0  0  0  0  0  0  0  0
   24.5650   11.7860   31.5620 C   0  0  0  0  0  2  0  0  0  0  0  0
   24.6990   10.3950   32.0350 C   0  0  0  0  0  2  0  0  0  0  0  0
   24.8010    9.4320   30.9670 N   0  0  0  0  0  0  0  0  0  0  0  0
   23.5640    9.4980   30.2560 C   0  0  0  0  0  2  0  0  0  0  0  0
   25.9740    9.6070   30.1770 C   0  0  0  0  0  1  0  0  0  0  0  0
   23.4110   10.8270   29.5170 C   0  0  0  0  0  2  0  0  0  0  0  0
  1 14  1  0  0  0  0
  2 10  1  0  0  0  0
  2  1  1  0  0  0  0
  3  2  2  0  0  0  0
  4  3  1  0  0  0  0
  4  5  2  0  0  0  0
  5 27  1  0  0  0  0
  5  1  1  0  0  0  0
  6  7  1  0  0  0  0
  6  3  1  0  0  0  0
  7  9  1  0  0  0  0
  8  7  2  0  0  0  0
  9 13  1  0  0  0  0
  9 10  1  0  0  0  0
 10 11  2  0  0  0  0
 12  6  1  0  0  0  0
 15 14  1  1  0  0  0
 15 16  1  0  0  0  0
 16 17  1  0  0  0  0
 18 19  1  0  0  0  0
 18 17  1  0  0  0  0
 20 19  2  0  0  0  0
 21 20  1  0  0  0  0
 22 21  1  0  0  0  0
 23 21  2  0  0  0  0
 23 24  1  0  0  0  0
 24 18  2  0  0  0  0
 25 26  1  0  0  0  0
 25 15  1  0  0  0  0
 27 28  1  0  0  0  0
 28 29  1  0  0  0  0
 30 29  1  0  0  0  0
 31 30  1  0  0  0  0
 32 30  1  0  0  0  0
 33 31  1  0  0  0  0
 33 27  1  0  0  0  0
M  END
>  <Pose>
1

>  <Score>
-8.784

$$$$
