MODEL 1
REMARK VINA RESULT:    -8.784      0.000      0.000
REMARK INTER + INTRA:         -13.174
REMARK INTER:                 -12.121
REMARK INTRA:                  -1.053
REMARK UNBOUND:                -1.053
REMARK  7 active torsions:
REMARK  status: ('A' for Active; 'I' for Inactive)
REMARK    1  A    between atoms: C_5  and  O_8 
REMARK    2  A    between atoms: O_8  and  C_9 
REMARK    3  A    between atoms: C_9  and  C_10 
REMARK    4  A    between atoms: C_10  and  O_11 
REMARK    5  A    between atoms: C_10  and  C_12 
REMARK    6  A    between atoms: C_12  and  N_13 
REMARK    7  A    between atoms: C_17  and  N_18 
ROOT
ATOM      1  N   UNK d   1      22.693  14.188  30.736  0.00  0.00    -0.170 N 
ATOM      2  C   UNK d   1      22.692  15.378  30.092  0.00  0.00     0.166 A 
ATOM      3  C   UNK d   1      23.434  15.248  28.939  0.00  0.00     0.185 A 
ATOM      4  N   UNK d   1      23.852  13.999  28.934  0.00  0.00    -0.044 NA
ATOM      5  C   UNK d   1      23.419  13.304  30.033  0.00  0.00     0.707 A 
ATOM      6  N   UNK d   1      23.641  16.260  28.048  0.00  0.00    -0.286 N 
ATOM      7  C   UNK d   1      23.087  17.442  28.322  0.00  0.00     0.330 A 
ATOM      8  O   UNK d   1      23.268  18.388  27.509  0.00  0.00    -0.246 OA
ATOM      9  N   UNK d   1      22.362  17.599  29.437  0.00  0.00    -0.273 N 
ATOM     10  C   UNK d   1      22.138  16.615  30.339  0.00  0.00     0.280 A 
ATOM     11  O   UNK d   1      21.463  16.790  31.363  0.00  0.00    -0.265 OA
ATOM     12  C   UNK d   1      24.439  16.020  26.844  0.00  0.00     0.163 C 
ATOM     13  H   UNK d   1      21.945  18.536  29.617  0.00  0.00     0.173 HD
ENDROOT
BRANCH   1  14
ATOM     14  C   UNK d   1      21.982  13.883  31.958  0.00  0.00     0.182 C 
BRANCH  14  15
ATOM     15  C   UNK d   1      20.590  13.349  31.780  0.00  0.00     0.161 C 
BRANCH  15  16
ATOM     16  C   UNK d   1      19.818  13.049  33.026  0.00  0.00     0.209 C 
BRANCH  16  17
ATOM     17  O   UNK d   1      19.671  11.773  33.312  0.00  0.00    -0.349 OA
BRANCH  17  18
ATOM     18  C   UNK d   1      19.792  10.480  33.129  0.00  0.00     0.069 A 
ATOM     19  C   UNK d   1      18.766   9.565  33.252  0.00  0.00     0.038 A 
ATOM     20  C   UNK d   1      18.955   8.215  33.050  0.00  0.00     0.022 A 
ATOM     21  C   UNK d   1      20.202   7.760  32.714  0.00  0.00     0.011 A 
ATOM     22 Br   UNK d   1      20.456   5.897  32.436  0.00  0.00    -0.051 Br
ATOM     23  C   UNK d   1      21.247   8.651  32.582  0.00  0.00     0.022 A 
ATOM     24  C   UNK d   1      21.066   9.979  32.780  0.00  0.00     0.038 A 
ENDBRANCH  17  18
ENDBRANCH  16  17
ENDBRANCH  15  16
BRANCH  15  25
ATOM     25  O   UNK d   1      19.799  14.190  30.986  0.00  0.00    -0.392 OA
ATOM     26  H   UNK d   1      19.327  14.853  31.586  0.00  0.00     0.210 HD
ENDBRANCH  15  25
ENDBRANCH  14  15
ENDBRANCH   1  14
BRANCH   5  27
ATOM     27  N   UNK d   1      23.789  11.941  30.312  0.00  0.00    -0.212 N 
ATOM     28  C   UNK d   1      24.565  11.786  31.562  0.00  0.00     0.171 C 
ATOM     29  C   UNK d   1      24.699  10.395  32.035  0.00  0.00     0.292 C 
ATOM     30  N   UNK d   1      24.801   9.432  30.967  0.00  0.00     0.087 N 
ATOM     31  C   UNK d   1      23.564   9.498  30.256  0.00  0.00     0.292 C 
ATOM     32  C   UNK d   1      25.974   9.607  30.177  0.00  0.00     0.310 C 
ATOM     33  C   UNK d   1      23.411  10.827  29.517  0.00  0.00     0.171 C 
ENDBRANCH   5  27
TORSDOF 7
ENDMDL
