MODEL 1
REMARK VINA RESULT:    -8.217      0.000      0.000
REMARK INTER + INTRA:          -8.581
REMARK INTER:                  -9.178
REMARK INTRA:                   0.597
REMARK UNBOUND:                 0.597
REMARK  2 active torsions:
REMARK  status: ('A' for Active; 'I' for Inactive)
REMARK    1  A    between atoms: C_7  and  C_8 
REMARK    2  A    between atoms: C_8  and  N_9 
ROOT
ATOM      1  C   UNK d   1      23.162   8.309  30.887  0.00  0.00     0.284 C 
ENDROOT
BRANCH   1   2
ATOM      2  C   UNK d   1      21.975   7.761  31.544  0.00  0.00    -0.012 A 
ATOM      3  C   UNK d   1      21.816   6.364  31.540  0.00  0.00     0.021 A 
ATOM      4 Br   UNK d   1      23.144   5.160  30.872  0.00  0.00    -0.050 Br
ATOM      5  C   UNK d   1      20.622   5.879  32.039  0.00  0.00     0.059 A 
ATOM      6  C   UNK d   1      19.652   6.736  32.518  0.00  0.00     0.106 A 
ATOM      7  C   UNK d   1      19.774   8.105  32.537  0.00  0.00     0.105 A 
ATOM      8  O   UNK d   1      18.371   6.413  33.062  0.00  0.00    -0.323 OA
ATOM      9  C   UNK d   1      20.957   8.579  32.040  0.00  0.00     0.050 A 
ATOM     10  O   UNK d   1      18.585   8.567  33.078  0.00  0.00    -0.323 OA
ATOM     11  C   UNK d   1      17.553   7.587  32.776  0.00  0.00     0.352 C 
ENDBRANCH   1   2
BRANCH   1  12
ATOM     12  N   UNK d   1      23.463   9.675  30.989  0.00  0.00     0.016 N 
ATOM     13  C   UNK d   1      23.290  10.109  29.556  0.00  0.00     0.517 C 
ATOM     14  N   UNK d   1      23.808  11.377  29.261  0.00  0.00     0.171 N 
ATOM     15  C   UNK d   1      25.213  11.368  29.629  0.00  0.00     0.551 C 
ATOM     16  C   UNK d   1      23.016  12.332  30.044  0.00  0.00     0.551 C 
ATOM     17  N   UNK d   1      25.278  11.196  31.060  0.00  0.00     0.171 N 
ATOM     18  C   UNK d   1      24.833   9.897  31.448  0.00  0.00     0.517 C 
ATOM     19  C   UNK d   1      24.502  12.192  31.808  0.00  0.00     0.551 C 
ATOM     20  N   UNK d   1      23.107  12.002  31.446  0.00  0.00     0.171 N 
ATOM     21  C   UNK d   1      22.665  10.616  31.711  0.00  0.00     0.517 C 
ENDBRANCH   1  12
TORSDOF 2
ENDMDL
