/Users/jonathanwahrer/Desktop/Msc/3_Semester/Drug_Design_Praktikum/waehrer_HTS_screening/HTS_experiment/out/docking_results/vina_output/3elj/0454_docked.pdbqt
 OpenBabel03192217393D

 21 25  0  0  1  0  0  0  0  0999 V2000
   23.1620    8.3090   30.8870 C   0  0  0  0  0  2  0  0  0  0  0  0
   21.9750    7.7610   31.5440 C   0  0  0  0  0  0  0  0  0  0  0  0
   21.8160    6.3640   31.5400 C   0  0  0  0  0  0  0  0  0  0  0  0
   23.1440    5.1600   30.8720 Br  0  0  0  0  0  0  0  0  0  0  0  0
   20.6220    5.8790   32.0390 C   0  0  0  0  0  3  0  0  0  0  0  0
   19.6520    6.7360   32.5180 C   0  0  0  0  0  0  0  0  0  0  0  0
   19.7740    8.1050   32.5370 C   0  0  0  0  0  0  0  0  0  0  0  0
   18.3710    6.4130   33.0620 O   0  0  0  0  0  0  0  0  0  0  0  0
   20.9570    8.5790   32.0400 C   0  0  0  0  0  3  0  0  0  0  0  0
   18.5850    8.5670   33.0780 O   0  0  0  0  0  0  0  0  0  0  0  0
   17.5530    7.5870   32.7760 C   0  0  0  0  0  2  0  0  0  0  0  0
   23.4630    9.6750   30.9890 N   0  0  2  0  0  4  0  0  0  0  0  0
   23.2900   10.1090   29.5560 C   0  0  0  0  0  2  0  0  0  0  0  0
   23.8080   11.3770   29.2610 N   0  0  2  0  0  0  0  0  0  0  0  0
   25.2130   11.3680   29.6290 C   0  0  0  0  0  2  0  0  0  0  0  0
   23.0160   12.3320   30.0440 C   0  0  0  0  0  2  0  0  0  0  0  0
   25.2780   11.1960   31.0600 N   0  0  2  0  0  0  0  0  0  0  0  0
   24.8330    9.8970   31.4480 C   0  0  0  0  0  2  0  0  0  0  0  0
   24.5020   12.1920   31.8080 C   0  0  0  0  0  2  0  0  0  0  0  0
   23.1070   12.0020   31.4460 N   0  0  2  0  0  0  0  0  0  0  0  0
   22.6650   10.6160   31.7110 C   0  0  0  0  0  2  0  0  0  0  0  0
  1  2  1  0  0  0  0
  2  9  1  0  0  0  0
  3  2  2  0  0  0  0
  3  5  1  0  0  0  0
  4  3  1  0  0  0  0
  5  6  2  0  0  0  0
  6  7  1  0  0  0  0
  6  8  1  0  0  0  0
  7 10  1  0  0  0  0
  9  7  2  0  0  0  0
 11  8  1  0  0  0  0
 11 10  1  0  0  0  0
 12  1  1  1  0  0  0
 12 18  1  0  0  0  0
 12 21  1  0  0  0  0
 13 12  1  0  0  0  0
 14 13  1  1  0  0  0
 14 15  1  0  0  0  0
 14 16  1  0  0  0  0
 17 15  1  6  0  0  0
 17 18  1  0  0  0  0
 17 19  1  0  0  0  0
 20 16  1  6  0  0  0
 20 21  1  0  0  0  0
 20 19  1  0  0  0  0
M  END
>  <Pose>
1

>  <Score>
-8.217

$$$$
