/Users/jonathanwahrer/Desktop/Msc/3_Semester/Drug_Design_Praktikum/waehrer_HTS_screening/HTS_experiment/out/docking_results/vina_output/3elj/0455_docked.pdbqt
 OpenBabel03192217393D

 26 29  0  0  0  0  0  0  0  0999 V2000
   24.1510    9.6040   30.8680 N   0  0  0  0  0  0  0  0  0  0  0  0
   24.7720   10.3090   32.0200 C   0  0  0  0  0  2  0  0  0  0  0  0
   24.5580   11.7810   31.6820 C   0  0  0  0  0  2  0  0  0  0  0  0
   24.1220   12.0080   30.3530 N   0  0  0  0  0  0  0  0  0  0  0  0
   24.9080   11.3050   29.3730 C   0  0  0  0  0  2  0  0  0  0  0  0
   25.1030    9.8760   29.7900 C   0  0  0  0  0  2  0  0  0  0  0  0
   24.0910    8.1830   31.1510 C   0  0  0  0  0  2  0  0  0  0  0  0
   22.7130    7.7880   31.5340 C   0  0  0  0  0  0  0  0  0  0  0  0
   22.2620    6.4820   31.3540 C   0  0  0  0  0  0  0  0  0  0  0  0
   23.4810    5.2380   30.5690 Br  0  0  0  0  0  0  0  0  0  0  0  0
   20.9970    6.0820   31.7190 C   0  0  0  0  0  3  0  0  0  0  0  0
   20.1100    6.9640   32.2850 C   0  0  0  0  0  0  0  0  0  0  0  0
   20.5210    8.2520   32.4750 C   0  0  0  0  0  0  0  0  0  0  0  0
   18.8260    6.5990   32.6680 O   0  0  0  0  0  0  0  0  0  0  0  0
   21.8030    8.6540   32.1040 C   0  0  0  0  0  3  0  0  0  0  0  0
   19.6400    9.1580   33.0450 O   0  0  0  0  0  0  0  0  0  0  0  0
   18.2670    8.9130   33.2020 C   0  0  0  0  0  2  0  0  0  0  0  0
   17.9900    7.4570   33.4030 C   0  0  0  0  0  2  0  0  0  0  0  0
   22.7310   12.0610   30.1090 C   0  0  0  0  0  2  0  0  0  0  0  0
   21.9500   12.9040   30.9950 C   0  0  0  0  0  0  0  0  0  0  0  0
   22.0190   14.1490   30.9280 O   0  0  0  0  0  0  0  0  0  0  0  0
   21.0860   12.3390   31.9610 N   0  0  0  0  0  0  0  0  0  0  0  0
   20.9700   11.2920   32.0790 H   0  0  0  0  0  0  0  0  0  0  0  0
   20.2870   13.1540   32.8690 C   0  0  0  0  0  3  0  0  0  0  0  0
   19.6300   12.5480   34.0380 C   0  0  0  0  0  2  0  0  0  0  0  0
   18.7900   12.8620   32.8370 C   0  0  0  0  0  2  0  0  0  0  0  0
  1  7  1  0  0  0  0
  1  2  1  0  0  0  0
  3  2  1  0  0  0  0
  4  3  1  0  0  0  0
  5  6  1  0  0  0  0
  5  4  1  0  0  0  0
  6  1  1  0  0  0  0
  7  8  1  0  0  0  0
  8 15  1  0  0  0  0
  9  8  2  0  0  0  0
  9 11  1  0  0  0  0
 10  9  1  0  0  0  0
 11 12  2  0  0  0  0
 12 13  1  0  0  0  0
 12 14  1  0  0  0  0
 13 16  1  0  0  0  0
 14 18  1  0  0  0  0
 15 13  2  0  0  0  0
 16 17  1  0  0  0  0
 17 18  1  0  0  0  0
 19  4  1  0  0  0  0
 19 20  1  0  0  0  0
 20 22  1  0  0  0  0
 21 20  2  0  0  0  0
 22 23  1  0  0  0  0
 22 24  1  0  0  0  0
 24 25  1  0  0  0  0
 26 24  1  0  0  0  0
 26 25  1  0  0  0  0
M  END
>  <Pose>
1

>  <Score>
-8.209

$$$$
