MODEL 1
REMARK VINA RESULT:    -8.209      0.000      0.000
REMARK INTER + INTRA:         -11.611
REMARK INTER:                 -10.608
REMARK INTRA:                  -1.003
REMARK UNBOUND:                -1.003
REMARK  5 active torsions:
REMARK  status: ('A' for Active; 'I' for Inactive)
REMARK    1  A    between atoms: C_7  and  C_8 
REMARK    2  A    between atoms: C_8  and  N_9 
REMARK    3  A    between atoms: N_12  and  C_15 
REMARK    4  A    between atoms: C_15  and  C_16 
REMARK       I    between atoms: C_16  and  N_18 
REMARK    5  A    between atoms: N_18  and  C_19 
ROOT
ATOM      1  N   UNK d   1      24.151   9.604  30.868  0.00  0.00     0.095 N 
ATOM      2  C   UNK d   1      24.772  10.309  32.020  0.00  0.00     0.292 C 
ATOM      3  C   UNK d   1      24.558  11.781  31.682  0.00  0.00     0.147 C 
ATOM      4  N   UNK d   1      24.122  12.008  30.353  0.00  0.00    -0.401 N 
ATOM      5  C   UNK d   1      24.908  11.305  29.373  0.00  0.00     0.147 C 
ATOM      6  C   UNK d   1      25.103   9.876  29.790  0.00  0.00     0.292 C 
ENDROOT
BRANCH   1   7
ATOM      7  C   UNK d   1      24.091   8.183  31.151  0.00  0.00     0.312 C 
BRANCH   7   8
ATOM      8  C   UNK d   1      22.713   7.788  31.534  0.00  0.00    -0.010 A 
ATOM      9  C   UNK d   1      22.262   6.482  31.354  0.00  0.00     0.021 A 
ATOM     10 Br   UNK d   1      23.481   5.238  30.569  0.00  0.00    -0.050 Br
ATOM     11  C   UNK d   1      20.997   6.082  31.719  0.00  0.00     0.059 A 
ATOM     12  C   UNK d   1      20.110   6.964  32.285  0.00  0.00     0.103 A 
ATOM     13  C   UNK d   1      20.521   8.252  32.475  0.00  0.00     0.102 A 
ATOM     14  O   UNK d   1      18.826   6.599  32.668  0.00  0.00    -0.346 OA
ATOM     15  C   UNK d   1      21.803   8.654  32.104  0.00  0.00     0.050 A 
ATOM     16  O   UNK d   1      19.640   9.158  33.045  0.00  0.00    -0.346 OA
ATOM     17  C   UNK d   1      18.267   8.913  33.202  0.00  0.00     0.202 C 
ATOM     18  C   UNK d   1      17.990   7.457  33.403  0.00  0.00     0.202 C 
ENDBRANCH   7   8
ENDBRANCH   1   7
BRANCH   4  19
ATOM     19  C   UNK d   1      22.731  12.061  30.109  0.00  0.00     0.219 C 
BRANCH  19  20
ATOM     20  C   UNK d   1      21.950  12.904  30.995  0.00  0.00     0.235 C 
ATOM     21  O   UNK d   1      22.019  14.149  30.928  0.00  0.00    -0.272 OA
ATOM     22  N   UNK d   1      21.086  12.339  31.961  0.00  0.00    -0.355 N 
ATOM     23  H   UNK d   1      20.970  11.292  32.079  0.00  0.00     0.162 HD
BRANCH  22  24
ATOM     24  C   UNK d   1      20.287  13.154  32.869  0.00  0.00     0.084 A 
ATOM     25  C   UNK d   1      19.630  12.548  34.038  0.00  0.00     0.027 A 
ATOM     26  C   UNK d   1      18.790  12.862  32.837  0.00  0.00     0.027 A 
ENDBRANCH  22  24
ENDBRANCH  19  20
ENDBRANCH   4  19
TORSDOF 5
ENDMDL
