MODEL 1
REMARK VINA RESULT:    -9.276      0.000      0.000
REMARK INTER + INTRA:         -13.468
REMARK INTER:                 -12.530
REMARK INTRA:                  -0.937
REMARK UNBOUND:                -0.937
REMARK  6 active torsions:
REMARK  status: ('A' for Active; 'I' for Inactive)
REMARK    1  A    between atoms: C_7  and  C_8 
REMARK    2  A    between atoms: C_8  and  O_9 
REMARK    3  A    between atoms: O_9  and  C_10 
REMARK    4  A    between atoms: C_13  and  C_16 
REMARK    5  A    between atoms: N_18  and  C_21 
REMARK    6  A    between atoms: C_21  and  C_22 
REMARK       I    between atoms: C_22  and  N_24 
ROOT
ATOM      1  C   UNK d   1      21.496  11.672  32.245  0.00  0.00     0.069 A 
ATOM      2  C   UNK d   1      20.688  12.783  32.520  0.00  0.00     0.038 A 
ATOM      3  C   UNK d   1      20.885  14.013  31.934  0.00  0.00     0.018 A 
ATOM      4  C   UNK d   1      21.912  14.203  31.035  0.00  0.00     0.015 A 
ATOM      5  C   UNK d   1      22.718  13.121  30.754  0.00  0.00     0.018 A 
ATOM      6  C   UNK d   1      22.519  11.872  31.346  0.00  0.00     0.038 A 
ENDROOT
BRANCH   1   7
ATOM      7  O   UNK d   1      21.256  10.458  32.865  0.00  0.00    -0.347 OA
BRANCH   7   8
ATOM      8  C   UNK d   1      20.301   9.536  32.432  0.00  0.00     0.215 C 
BRANCH   8   9
ATOM      9  C   UNK d   1      20.852   8.214  32.086  0.00  0.00    -0.014 A 
ATOM     10  C   UNK d   1      20.049   7.069  32.168  0.00  0.00     0.022 A 
ATOM     11 Br   UNK d   1      18.253   7.305  32.792  0.00  0.00    -0.050 Br
ATOM     12  C   UNK d   1      20.532   5.834  31.815  0.00  0.00     0.059 A 
ATOM     13  C   UNK d   1      21.828   5.683  31.368  0.00  0.00     0.106 A 
ATOM     14  C   UNK d   1      22.640   6.793  31.277  0.00  0.00     0.105 A 
ATOM     15  O   UNK d   1      22.586   4.588  30.947  0.00  0.00    -0.323 OA
ATOM     16  C   UNK d   1      22.141   8.044  31.636  0.00  0.00     0.050 A 
ATOM     17  O   UNK d   1      23.865   6.359  30.809  0.00  0.00    -0.323 OA
ATOM     18  C   UNK d   1      23.763   5.037  30.311  0.00  0.00     0.352 C 
ENDBRANCH   8   9
ENDBRANCH   7   8
ENDBRANCH   1   7
BRANCH   4  19
ATOM     19  C   UNK d   1      22.134  15.507  30.404  0.00  0.00     0.198 A 
ATOM     20  N   UNK d   1      22.784  15.789  29.263  0.00  0.00    -0.136 NA
ATOM     21  N   UNK d   1      22.745  17.111  29.064  0.00  0.00    -0.182 N 
ATOM     22  N   UNK d   1      22.080  17.665  30.067  0.00  0.00     0.025 NA
ATOM     23  N   UNK d   1      21.711  16.689  30.879  0.00  0.00    -0.136 NA
BRANCH  21  24
ATOM     24  C   UNK d   1      23.311  17.869  27.967  0.00  0.00     0.272 C 
BRANCH  24  25
ATOM     25  C   UNK d   1      23.575  16.980  26.814  0.00  0.00     0.236 C 
ATOM     26  O   UNK d   1      22.821  17.013  25.829  0.00  0.00    -0.272 OA
ATOM     27  N   UNK d   1      24.683  16.107  26.855  0.00  0.00    -0.369 N 
ATOM     28  H   UNK d   1      25.056  15.700  27.757  0.00  0.00     0.159 HD
ATOM     29  H   UNK d   1      25.167  15.839  25.972  0.00  0.00     0.159 HD
ENDBRANCH  24  25
ENDBRANCH  21  24
ENDBRANCH   4  19
TORSDOF 6
ENDMDL
