MODEL 1
REMARK VINA RESULT:    -8.553      0.000      0.000
REMARK INTER + INTRA:         -11.802
REMARK INTER:                 -11.053
REMARK INTRA:                  -0.749
REMARK UNBOUND:                -0.749
REMARK  5 active torsions:
REMARK  status: ('A' for Active; 'I' for Inactive)
REMARK    1  A    between atoms: C_7  and  C_8 
REMARK    2  A    between atoms: N_9  and  N_10 
REMARK    3  A    between atoms: N_10  and  C_11 
REMARK    4  A    between atoms: C_13  and  N_19 
REMARK    5  A    between atoms: C_15  and  O_17 
ROOT
ATOM      1  C   UNK d   1      24.078  11.541  29.302  0.00  0.00     0.762 A 
ATOM      2  N   UNK d   1      23.253  12.219  30.117  0.00  0.00     0.132 NA
ATOM      3  C   UNK d   1      23.181  13.578  30.124  0.00  0.00     0.744 A 
ATOM      4  N   UNK d   1      23.983  14.207  29.267  0.00  0.00    -0.017 NA
ATOM      5  C   UNK d   1      24.821  13.595  28.435  0.00  0.00     0.302 A 
ATOM      6  N   UNK d   1      24.855  12.229  28.467  0.00  0.00    -0.016 NA
ENDROOT
BRANCH   1   7
ATOM      7  N   UNK d   1      24.070  10.135  29.429  0.00  0.00    -0.105 N 
ATOM      8  H   UNK d   1      24.878   9.594  29.052  0.00  0.00     0.208 HD
BRANCH   7   9
ATOM      9  N   UNK d   1      23.035   9.445  30.030  0.00  0.00    -0.172 NA
ATOM     10  C   UNK d   1      23.092   8.624  30.990  0.00  0.00     0.152 C 
BRANCH  10  11
ATOM     11  C   UNK d   1      21.906   7.975  31.511  0.00  0.00     0.003 A 
ATOM     12  C   UNK d   1      21.770   6.605  31.523  0.00  0.00     0.025 A 
ATOM     13 Br   UNK d   1      23.174   5.529  30.844  0.00  0.00    -0.050 Br
ATOM     14  C   UNK d   1      20.624   6.016  32.023  0.00  0.00     0.059 A 
ATOM     15  C   UNK d   1      19.563   6.768  32.532  0.00  0.00     0.106 A 
ATOM     16  C   UNK d   1      19.691   8.155  32.525  0.00  0.00     0.105 A 
ATOM     17  O   UNK d   1      18.328   6.462  33.080  0.00  0.00    -0.323 OA
ATOM     18  C   UNK d   1      20.845   8.720  32.021  0.00  0.00     0.054 A 
ATOM     19  O   UNK d   1      18.531   8.657  33.069  0.00  0.00    -0.323 OA
ATOM     20  C   UNK d   1      17.576   7.632  33.262  0.00  0.00     0.352 C 
ENDBRANCH  10  11
ENDBRANCH   7   9
ENDBRANCH   1   7
BRANCH   3  21
ATOM     21  N   UNK d   1      22.288  14.205  30.997  0.00  0.00    -0.209 N 
ATOM     22  C   UNK d   1      22.070  15.631  30.952  0.00  0.00     0.167 C 
ATOM     23  C   UNK d   1      20.801  16.012  31.684  0.00  0.00     0.188 C 
ATOM     24  O   UNK d   1      19.789  15.112  31.619  0.00  0.00    -0.388 OA
ATOM     25  C   UNK d   1      20.076  13.783  31.665  0.00  0.00     0.188 C 
ATOM     26  C   UNK d   1      21.534  13.450  31.965  0.00  0.00     0.167 C 
ENDBRANCH   3  21
BRANCH   5  27
ATOM     27  O   UNK d   1      25.643  14.279  27.555  0.00  0.00    -0.323 OA
ATOM     28  C   UNK d   1      26.731  13.637  26.946  0.00  0.00     0.213 C 
ENDBRANCH   5  27
TORSDOF 5
ENDMDL
