MODEL 1
REMARK VINA RESULT:    -9.517      0.000      0.000
REMARK INTER + INTRA:         -11.791
REMARK INTER:                 -11.186
REMARK INTRA:                  -0.605
REMARK UNBOUND:                -0.605
REMARK  3 active torsions:
REMARK  status: ('A' for Active; 'I' for Inactive)
REMARK    1  A    between atoms: C_11  and  C_13 
REMARK       I    between atoms: C_13  and  N_15 
REMARK    2  A    between atoms: N_18  and  C_21 
REMARK    3  A    between atoms: C_21  and  C_22 
ROOT
ATOM      1  C   UNK d   1      23.946   9.378  30.083  0.00  0.00     0.277 C 
ATOM      2  O   UNK d   1      24.475   8.987  29.002  0.00  0.00    -0.265 OA
ATOM      3  N   UNK d   1      24.308  10.632  30.615  0.00  0.00    -0.343 N 
ATOM      4  C   UNK d   1      25.273  11.436  29.909  0.00  0.00     0.145 C 
ATOM      5  C   UNK d   1      24.764  12.827  29.597  0.00  0.00     0.137 C 
ATOM      6  N   UNK d   1      23.859  13.213  30.614  0.00  0.00    -0.404 N 
ATOM      7  C   UNK d   1      24.187  12.675  31.876  0.00  0.00     0.137 C 
ATOM      8  C   UNK d   1      23.779  11.191  31.835  0.00  0.00     0.145 C 
ENDROOT
BRANCH   1   9
ATOM      9  C   UNK d   1      22.973   8.491  30.731  0.00  0.00     0.147 A 
ATOM     10  C   UNK d   1      23.216   7.139  30.800  0.00  0.00     0.098 A 
ATOM     11  C   UNK d   1      22.331   6.267  31.399  0.00  0.00     0.187 A 
ATOM     12  C   UNK d   1      21.164   6.770  31.946  0.00  0.00     0.048 A 
ATOM     13  O   UNK d   1      22.565   5.015  31.458  0.00  0.00    -0.287 OA
ATOM     14  C   UNK d   1      20.977   8.135  31.845  0.00  0.00     0.091 A 
ATOM     15  C   UNK d   1      20.264   5.926  32.549  0.00  0.00     0.020 A 
ATOM     16  C   UNK d   1      19.805   8.634  32.395  0.00  0.00     0.057 A 
ATOM     17  O   UNK d   1      21.855   8.916  31.264  0.00  0.00    -0.304 OA
ATOM     18  C   UNK d   1      18.881   7.806  33.009  0.00  0.00     0.013 A 
ATOM     19 Br   UNK d   1      17.281   8.531  33.753  0.00  0.00    -0.051 Br
ATOM     20  C   UNK d   1      19.112   6.446  33.086  0.00  0.00     0.020 A 
ENDBRANCH   1   9
BRANCH   6  21
ATOM     21  C   UNK d   1      22.497  13.294  30.269  0.00  0.00     0.181 C 
BRANCH  21  22
ATOM     22  C   UNK d   1      21.750  14.386  30.887  0.00  0.00     0.108 A 
ATOM     23  N   UNK d   1      21.879  15.688  30.585  0.00  0.00    -0.106 NA
ATOM     24  O   UNK d   1      21.061  16.337  31.335  0.00  0.00    -0.106 OA
ATOM     25  N   UNK d   1      20.393  15.531  32.121  0.00  0.00    -0.108 NA
ATOM     26  C   UNK d   1      20.804  14.269  31.868  0.00  0.00     0.088 A 
ATOM     27  C   UNK d   1      20.320  13.018  32.525  0.00  0.00     0.075 C 
ENDBRANCH  21  22
ENDBRANCH   6  21
TORSDOF 3
ENDMDL
