/Users/jonathanwahrer/Desktop/Msc/3_Semester/Drug_Design_Praktikum/waehrer_HTS_screening/HTS_experiment/out/docking_results/vina_output/3elj/0473_docked.pdbqt
 OpenBabel03192217403D

 29 32  0  0  0  0  0  0  0  0999 V2000
   19.8790   14.0370   31.8470 C   0  0  0  0  0  2  0  0  0  0  0  0
   19.1660   12.8740   32.4760 C   0  0  0  0  0  2  0  0  0  0  0  0
   20.0860   12.1560   33.3930 C   0  0  0  0  0  2  0  0  0  0  0  0
   20.3400   10.7860   33.0050 N   0  0  0  0  0  0  0  0  0  0  0  0
   19.3910    9.7440   33.1730 C   0  0  0  0  0  0  0  0  0  0  0  0
   19.9780    8.5110   32.6800 C   0  0  0  0  0  0  0  0  0  0  0  0
   18.2190    9.8230   33.6640 O   0  0  0  0  0  0  0  0  0  0  0  0
   21.2480    8.8170   32.2300 C   0  0  0  0  0  0  0  0  0  0  0  0
   19.5000    7.2180   32.6050 C   0  0  0  0  0  3  0  0  0  0  0  0
   22.0100    7.7870   31.7090 C   0  0  0  0  0  3  0  0  0  0  0  0
   21.5040   10.2520   32.4250 C   0  0  0  0  0  0  0  0  0  0  0  0
   21.5210    6.4990   31.6390 C   0  0  0  0  0  0  0  0  0  0  0  0
   22.6280    5.1280   30.9070 Br  0  0  0  0  0  0  0  0  0  0  0  0
   20.2540    6.1860   32.0860 C   0  0  0  0  0  3  0  0  0  0  0  0
   22.5690   10.8550   32.1190 O   0  0  0  0  0  0  0  0  0  0  0  0
   20.9200   13.6570   30.8640 C   0  0  0  0  0  0  0  0  0  0  0  0
   20.8690   12.6120   30.1650 O   0  0  0  0  0  0  0  0  0  0  0  0
   22.0730   14.4970   30.6600 N   0  0  0  0  0  0  0  0  0  0  0  0
   23.0930   14.1360   29.7020 C   0  0  0  0  0  2  0  0  0  0  0  0
   22.2670   15.7320   31.3950 C   0  0  0  0  0  2  0  0  0  0  0  0
   23.5500   15.2790   28.8590 C   0  0  0  0  0  2  0  0  0  0  0  0
   22.9040   16.5350   29.1580 N   0  0  0  0  0  0  0  0  0  0  0  0
   22.3880   16.9020   30.4490 C   0  0  0  0  0  2  0  0  0  0  0  0
   22.7680   17.4820   28.0930 C   0  0  0  0  0  0  0  0  0  0  0  0
   21.8650   18.4990   28.1550 N   0  0  0  0  0  0  0  0  0  0  0  0
   21.7080   19.4000   27.1870 C   0  0  0  0  0  3  0  0  0  0  0  0
   22.4980   19.3080   26.0510 C   0  0  0  0  0  3  0  0  0  0  0  0
   23.4070   18.3070   25.9580 N   0  0  0  0  0  0  0  0  0  0  0  0
   23.5370   17.4170   26.9550 C   0  0  0  0  0  3  0  0  0  0  0  0
  1  2  1  0  0  0  0
  2  3  1  0  0  0  0
  4  5  1  0  0  0  0
  4  3  1  0  0  0  0
  5  7  2  0  0  0  0
  6  5  1  0  0  0  0
  8 11  1  0  0  0  0
  8  6  2  0  0  0  0
  9  6  1  0  0  0  0
 10  8  1  0  0  0  0
 11  4  1  0  0  0  0
 12 10  2  0  0  0  0
 12 14  1  0  0  0  0
 13 12  1  0  0  0  0
 14  9  2  0  0  0  0
 15 11  2  0  0  0  0
 16  1  1  0  0  0  0
 17 16  2  0  0  0  0
 18 16  1  0  0  0  0
 18 20  1  0  0  0  0
 19 18  1  0  0  0  0
 21 22  1  0  0  0  0
 21 19  1  0  0  0  0
 22 23  1  0  0  0  0
 23 20  1  0  0  0  0
 24 25  1  0  0  0  0
 24 22  1  0  0  0  0
 26 25  2  0  0  0  0
 27 26  1  0  0  0  0
 28 27  2  0  0  0  0
 28 29  1  0  0  0  0
 29 24  2  0  0  0  0
M  END
>  <Pose>
1

>  <Score>
-9.343

$$$$
