MODEL 1
REMARK VINA RESULT:    -9.343      0.000      0.000
REMARK INTER + INTRA:         -13.382
REMARK INTER:                 -12.073
REMARK INTRA:                  -1.309
REMARK UNBOUND:                -1.309
REMARK  5 active torsions:
REMARK  status: ('A' for Active; 'I' for Inactive)
REMARK    1  A    between atoms: N_8  and  C_28 
REMARK    2  A    between atoms: N_12  and  N_13 
REMARK       I    between atoms: N_13  and  C_14 
REMARK    3  A    between atoms: C_14  and  C_16 
REMARK    4  A    between atoms: C_16  and  N_17 
REMARK    5  A    between atoms: C_20  and  C_22 
ROOT
ATOM      1  C   UNK d   1      20.942  14.945  31.893  0.00  0.00     0.225 C 
ATOM      2  C   UNK d   1      22.028  15.591  32.613  0.00  0.00    -0.097 C 
ATOM      3  C   UNK d   1      22.928  16.137  33.197  0.00  0.00     0.014 C 
ENDROOT
BRANCH   1   4
ATOM      4  N   UNK d   1      20.934  13.521  32.160  0.00  0.00    -0.300 N 
ATOM      5  C   UNK d   1      21.915  12.535  31.859  0.00  0.00     0.051 A 
ATOM      6  C   UNK d   1      21.494  11.274  32.300  0.00  0.00     0.028 A 
ATOM      7  C   UNK d   1      23.149  12.635  31.232  0.00  0.00     0.032 A 
ATOM      8  C   UNK d   1      22.313  10.184  32.097  0.00  0.00     0.035 A 
ATOM      9  C   UNK d   1      20.184  11.413  32.920  0.00  0.00     0.157 A 
ATOM     10  C   UNK d   1      23.556  10.298  31.464  0.00  0.00     0.011 A 
ATOM     11 Br   UNK d   1      24.680   8.791  31.188  0.00  0.00    -0.051 Br
ATOM     12  C   UNK d   1      23.951  11.536  31.039  0.00  0.00     0.021 A 
ATOM     13  C   UNK d   1      19.864  12.853  32.811  0.00  0.00     0.280 A 
ATOM     14  N   UNK d   1      19.453  10.494  33.451  0.00  0.00    -0.166 NA
ATOM     15  O   UNK d   1      18.779  13.312  33.262  0.00  0.00    -0.265 OA
BRANCH  14  16
ATOM     16  N   UNK d   1      19.856   9.157  33.499  0.00  0.00    -0.245 N 
ATOM     17  C   UNK d   1      18.988   8.087  33.170  0.00  0.00     0.258 C 
ATOM     18  O   UNK d   1      17.812   8.341  32.820  0.00  0.00    -0.270 OA
ATOM     19  H   UNK d   1      20.829   8.947  33.799  0.00  0.00     0.192 HD
BRANCH  17  20
ATOM     20  C   UNK d   1      19.459   6.711  33.238  0.00  0.00     0.274 C 
BRANCH  20  21
ATOM     21  N   UNK d   1      20.609   6.462  32.390  0.00  0.00    -0.182 N 
ATOM     22  N   UNK d   1      20.996   7.165  31.339  0.00  0.00     0.025 NA
ATOM     23  N   UNK d   1      22.090   6.642  30.812  0.00  0.00    -0.136 NA
ATOM     24  C   UNK d   1      22.427   5.564  31.541  0.00  0.00     0.198 A 
ATOM     25  N   UNK d   1      21.497   5.483  32.501  0.00  0.00    -0.136 NA
BRANCH  24  26
ATOM     26  C   UNK d   1      23.576   4.699  31.293  0.00  0.00     0.015 A 
ATOM     27  C   UNK d   1      24.336   4.869  30.156  0.00  0.00     0.015 A 
ATOM     28  C   UNK d   1      25.437   4.043  29.915  0.00  0.00     0.001 A 
ATOM     29  C   UNK d   1      25.795   3.044  30.792  0.00  0.00     0.000 A 
ATOM     30  C   UNK d   1      25.033   2.872  31.935  0.00  0.00     0.001 A 
ATOM     31  C   UNK d   1      23.941   3.697  32.166  0.00  0.00     0.015 A 
ENDBRANCH  24  26
ENDBRANCH  20  21
ENDBRANCH  17  20
ENDBRANCH  14  16
ENDBRANCH   1   4
TORSDOF 5
ENDMDL
