/Users/jonathanwahrer/Desktop/Msc/3_Semester/Drug_Design_Praktikum/waehrer_HTS_screening/HTS_experiment/out/docking_results/vina_output/3elj/0484_docked.pdbqt
 OpenBabel03192217413D

 35 38  0  0  1  0  0  0  0  0999 V2000
   18.9810    8.9120   32.9260 Br  0  0  0  0  0  0  0  0  0  0  0  0
   20.4300    7.8820   32.2290 C   0  0  0  0  0  0  0  0  0  0  0  0
   21.5210    8.4870   31.5880 C   0  0  0  0  0  3  0  0  0  0  0  0
   22.5030    7.6530   31.1370 C   0  0  0  0  0  0  0  0  0  0  0  0
   22.4760    6.2810   31.2730 C   0  0  0  0  0  0  0  0  0  0  0  0
   21.4020    5.6880   31.8980 C   0  0  0  0  0  3  0  0  0  0  0  0
   20.3750    6.5130   32.3800 C   0  0  0  0  0  3  0  0  0  0  0  0
   23.6300    5.6680   30.7110 N   0  0  0  0  0  0  0  0  0  0  0  0
   24.4350    6.7490   30.1730 C   0  0  0  0  0  0  0  0  0  0  0  0
   25.5400    6.6100   29.6090 O   0  0  0  0  0  0  0  0  0  0  0  0
   23.7080    7.9710   30.4380 C   0  0  1  0  0  3  0  0  0  0  0  0
   23.9520    9.1490   30.0090 N   0  0  0  0  0  2  0  0  0  0  0  0
   24.7560    9.9340   29.6960 N   0  0  0  0  0  0  0  0  0  0  0  0
   25.7430   10.8790   29.3330 C   0  0  0  0  0  0  0  0  0  0  0  0
   25.5620    9.6450   30.7900 H   0  0  0  0  0  0  0  0  0  0  0  0
   26.8340   11.1390   29.7870 O   0  0  0  0  0  0  0  0  0  0  0  0
   25.2380   11.7010   28.1260 C   0  0  0  0  0  2  0  0  0  0  0  0
   24.9640   13.0040   28.6840 O   0  0  0  0  0  0  0  0  0  0  0  0
   23.7160   13.1040   29.3610 N   0  0  0  0  0  0  0  0  0  0  0  0
   23.6520   13.4090   30.5980 C   0  0  0  0  0  3  0  0  0  0  0  0
   22.3730   13.4890   31.2670 C   0  0  0  0  0  0  0  0  0  0  0  0
   21.7110   14.6320   31.5650 C   0  0  0  0  0  3  0  0  0  0  0  0
   20.5020   14.4900   32.2940 C   0  0  0  0  0  3  0  0  0  0  0  0
   19.9420   13.3540   32.7050 C   0  0  0  0  0  0  0  0  0  0  0  0
   20.6400   12.2410   32.3790 C   0  0  0  0  0  3  0  0  0  0  0  0
   21.8010   12.1710   31.7080 C   0  0  0  0  0  3  0  0  0  0  0  0
   18.7360   13.3620   33.4130 O   0  0  0  0  0  0  0  0  0  0  0  0
   17.5150   13.0110   32.7720 C   0  0  0  0  0  1  0  0  0  0  0  0
   24.0750    4.2850   30.6630 C   0  0  0  0  0  2  0  0  0  0  0  0
   24.7870    3.9310   31.7900 N   0  0  0  0  0  0  0  0  0  0  0  0
   24.0410    3.1300   32.6740 C   0  0  0  0  0  2  0  0  0  0  0  0
   24.9050    1.9650   33.1650 C   0  0  0  0  0  2  0  0  0  0  0  0
   25.3970    1.3970   31.9580 O   0  0  0  0  0  0  0  0  0  0  0  0
   26.4210    2.2100   31.4550 C   0  0  0  0  0  2  0  0  0  0  0  0
   26.1620    3.6740   31.6280 C   0  0  0  0  0  2  0  0  0  0  0  0
  2  7  1  0  0  0  0
  2  1  1  0  0  0  0
  3  2  2  0  0  0  0
  4  5  2  0  0  0  0
  4  3  1  0  0  0  0
  5  6  1  0  0  0  0
  6  7  2  0  0  0  0
  8  5  1  0  0  0  0
  9 11  1  0  0  0  0
  9  8  1  0  0  0  0
 10  9  2  0  0  0  0
 11 12  1  6  0  0  0
 11  4  1  0  0  0  0
 13 12  1  0  0  0  0
 13 15  1  0  0  0  0
 14 13  1  0  0  0  0
 14 16  2  0  0  0  0
 17 18  1  0  0  0  0
 17 14  1  0  0  0  0
 18 19  1  0  0  0  0
 19 20  2  0  0  0  0
 20 21  1  0  0  0  0
 21 22  2  0  0  0  0
 21 26  1  0  0  0  0
 22 23  1  0  0  0  0
 23 24  2  0  0  0  0
 24 27  1  0  0  0  0
 25 24  1  0  0  0  0
 26 25  2  0  0  0  0
 28 27  1  0  0  0  0
 29  8  1  0  0  0  0
 29 30  1  0  0  0  0
 30 31  1  0  0  0  0
 31 32  1  0  0  0  0
 33 32  1  0  0  0  0
 34 35  1  0  0  0  0
 34 33  1  0  0  0  0
 35 30  1  0  0  0  0
M  END
>  <Pose>
1

>  <Score>
-8.869

$$$$
