MODEL 1
REMARK VINA RESULT:    -8.869      0.000      0.000
REMARK INTER + INTRA:         -14.637
REMARK INTER:                 -13.017
REMARK INTRA:                  -1.620
REMARK UNBOUND:                -1.620
REMARK  8 active torsions:
REMARK  status: ('A' for Active; 'I' for Inactive)
REMARK    1  A    between atoms: N_8  and  C_28 
REMARK    2  A    between atoms: C_11  and  N_12 
REMARK       I    between atoms: N_13  and  C_14 
REMARK    3  A    between atoms: C_14  and  C_16 
REMARK    4  A    between atoms: C_16  and  O_17 
REMARK    5  A    between atoms: O_17  and  N_18 
REMARK    6  A    between atoms: C_19  and  C_20 
REMARK    7  A    between atoms: C_23  and  O_26 
REMARK    8  A    between atoms: C_28  and  N_29 
ROOT
ATOM      1 Br   UNK d   1      18.981   8.912  32.926  0.00  0.00    -0.051 Br
ATOM      2  C   UNK d   1      20.430   7.882  32.229  0.00  0.00     0.011 A 
ATOM      3  C   UNK d   1      21.521   8.487  31.588  0.00  0.00     0.035 A 
ATOM      4  C   UNK d   1      22.503   7.653  31.137  0.00  0.00     0.028 A 
ATOM      5  C   UNK d   1      22.476   6.281  31.273  0.00  0.00     0.052 A 
ATOM      6  C   UNK d   1      21.402   5.688  31.898  0.00  0.00     0.032 A 
ATOM      7  C   UNK d   1      20.375   6.513  32.380  0.00  0.00     0.021 A 
ATOM      8  N   UNK d   1      23.630   5.668  30.711  0.00  0.00    -0.295 N 
ATOM      9  C   UNK d   1      24.435   6.749  30.173  0.00  0.00     0.281 A 
ATOM     10  O   UNK d   1      25.540   6.610  29.609  0.00  0.00    -0.265 OA
ATOM     11  C   UNK d   1      23.708   7.971  30.438  0.00  0.00     0.157 A 
ENDROOT
BRANCH  11  12
ATOM     12  N   UNK d   1      23.952   9.149  30.009  0.00  0.00    -0.166 NA
ATOM     13  N   UNK d   1      24.756   9.934  29.696  0.00  0.00    -0.244 N 
ATOM     14  C   UNK d   1      25.743  10.879  29.333  0.00  0.00     0.264 C 
ATOM     15  H   UNK d   1      25.562   9.645  30.790  0.00  0.00     0.192 HD
ATOM     16  O   UNK d   1      26.834  11.139  29.787  0.00  0.00    -0.269 OA
BRANCH  14  17
ATOM     17  C   UNK d   1      25.238  11.701  28.126  0.00  0.00     0.308 C 
BRANCH  17  18
ATOM     18  O   UNK d   1      24.964  13.004  28.684  0.00  0.00    -0.247 OA
BRANCH  18  19
ATOM     19  N   UNK d   1      23.716  13.104  29.361  0.00  0.00    -0.145 NA
ATOM     20  C   UNK d   1      23.652  13.409  30.598  0.00  0.00     0.157 C 
BRANCH  20  21
ATOM     21  C   UNK d   1      22.373  13.489  31.267  0.00  0.00    -0.016 A 
ATOM     22  C   UNK d   1      21.711  14.632  31.565  0.00  0.00     0.015 A 
ATOM     23  C   UNK d   1      20.502  14.490  32.294  0.00  0.00     0.037 A 
ATOM     24  C   UNK d   1      19.942  13.354  32.705  0.00  0.00     0.068 A 
ATOM     25  C   UNK d   1      20.640  12.241  32.379  0.00  0.00     0.037 A 
ATOM     26  C   UNK d   1      21.801  12.171  31.708  0.00  0.00     0.015 A 
BRANCH  24  27
ATOM     27  O   UNK d   1      18.736  13.362  33.413  0.00  0.00    -0.356 OA
ATOM     28  C   UNK d   1      17.515  13.011  32.772  0.00  0.00     0.210 C 
ENDBRANCH  24  27
ENDBRANCH  20  21
ENDBRANCH  18  19
ENDBRANCH  17  18
ENDBRANCH  14  17
ENDBRANCH  11  12
BRANCH   8  29
ATOM     29  C   UNK d   1      24.075   4.285  30.663  0.00  0.00     0.253 C 
BRANCH  29  30
ATOM     30  N   UNK d   1      24.787   3.931  31.790  0.00  0.00    -0.392 N 
ATOM     31  C   UNK d   1      24.041   3.130  32.674  0.00  0.00     0.145 C 
ATOM     32  C   UNK d   1      24.905   1.965  33.165  0.00  0.00     0.187 C 
ATOM     33  O   UNK d   1      25.397   1.397  31.958  0.00  0.00    -0.388 OA
ATOM     34  C   UNK d   1      26.421   2.210  31.455  0.00  0.00     0.187 C 
ATOM     35  C   UNK d   1      26.162   3.674  31.628  0.00  0.00     0.145 C 
ENDBRANCH  29  30
ENDBRANCH   8  29
TORSDOF 8
ENDMDL
