/Users/jonathanwahrer/Desktop/Msc/3_Semester/Drug_Design_Praktikum/waehrer_HTS_screening/HTS_experiment/out/docking_results/vina_output/3elj/0485_docked.pdbqt
 OpenBabel03192217413D

 34 37  0  0  0  0  0  0  0  0999 V2000
   17.3660    8.4810   33.8190 Br  0  0  0  0  0  0  0  0  0  0  0  0
   19.0980    9.0010   33.1680 C   0  0  0  0  0  0  0  0  0  0  0  0
   19.9040    8.1190   32.4860 C   0  0  0  0  0  3  0  0  0  0  0  0
   21.1640    8.4490   31.9970 C   0  0  0  0  0  0  0  0  0  0  0  0
   21.6350    9.7480   32.2120 C   0  0  0  0  0  0  0  0  0  0  0  0
   20.8260   10.6330   32.8960 C   0  0  0  0  0  3  0  0  0  0  0  0
   19.5680   10.2810   33.3760 C   0  0  0  0  0  3  0  0  0  0  0  0
   22.9400    9.8960   31.6370 N   0  0  0  0  0  0  0  0  0  0  0  0
   23.2740    8.6430   31.0540 C   0  0  0  0  0  0  0  0  0  0  0  0
   24.3420    8.3840   30.4560 O   0  0  0  0  0  0  0  0  0  0  0  0
   22.1790    7.7160   31.2640 C   0  0  0  0  0  0  0  0  0  0  0  0
   22.1110    6.4910   30.8820 N   0  0  0  0  0  0  0  0  0  0  0  0
   23.1280    5.8550   30.1810 N   0  0  0  0  0  0  0  0  0  0  0  0
   23.9240    4.8850   30.8260 C   0  0  0  0  0  0  0  0  0  0  0  0
   23.7330    4.5690   32.0510 O   0  0  0  0  0  0  0  0  0  0  0  0
   23.2940    6.0970   29.1940 H   0  0  0  0  0  0  0  0  0  0  0  0
   25.0290    4.1570   30.1530 C   0  0  0  0  0  2  0  0  0  0  0  0
   25.0260    4.4430   28.7550 O   0  0  0  0  0  0  0  0  0  0  0  0
   26.1380    5.0240   28.1680 C   0  0  0  0  0  0  0  0  0  0  0  0
   26.9720    4.2710   27.3700 C   0  0  0  0  0  0  0  0  0  0  0  0
   28.0870    4.8610   26.7830 C   0  0  0  0  0  3  0  0  0  0  0  0
   28.3660    6.1980   26.9940 C   0  0  0  0  0  3  0  0  0  0  0  0
   27.5310    6.9290   27.7860 C   0  0  0  0  0  3  0  0  0  0  0  0
   26.4220    6.3410   28.3700 C   0  0  0  0  0  3  0  0  0  0  0  0
   26.7240    2.9410   27.1400 O   0  0  0  0  0  0  0  0  0  0  0  0
   27.5010    1.9500   27.7640 C   0  0  0  0  0  1  0  0  0  0  0  0
   23.7290   11.1170   31.6690 C   0  0  0  0  0  2  0  0  0  0  0  0
   22.9970   12.3070   31.4250 N   0  0  0  0  0  0  0  0  0  0  0  0
   23.6270   13.5180   31.8260 C   0  0  0  0  0  2  0  0  0  0  0  0
   22.7290   14.7370   31.5940 C   0  0  0  0  0  2  0  0  0  0  0  0
   21.4100   14.2360   31.3300 N   0  0  0  0  0  0  0  0  0  0  0  0
   21.3210   13.5100   30.1010 C   0  0  0  0  0  2  0  0  0  0  0  0
   20.3700   15.2030   31.5290 C   0  0  0  0  0  1  0  0  0  0  0  0
   22.3240   12.3720   30.1600 C   0  0  0  0  0  2  0  0  0  0  0  0
  2  7  1  0  0  0  0
  2  1  1  0  0  0  0
  3  2  2  0  0  0  0
  4  5  2  0  0  0  0
  4  3  1  0  0  0  0
  5  6  1  0  0  0  0
  6  7  2  0  0  0  0
  8 27  1  0  0  0  0
  8  5  1  0  0  0  0
  9 11  1  0  0  0  0
  9  8  1  0  0  0  0
 10  9  2  0  0  0  0
 11  4  1  0  0  0  0
 12 11  2  0  0  0  0
 13 14  1  0  0  0  0
 13 12  1  0  0  0  0
 14 15  2  0  0  0  0
 16 13  1  0  0  0  0
 17 14  1  0  0  0  0
 18 17  1  0  0  0  0
 19 24  1  0  0  0  0
 19 18  1  0  0  0  0
 20 19  2  0  0  0  0
 21 22  2  0  0  0  0
 21 20  1  0  0  0  0
 22 23  1  0  0  0  0
 23 24  2  0  0  0  0
 25 20  1  0  0  0  0
 25 26  1  0  0  0  0
 28 27  1  0  0  0  0
 28 29  1  0  0  0  0
 30 29  1  0  0  0  0
 31 33  1  0  0  0  0
 31 30  1  0  0  0  0
 32 34  1  0  0  0  0
 32 31  1  0  0  0  0
 34 28  1  0  0  0  0
M  END
>  <Pose>
1

>  <Score>
-8.440

$$$$
