MODEL 1
REMARK VINA RESULT:    -8.440      0.000      0.000
REMARK INTER + INTRA:         -12.751
REMARK INTER:                 -11.894
REMARK INTRA:                  -0.857
REMARK UNBOUND:                -0.857
REMARK  7 active torsions:
REMARK  status: ('A' for Active; 'I' for Inactive)
REMARK    1  A    between atoms: N_8  and  C_26 
REMARK    2  A    between atoms: N_12  and  N_13 
REMARK       I    between atoms: N_13  and  C_14 
REMARK    3  A    between atoms: C_14  and  C_16 
REMARK    4  A    between atoms: C_16  and  O_17 
REMARK    5  A    between atoms: O_17  and  C_18 
REMARK    6  A    between atoms: C_19  and  O_24 
REMARK    7  A    between atoms: C_26  and  N_27 
ROOT
ATOM      1 Br   UNK d   1      17.366   8.481  33.819  0.00  0.00    -0.051 Br
ATOM      2  C   UNK d   1      19.098   9.001  33.168  0.00  0.00     0.011 A 
ATOM      3  C   UNK d   1      19.904   8.119  32.486  0.00  0.00     0.035 A 
ATOM      4  C   UNK d   1      21.164   8.449  31.997  0.00  0.00     0.028 A 
ATOM      5  C   UNK d   1      21.635   9.748  32.212  0.00  0.00     0.052 A 
ATOM      6  C   UNK d   1      20.826  10.633  32.896  0.00  0.00     0.032 A 
ATOM      7  C   UNK d   1      19.568  10.281  33.376  0.00  0.00     0.021 A 
ATOM      8  N   UNK d   1      22.940   9.896  31.637  0.00  0.00    -0.295 N 
ATOM      9  C   UNK d   1      23.274   8.643  31.054  0.00  0.00     0.281 A 
ATOM     10  O   UNK d   1      24.342   8.384  30.456  0.00  0.00    -0.265 OA
ATOM     11  C   UNK d   1      22.179   7.716  31.264  0.00  0.00     0.157 A 
ATOM     12  N   UNK d   1      22.111   6.491  30.882  0.00  0.00    -0.166 NA
ENDROOT
BRANCH  12  13
ATOM     13  N   UNK d   1      23.128   5.855  30.181  0.00  0.00    -0.244 N 
ATOM     14  C   UNK d   1      23.924   4.885  30.826  0.00  0.00     0.261 C 
ATOM     15  O   UNK d   1      23.733   4.569  32.051  0.00  0.00    -0.269 OA
ATOM     16  H   UNK d   1      23.294   6.097  29.194  0.00  0.00     0.192 HD
BRANCH  14  17
ATOM     17  C   UNK d   1      25.029   4.157  30.153  0.00  0.00     0.280 C 
BRANCH  17  18
ATOM     18  O   UNK d   1      25.026   4.443  28.755  0.00  0.00    -0.339 OA
BRANCH  18  19
ATOM     19  C   UNK d   1      26.138   5.024  28.168  0.00  0.00     0.102 A 
ATOM     20  C   UNK d   1      26.972   4.271  27.370  0.00  0.00     0.101 A 
ATOM     21  C   UNK d   1      28.087   4.861  26.783  0.00  0.00     0.039 A 
ATOM     22  C   UNK d   1      28.366   6.198  26.994  0.00  0.00     0.003 A 
ATOM     23  C   UNK d   1      27.531   6.929  27.786  0.00  0.00     0.003 A 
ATOM     24  C   UNK d   1      26.422   6.341  28.370  0.00  0.00     0.039 A 
BRANCH  20  25
ATOM     25  O   UNK d   1      26.724   2.941  27.140  0.00  0.00    -0.353 OA
ATOM     26  C   UNK d   1      27.501   1.950  27.764  0.00  0.00     0.210 C 
ENDBRANCH  20  25
ENDBRANCH  18  19
ENDBRANCH  17  18
ENDBRANCH  14  17
ENDBRANCH  12  13
BRANCH   8  27
ATOM     27  C   UNK d   1      23.729  11.117  31.669  0.00  0.00     0.253 C 
BRANCH  27  28
ATOM     28  N   UNK d   1      22.997  12.307  31.425  0.00  0.00    -0.393 N 
ATOM     29  C   UNK d   1      23.627  13.518  31.826  0.00  0.00     0.148 C 
ATOM     30  C   UNK d   1      22.729  14.737  31.594  0.00  0.00     0.291 C 
ATOM     31  N   UNK d   1      21.410  14.236  31.330  0.00  0.00     0.087 N 
ATOM     32  C   UNK d   1      21.321  13.510  30.101  0.00  0.00     0.291 C 
ATOM     33  C   UNK d   1      20.370  15.203  31.529  0.00  0.00     0.310 C 
ATOM     34  C   UNK d   1      22.324  12.372  30.160  0.00  0.00     0.148 C 
ENDBRANCH  27  28
ENDBRANCH   8  27
TORSDOF 7
ENDMDL
