MODEL 1
REMARK VINA RESULT:    -6.290      0.000      0.000
REMARK INTER + INTRA:          -6.474
REMARK INTER:                  -6.474
REMARK INTRA:                   0.000
REMARK UNBOUND:                 0.000
REMARK  1 active torsions:
REMARK  status: ('A' for Active; 'I' for Inactive)
REMARK    1  A    between atoms: C_15  and  N_19 
ROOT
ATOM      1 Br   UNK d   1      31.220  19.075  26.427  0.00  0.00    -0.051 Br
ATOM      2  C   UNK d   1      30.385  17.834  25.256  0.00  0.00     0.011 A 
ATOM      3  C   UNK d   1      29.578  16.813  25.697  0.00  0.00     0.030 A 
ATOM      4  C   UNK d   1      29.002  15.943  24.772  0.00  0.00    -0.002 A 
ATOM      5  C   UNK d   1      29.193  16.048  23.436  0.00  0.00     0.045 A 
ATOM      6  C   UNK d   1      30.012  17.087  22.987  0.00  0.00     0.031 A 
ATOM      7  C   UNK d   1      30.591  17.955  23.886  0.00  0.00     0.021 A 
ATOM      8  N   UNK d   1      28.499  15.047  22.716  0.00  0.00    -0.320 N 
ATOM      9  C   UNK d   1      27.818  14.246  23.654  0.00  0.00     0.247 A 
ATOM     10  O   UNK d   1      27.089  13.250  23.391  0.00  0.00    -0.271 OA
ATOM     11  C   UNK d   1      28.099  14.772  25.019  0.00  0.00     0.146 A 
ATOM     12  C   UNK d   1      28.812  13.754  25.830  0.00  0.00     0.071 A 
ATOM     13  C   UNK d   1      28.405  13.383  26.989  0.00  0.00     0.060 A 
ATOM     14  N   UNK d   1      27.208  13.926  27.613  0.00  0.00    -0.342 N 
ATOM     15  C   UNK d   1      26.520  14.897  26.852  0.00  0.00     0.118 A 
ATOM     16  C   UNK d   1      26.916  15.288  25.672  0.00  0.00     0.093 A 
ATOM     17  C   UNK d   1      26.103  16.297  25.005  0.00  0.00     0.101 C 
ATOM     18  N   UNK d   1      25.470  17.099  24.458  0.00  0.00    -0.191 NA
ATOM     19  C   UNK d   1      29.348  12.352  27.522  0.00  0.00     0.106 A 
ATOM     20  O   UNK d   1      30.309  12.195  26.546  0.00  0.00    -0.301 OA
ATOM     21  C   UNK d   1      30.064  13.007  25.481  0.00  0.00     0.294 A 
ATOM     22  O   UNK d   1      30.709  13.151  24.398  0.00  0.00    -0.259 OA
ATOM     23  C   UNK d   1      28.594  11.075  27.841  0.00  0.00     0.053 C 
ATOM     24  C   UNK d   1      30.033  12.853  28.781  0.00  0.00     0.053 C 
ATOM     25  C   UNK d   1      28.469  14.843  21.260  0.00  0.00     0.159 C 
ATOM     26  H   UNK d   1      26.925  13.591  28.550  0.00  0.00     0.167 HD
ENDROOT
BRANCH  15  27
ATOM     27  N   UNK d   1      25.316  15.475  27.426  0.00  0.00    -0.384 N 
ATOM     28  H   UNK d   1      25.316  16.504  27.580  0.00  0.00     0.157 HD
ATOM     29  H   UNK d   1      24.502  14.893  27.671  0.00  0.00     0.157 HD
ENDBRANCH  15  27
TORSDOF 1
ENDMDL
