MODEL 1
REMARK VINA RESULT:    -6.418      0.000      0.000
REMARK INTER + INTRA:          -7.250
REMARK INTER:                  -7.169
REMARK INTRA:                  -0.081
REMARK UNBOUND:                -0.081
REMARK  3 active torsions:
REMARK  status: ('A' for Active; 'I' for Inactive)
REMARK    1  A    between atoms: C_15  and  N_19 
REMARK    2  A    between atoms: C_23  and  C_25 
REMARK    3  A    between atoms: C_25  and  O_26 
ROOT
ATOM      1 Br   UNK d   1      29.739   3.996  33.282  0.00  0.00    -0.051 Br
ATOM      2  C   UNK d   1      28.775   3.543  31.705  0.00  0.00     0.011 A 
ATOM      3  C   UNK d   1      28.152   4.532  30.975  0.00  0.00     0.030 A 
ATOM      4  C   UNK d   1      27.437   4.225  29.812  0.00  0.00     0.000 A 
ATOM      5  C   UNK d   1      27.381   2.923  29.432  0.00  0.00     0.045 A 
ATOM      6  C   UNK d   1      28.018   1.912  30.181  0.00  0.00     0.031 A 
ATOM      7  C   UNK d   1      28.720   2.222  31.323  0.00  0.00     0.021 A 
ATOM      8  N   UNK d   1      26.614   2.824  28.239  0.00  0.00    -0.320 N 
ATOM      9  C   UNK d   1      26.172   4.102  27.851  0.00  0.00     0.249 A 
ATOM     10  O   UNK d   1      25.474   4.402  26.851  0.00  0.00    -0.271 OA
ATOM     11  C   UNK d   1      26.682   5.085  28.853  0.00  0.00     0.163 A 
ATOM     12  C   UNK d   1      25.574   5.777  29.520  0.00  0.00     0.119 A 
ATOM     13  C   UNK d   1      25.489   7.131  29.541  0.00  0.00     0.159 A 
ATOM     14  O   UNK d   1      26.470   7.908  28.916  0.00  0.00    -0.286 OA
ATOM     15  C   UNK d   1      27.533   7.305  28.274  0.00  0.00     0.161 A 
ATOM     16  C   UNK d   1      27.638   6.011  28.239  0.00  0.00     0.102 A 
ATOM     17  C   UNK d   1      28.801   5.456  27.533  0.00  0.00     0.101 C 
ATOM     18  N   UNK d   1      29.707   5.024  26.994  0.00  0.00    -0.191 NA
ATOM     19  C   UNK d   1      24.415   7.747  30.190  0.00  0.00     0.210 A 
ATOM     20  O   UNK d   1      24.349   8.994  30.201  0.00  0.00    -0.285 OA
ATOM     21  C   UNK d   1      23.459   6.970  30.799  0.00  0.00     0.092 A 
ATOM     22  C   UNK d   1      23.597   5.599  30.747  0.00  0.00     0.080 A 
ATOM     23  O   UNK d   1      24.609   5.086  30.133  0.00  0.00    -0.312 OA
ATOM     24  C   UNK d   1      26.355   1.544  27.552  0.00  0.00     0.159 C 
ENDROOT
BRANCH  15  25
ATOM     25  N   UNK d   1      28.502   8.167  27.655  0.00  0.00    -0.379 N 
ATOM     26  H   UNK d   1      28.764   7.991  26.687  0.00  0.00     0.158 HD
ATOM     27  H   UNK d   1      28.895   8.928  28.207  0.00  0.00     0.158 HD
ENDBRANCH  15  25
BRANCH  22  28
ATOM     28  C   UNK d   1      22.556   4.722  31.410  0.00  0.00     0.229 C 
BRANCH  28  29
ATOM     29  O   UNK d   1      21.385   4.753  30.653  0.00  0.00    -0.394 OA
ATOM     30  H   UNK d   1      20.772   4.023  30.968  0.00  0.00     0.209 HD
ENDBRANCH  28  29
ENDBRANCH  22  28
TORSDOF 3
ENDMDL
