/Users/jonathanwahrer/Desktop/Msc/3_Semester/Drug_Design_Praktikum/waehrer_HTS_screening/HTS_experiment/out/docking_results/vina_output/3elj/0505_docked.pdbqt
 OpenBabel03192217423D

 30 33  0  0  1  0  0  0  0  0999 V2000
   29.7390    3.9960   33.2820 Br  0  0  0  0  0  0  0  0  0  0  0  0
   28.7750    3.5430   31.7050 C   0  0  0  0  0  0  0  0  0  0  0  0
   28.1520    4.5320   30.9750 C   0  0  0  0  0  3  0  0  0  0  0  0
   27.4370    4.2250   29.8120 C   0  0  0  0  0  0  0  0  0  0  0  0
   27.3810    2.9230   29.4320 C   0  0  0  0  0  0  0  0  0  0  0  0
   28.0180    1.9120   30.1810 C   0  0  0  0  0  3  0  0  0  0  0  0
   28.7200    2.2220   31.3230 C   0  0  0  0  0  3  0  0  0  0  0  0
   26.6140    2.8240   28.2390 N   0  0  0  0  0  0  0  0  0  0  0  0
   26.1720    4.1020   27.8510 C   0  0  0  0  0  0  0  0  0  0  0  0
   25.4740    4.4020   26.8510 O   0  0  0  0  0  0  0  0  0  0  0  0
   26.6820    5.0850   28.8530 C   0  0  1  0  0  0  0  0  0  0  0  0
   25.5740    5.7770   29.5200 C   0  0  0  0  0  0  0  0  0  0  0  0
   25.4890    7.1310   29.5410 C   0  0  0  0  0  0  0  0  0  0  0  0
   26.4700    7.9080   28.9160 O   0  0  0  0  0  0  0  0  0  0  0  0
   27.5330    7.3050   28.2740 C   0  0  0  0  0  0  0  0  0  0  0  0
   27.6380    6.0110   28.2390 C   0  0  0  0  0  0  0  0  0  0  0  0
   28.8010    5.4560   27.5330 C   0  0  0  0  0  0  0  0  0  0  0  0
   29.7070    5.0240   26.9940 N   0  0  0  0  0  0  0  0  0  0  0  0
   24.4150    7.7470   30.1900 C   0  0  0  0  0  0  0  0  0  0  0  0
   24.3490    8.9940   30.2010 O   0  0  0  0  0  0  0  0  0  0  0  0
   23.4590    6.9700   30.7990 C   0  0  0  0  0  3  0  0  0  0  0  0
   23.5970    5.5990   30.7470 C   0  0  0  0  0  0  0  0  0  0  0  0
   24.6090    5.0860   30.1330 O   0  0  0  0  0  0  0  0  0  0  0  0
   26.3550    1.5440   27.5520 C   0  0  0  0  0  1  0  0  0  0  0  0
   28.5020    8.1670   27.6550 N   0  0  0  0  0  0  0  0  0  0  0  0
   28.7640    7.9910   26.6870 H   0  0  0  0  0  0  0  0  0  0  0  0
   28.8950    8.9280   28.2070 H   0  0  0  0  0  0  0  0  0  0  0  0
   22.5560    4.7220   31.4100 C   0  0  0  0  0  2  0  0  0  0  0  0
   21.3850    4.7530   30.6530 O   0  0  0  0  0  0  0  0  0  0  0  0
   20.7720    4.0230   30.9680 H   0  0  0  0  0  0  0  0  0  0  0  0
  2  1  1  0  0  0  0
  3  2  2  0  0  0  0
  4  3  1  0  0  0  0
  5  4  2  0  0  0  0
  5  6  1  0  0  0  0
  6  7  2  0  0  0  0
  7  2  1  0  0  0  0
  8  5  1  0  0  0  0
  9  8  1  0  0  0  0
 10  9  2  0  0  0  0
 11  9  1  6  0  0  0
 11 12  1  0  0  0  0
 11  4  1  0  0  0  0
 12 13  2  0  0  0  0
 12 23  1  0  0  0  0
 13 19  1  0  0  0  0
 14 13  1  0  0  0  0
 15 14  1  0  0  0  0
 16 15  2  0  0  0  0
 16 11  1  0  0  0  0
 17 16  1  0  0  0  0
 18 17  3  0  0  0  0
 19 20  2  0  0  0  0
 19 21  1  0  0  0  0
 22 21  2  0  0  0  0
 22 28  1  0  0  0  0
 23 22  1  0  0  0  0
 24  8  1  0  0  0  0
 25 27  1  0  0  0  0
 25 15  1  0  0  0  0
 26 25  1  0  0  0  0
 29 30  1  0  0  0  0
 29 28  1  0  0  0  0
M  END
>  <Pose>
1

>  <Score>
-6.418

$$$$
