MODEL 1
REMARK VINA RESULT:    -8.451      0.000      0.000
REMARK INTER + INTRA:          -9.900
REMARK INTER:                  -9.439
REMARK INTRA:                  -0.462
REMARK UNBOUND:                -0.462
REMARK  2 active torsions:
REMARK  status: ('A' for Active; 'I' for Inactive)
REMARK    1  A    between atoms: N_18  and  C_21 
REMARK    2  A    between atoms: C_21  and  C_22 
ROOT
ATOM      1 Br   UNK d   1      24.519   3.076  32.445  0.00  0.00    -0.051 Br
ATOM      2  C   UNK d   1      24.193   4.609  31.357  0.00  0.00     0.011 A 
ATOM      3  C   UNK d   1      23.377   5.653  31.776  0.00  0.00     0.031 A 
ATOM      4  C   UNK d   1      23.148   6.750  30.991  0.00  0.00     0.019 A 
ATOM      5  C   UNK d   1      23.765   6.782  29.749  0.00  0.00     0.044 A 
ATOM      6  C   UNK d   1      24.576   5.749  29.326  0.00  0.00     0.031 A 
ATOM      7  C   UNK d   1      24.798   4.652  30.125  0.00  0.00     0.021 A 
ATOM      8  N   UNK d   1      23.427   7.989  29.062  0.00  0.00    -0.324 N 
ATOM      9  C   UNK d   1      22.570   8.752  29.885  0.00  0.00     0.267 A 
ATOM     10  O   UNK d   1      22.104   9.857  29.574  0.00  0.00    -0.270 OA
ATOM     11  C   UNK d   1      22.368   7.977  31.128  0.00  0.00     0.281 A 
ATOM     12  N   UNK d   1      20.956   7.810  31.298  0.00  0.00     0.118 N 
ATOM     13  C   UNK d   1      20.498   9.117  31.766  0.00  0.00     0.239 C 
ATOM     14  C   UNK d   1      21.614   9.688  32.578  0.00  0.00     0.128 C 
ATOM     15  C   UNK d   1      22.754   8.754  32.362  0.00  0.00     0.147 C 
ATOM     16  C   UNK d   1      23.916   9.616  32.170  0.00  0.00     0.235 C 
ATOM     17  O   UNK d   1      25.109   9.246  32.099  0.00  0.00    -0.272 OA
ATOM     18  N   UNK d   1      23.494  10.953  32.071  0.00  0.00    -0.285 N 
ATOM     19  C   UNK d   1      22.060  11.026  32.074  0.00  0.00     0.233 C 
ATOM     20  O   UNK d   1      21.316  11.980  31.735  0.00  0.00    -0.272 OA
ATOM     21  C   UNK d   1      19.331   8.829  32.698  0.00  0.00     0.038 C 
ATOM     22  C   UNK d   1      19.148   7.325  32.685  0.00  0.00     0.032 C 
ATOM     23  C   UNK d   1      20.576   6.880  32.341  0.00  0.00     0.275 C 
ATOM     24  H   UNK d   1      23.775   8.248  28.092  0.00  0.00     0.169 HD
ENDROOT
BRANCH  18  25
ATOM     25  C   UNK d   1      24.343  12.099  31.980  0.00  0.00     0.166 C 
BRANCH  25  26
ATOM     26  C   UNK d   1      24.687  12.526  30.600  0.00  0.00     0.140 C 
ATOM     27  O   UNK d   1      23.665  13.208  29.951  0.00  0.00    -0.384 OA
ATOM     28  C   UNK d   1      24.106  13.289  28.637  0.00  0.00     0.168 C 
ATOM     29  C   UNK d   1      24.828  12.019  28.308  0.00  0.00     0.029 C 
ATOM     30  C   UNK d   1      25.149  11.442  29.686  0.00  0.00     0.035 C 
ENDBRANCH  25  26
ENDBRANCH  18  25
TORSDOF 2
ENDMDL
