/Users/jonathanwahrer/Desktop/Msc/3_Semester/Drug_Design_Praktikum/waehrer_HTS_screening/HTS_experiment/out/docking_results/vina_output/3elj/0556_docked.pdbqt
 OpenBabel03192217423D

 30 33  0  0  1  0  0  0  0  0999 V2000
   32.0230   18.1610   21.8790 Br  0  0  0  0  0  0  0  0  0  0  0  0
   31.3950   16.6310   22.8280 C   0  0  0  0  0  0  0  0  0  0  0  0
   30.0390   16.4130   22.8400 C   0  0  0  0  0  3  0  0  0  0  0  0
   29.5290   15.3040   23.5220 C   0  0  0  0  0  0  0  0  0  0  0  0
   30.3860   14.4670   24.1600 C   0  0  0  0  0  0  0  0  0  0  0  0
   31.7790   14.6710   24.1600 C   0  0  0  0  0  3  0  0  0  0  0  0
   32.2510   15.7700   23.4810 C   0  0  0  0  0  3  0  0  0  0  0  0
   29.6820   13.4150   24.7930 N   0  0  0  0  0  0  0  0  0  0  0  0
   28.3220   13.6060   24.5390 C   0  0  0  0  0  0  0  0  0  0  0  0
   27.3420   12.8700   24.9460 O   0  0  0  0  0  0  0  0  0  0  0  0
   28.1660   14.8290   23.6970 C   0  0  2  0  0  0  0  0  0  0  0  0
   27.4630   14.4100   22.5130 C   0  0  0  0  0  0  0  0  0  0  0  0
   26.2100   14.8260   22.2570 C   0  0  0  0  0  0  0  0  0  0  0  0
   25.8340   14.2530   21.0670 N   0  0  0  0  0  0  0  0  0  0  0  0
   26.8310   13.5170   20.6240 N   0  0  0  0  0  0  0  0  0  0  0  0
   27.8690   13.5640   21.4600 C   0  0  0  0  0  0  0  0  0  0  0  0
   29.1900   12.8830   21.3430 C   0  0  0  0  0  1  0  0  0  0  0  0
   25.4920   15.6880   23.1070 O   0  0  0  0  0  0  0  0  0  0  0  0
   26.1540   16.1040   24.2560 C   0  0  0  0  0  0  0  0  0  0  0  0
   27.3620   15.7350   24.5540 C   0  0  0  0  0  0  0  0  0  0  0  0
   30.0770   12.6130   25.3620 H   0  0  0  0  0  0  0  0  0  0  0  0
   24.9100   14.3810   20.5950 H   0  0  0  0  0  0  0  0  0  0  0  0
   27.9820   16.2400   25.8130 C   0  0  0  0  0  0  0  0  0  0  0  0
   27.7550   15.6150   26.8640 O   0  0  0  0  0  0  0  0  0  0  0  0
   28.7820   17.3490   25.8620 O   0  0  0  0  0  0  0  0  0  0  0  0
   30.0530   17.3960   26.4660 C   0  0  0  0  0  2  0  0  0  0  0  0
   30.7760   18.6240   25.9050 C   0  0  0  0  0  1  0  0  0  0  0  0
   25.4830   16.9910   25.1790 N   0  0  0  0  0  0  0  0  0  0  0  0
   25.1350   17.8840   24.8210 H   0  0  0  0  0  0  0  0  0  0  0  0
   25.3720   16.7070   26.1530 H   0  0  0  0  0  0  0  0  0  0  0  0
  1  2  1  0  0  0  0
  2  3  2  0  0  0  0
  2  7  1  0  0  0  0
  3  4  1  0  0  0  0
  4 11  1  0  0  0  0
  4  5  2  0  0  0  0
  5  6  1  0  0  0  0
  5  8  1  0  0  0  0
  7  6  2  0  0  0  0
  8 21  1  0  0  0  0
  9  8  1  0  0  0  0
  9 10  2  0  0  0  0
 11 12  1  6  0  0  0
 11  9  1  0  0  0  0
 11 20  1  0  0  0  0
 13 12  2  0  0  0  0
 13 18  1  0  0  0  0
 14 13  1  0  0  0  0
 15 14  1  0  0  0  0
 15 16  2  0  0  0  0
 16 12  1  0  0  0  0
 17 16  1  0  0  0  0
 18 19  1  0  0  0  0
 19 20  2  0  0  0  0
 19 28  1  0  0  0  0
 20 23  1  0  0  0  0
 22 14  1  0  0  0  0
 23 25  1  0  0  0  0
 23 24  2  0  0  0  0
 25 26  1  0  0  0  0
 27 26  1  0  0  0  0
 28 30  1  0  0  0  0
 29 28  1  0  0  0  0
M  END
>  <Pose>
1

>  <Score>
-5.478

$$$$
