MODEL 1
REMARK VINA RESULT:    -6.180      0.000      0.000
REMARK INTER + INTRA:          -6.361
REMARK INTER:                  -6.361
REMARK INTRA:                   0.000
REMARK UNBOUND:                 0.000
REMARK  1 active torsions:
REMARK  status: ('A' for Active; 'I' for Inactive)
REMARK    1  A    between atoms: C_15  and  N_19 
ROOT
ATOM      1 Br   UNK d   1      31.509  18.864  26.808  0.00  0.00    -0.051 Br
ATOM      2  C   UNK d   1      30.580  17.876  25.479  0.00  0.00     0.011 A 
ATOM      3  C   UNK d   1      29.635  16.898  25.804  0.00  0.00     0.030 A 
ATOM      4  C   UNK d   1      28.968  16.191  24.839  0.00  0.00    -0.002 A 
ATOM      5  C   UNK d   1      29.232  16.443  23.525  0.00  0.00     0.043 A 
ATOM      6  C   UNK d   1      30.171  17.413  23.147  0.00  0.00     0.031 A 
ATOM      7  C   UNK d   1      30.823  18.107  24.138  0.00  0.00     0.021 A 
ATOM      8  N   UNK d   1      28.447  15.614  22.684  0.00  0.00    -0.325 N 
ATOM      9  C   UNK d   1      27.654  14.803  23.515  0.00  0.00     0.246 A 
ATOM     10  O   UNK d   1      26.817  13.927  23.172  0.00  0.00    -0.271 OA
ATOM     11  C   UNK d   1      27.948  15.131  24.928  0.00  0.00     0.146 A 
ATOM     12  C   UNK d   1      28.498  13.919  25.618  0.00  0.00     0.071 A 
ATOM     13  C   UNK d   1      28.007  13.376  26.701  0.00  0.00     0.060 A 
ATOM     14  N   UNK d   1      26.862  13.967  27.286  0.00  0.00    -0.342 N 
ATOM     15  C   UNK d   1      26.271  15.117  26.703  0.00  0.00     0.118 A 
ATOM     16  C   UNK d   1      26.760  15.664  25.617  0.00  0.00     0.093 A 
ATOM     17  C   UNK d   1      26.090  16.852  25.079  0.00  0.00     0.101 C 
ATOM     18  N   UNK d   1      25.570  17.785  24.636  0.00  0.00    -0.191 NA
ATOM     19  C   UNK d   1      28.839  12.201  27.057  0.00  0.00     0.106 A 
ATOM     20  O   UNK d   1      29.854  12.107  26.090  0.00  0.00    -0.301 OA
ATOM     21  C   UNK d   1      29.675  13.142  25.194  0.00  0.00     0.294 A 
ATOM     22  O   UNK d   1      30.416  13.371  24.177  0.00  0.00    -0.259 OA
ATOM     23  C   UNK d   1      28.026  10.909  26.952  0.00  0.00     0.053 C 
ATOM     24  C   UNK d   1      29.414  12.341  28.459  0.00  0.00     0.053 C 
ATOM     25  H   UNK d   1      28.470  15.620  21.617  0.00  0.00     0.169 HD
ATOM     26  H   UNK d   1      26.424  13.573  28.158  0.00  0.00     0.167 HD
ENDROOT
BRANCH  15  27
ATOM     27  N   UNK d   1      25.095  15.706  27.322  0.00  0.00    -0.384 N 
ATOM     28  H   UNK d   1      25.034  15.928  28.329  0.00  0.00     0.157 HD
ATOM     29  H   UNK d   1      24.285  15.910  26.715  0.00  0.00     0.157 HD
ENDBRANCH  15  27
TORSDOF 1
ENDMDL
