MODEL 1
REMARK VINA RESULT:    -7.222      0.000      0.000
REMARK INTER + INTRA:          -8.368
REMARK INTER:                  -8.489
REMARK INTRA:                   0.121
REMARK UNBOUND:                 0.121
REMARK  3 active torsions:
REMARK  status: ('A' for Active; 'I' for Inactive)
REMARK    1  A    between atoms: C_13  and  C_25 
REMARK    2  A    between atoms: N_18  and  C_21 
REMARK    3  A    between atoms: C_25  and  C_26 
REMARK       I    between atoms: C_26  and  N_28 
ROOT
ATOM      1 Br   UNK d   1      28.739   2.076  32.850  0.00  0.00    -0.051 Br
ATOM      2  C   UNK d   1      26.888   2.522  32.605  0.00  0.00     0.011 A 
ATOM      3  C   UNK d   1      26.496   3.604  31.839  0.00  0.00     0.031 A 
ATOM      4  C   UNK d   1      25.169   3.933  31.657  0.00  0.00     0.019 A 
ATOM      5  C   UNK d   1      24.245   3.122  32.282  0.00  0.00     0.044 A 
ATOM      6  C   UNK d   1      24.635   2.032  33.054  0.00  0.00     0.031 A 
ATOM      7  C   UNK d   1      25.952   1.729  33.217  0.00  0.00     0.021 A 
ATOM      8  N   UNK d   1      22.927   3.613  31.991  0.00  0.00    -0.324 N 
ATOM      9  C   UNK d   1      23.032   4.760  31.165  0.00  0.00     0.267 A 
ATOM     10  O   UNK d   1      22.051   5.419  30.749  0.00  0.00    -0.270 OA
ATOM     11  C   UNK d   1      24.467   5.002  30.909  0.00  0.00     0.279 A 
ATOM     12  N   UNK d   1      24.854   6.320  31.336  0.00  0.00     0.114 N 
ATOM     13  C   UNK d   1      24.427   7.177  30.250  0.00  0.00     0.245 C 
ATOM     14  C   UNK d   1      24.820   6.408  29.016  0.00  0.00     0.128 C 
ATOM     15  C   UNK d   1      24.715   4.963  29.443  0.00  0.00     0.147 C 
ATOM     16  C   UNK d   1      25.980   4.342  29.028  0.00  0.00     0.235 C 
ATOM     17  O   UNK d   1      26.271   3.120  29.077  0.00  0.00    -0.272 OA
ATOM     18  N   UNK d   1      26.884   5.357  28.535  0.00  0.00    -0.279 N 
ATOM     19  C   UNK d   1      26.233   6.614  28.630  0.00  0.00     0.234 C 
ATOM     20  O   UNK d   1      26.794   7.714  28.414  0.00  0.00    -0.272 OA
ATOM     21  H   UNK d   1      22.059   3.163  32.354  0.00  0.00     0.169 HD
ATOM     22  H   UNK d   1      25.884   6.362  31.402  0.00  0.00     0.318 HD
ENDROOT
BRANCH  13  23
ATOM     23  C   UNK d   1      25.085   8.526  30.356  0.00  0.00     0.139 C 
BRANCH  23  24
ATOM     24  C   UNK d   1      24.407   9.367  31.356  0.00  0.00     0.217 C 
ATOM     25  O   UNK d   1      23.388   8.909  31.941  0.00  0.00    -0.274 OA
ATOM     26  N   UNK d   1      24.817  10.675  31.721  0.00  0.00    -0.370 N 
ATOM     27  H   UNK d   1      25.063  11.428  31.063  0.00  0.00     0.159 HD
ATOM     28  H   UNK d   1      24.871  10.885  32.753  0.00  0.00     0.159 HD
ENDBRANCH  23  24
ENDBRANCH  13  23
BRANCH  18  29
ATOM     29  C   UNK d   1      28.219   5.153  28.031  0.00  0.00     0.032 C 
ATOM     30  C   UNK d   1      28.532   6.071  26.874  0.00  0.00     0.038 C 
ATOM     31  C   UNK d   1      29.219   5.395  29.165  0.00  0.00     0.038 C 
ATOM     32  C   UNK d   1      28.396   3.734  27.536  0.00  0.00     0.038 C 
ENDBRANCH  18  29
TORSDOF 3
ENDMDL
