/Users/jonathanwahrer/Desktop/Msc/3_Semester/Drug_Design_Praktikum/waehrer_HTS_screening/HTS_experiment/out/docking_results/vina_output/3elj/0559_docked.pdbqt
 OpenBabel03192217433D

 32 35  0  0  1  0  0  0  0  0999 V2000
   28.7390    2.0760   32.8500 Br  0  0  0  0  0  0  0  0  0  0  0  0
   26.8880    2.5220   32.6050 C   0  0  0  0  0  0  0  0  0  0  0  0
   26.4960    3.6040   31.8390 C   0  0  0  0  0  3  0  0  0  0  0  0
   25.1690    3.9330   31.6570 C   0  0  0  0  0  0  0  0  0  0  0  0
   24.2450    3.1220   32.2820 C   0  0  0  0  0  0  0  0  0  0  0  0
   24.6350    2.0320   33.0540 C   0  0  0  0  0  3  0  0  0  0  0  0
   25.9520    1.7290   33.2170 C   0  0  0  0  0  3  0  0  0  0  0  0
   22.9270    3.6130   31.9910 N   0  0  0  0  0  0  0  0  0  0  0  0
   23.0320    4.7600   31.1650 C   0  0  0  0  0  0  0  0  0  0  0  0
   22.0510    5.4190   30.7490 O   0  0  0  0  0  0  0  0  0  0  0  0
   24.4670    5.0020   30.9090 C   0  0  1  0  0  0  0  0  0  0  0  0
   24.8540    6.3200   31.3360 N   0  0  0  0  0  0  0  0  0  0  0  0
   24.4270    7.1770   30.2500 C   0  0  2  0  0  3  0  0  0  0  0  0
   24.8200    6.4080   29.0160 C   0  0  2  0  0  3  0  0  0  0  0  0
   24.7150    4.9630   29.4430 C   0  0  1  0  0  3  0  0  0  0  0  0
   25.9800    4.3420   29.0280 C   0  0  0  0  0  0  0  0  0  0  0  0
   26.2710    3.1200   29.0770 O   0  0  0  0  0  0  0  0  0  0  0  0
   26.8840    5.3570   28.5350 N   0  0  0  0  0  0  0  0  0  0  0  0
   26.2330    6.6140   28.6300 C   0  0  0  0  0  0  0  0  0  0  0  0
   26.7940    7.7140   28.4140 O   0  0  0  0  0  0  0  0  0  0  0  0
   22.0590    3.1630   32.3540 H   0  0  0  0  0  0  0  0  0  0  0  0
   25.8840    6.3620   31.4020 H   0  0  0  0  0  0  0  0  0  0  0  0
   25.0850    8.5260   30.3560 C   0  0  0  0  0  2  0  0  0  0  0  0
   24.4070    9.3670   31.3560 C   0  0  0  0  0  0  0  0  0  0  0  0
   23.3880    8.9090   31.9410 O   0  0  0  0  0  0  0  0  0  0  0  0
   24.8170   10.6750   31.7210 N   0  0  0  0  0  0  0  0  0  0  0  0
   25.0630   11.4280   31.0630 H   0  0  0  0  0  0  0  0  0  0  0  0
   24.8710   10.8850   32.7530 H   0  0  0  0  0  0  0  0  0  0  0  0
   28.2190    5.1530   28.0310 C   0  0  0  0  0  0  0  0  0  0  0  0
   28.5320    6.0710   26.8740 C   0  0  0  0  0  1  0  0  0  0  0  0
   29.2190    5.3950   29.1650 C   0  0  0  0  0  1  0  0  0  0  0  0
   28.3960    3.7340   27.5360 C   0  0  0  0  0  1  0  0  0  0  0  0
  2  1  1  0  0  0  0
  2  7  1  0  0  0  0
  3  2  2  0  0  0  0
  4  3  1  0  0  0  0
  4  5  2  0  0  0  0
  5  6  1  0  0  0  0
  6  7  2  0  0  0  0
  8  5  1  0  0  0  0
  8 21  1  0  0  0  0
  9  8  1  0  0  0  0
 10  9  2  0  0  0  0
 11  9  1  1  0  0  0
 11 12  1  0  0  0  0
 11  4  1  0  0  0  0
 12 22  1  0  0  0  0
 13 23  1  1  0  0  0
 13 12  1  0  0  0  0
 14 19  1  1  0  0  0
 14 15  1  0  0  0  0
 14 13  1  0  0  0  0
 15 16  1  1  0  0  0
 15 11  1  0  0  0  0
 16 17  2  0  0  0  0
 18 19  1  0  0  0  0
 18 16  1  0  0  0  0
 20 19  2  0  0  0  0
 23 24  1  0  0  0  0
 24 26  1  0  0  0  0
 24 25  2  0  0  0  0
 26 28  1  0  0  0  0
 27 26  1  0  0  0  0
 29 18  1  0  0  0  0
 29 31  1  0  0  0  0
 30 29  1  0  0  0  0
 32 29  1  0  0  0  0
M  END
>  <Pose>
1

>  <Score>
-7.222

$$$$
