/Users/jonathanwahrer/Desktop/Msc/3_Semester/Drug_Design_Praktikum/waehrer_HTS_screening/HTS_experiment/out/docking_results/vina_output/3elj/0566_docked.pdbqt
 OpenBabel03192217433D

 30 33  0  0  1  0  0  0  0  0999 V2000
   27.4080    1.4010   33.7630 Br  0  0  0  0  0  0  0  0  0  0  0  0
   25.8270    2.2800   33.1560 C   0  0  0  0  0  0  0  0  0  0  0  0
   25.8750    3.1670   32.1110 C   0  0  0  0  0  3  0  0  0  0  0  0
   24.7150    3.8210   31.6560 C   0  0  0  0  0  0  0  0  0  0  0  0
   23.5000    3.5960   32.2400 C   0  0  0  0  0  0  0  0  0  0  0  0
   23.4520    2.6890   33.3080 C   0  0  0  0  0  3  0  0  0  0  0  0
   24.5970    2.0610   33.7370 C   0  0  0  0  0  3  0  0  0  0  0  0
   22.4840    4.3650   31.6120 N   0  0  0  0  0  0  0  0  0  0  0  0
   23.0980    5.1120   30.5800 C   0  0  0  0  0  0  0  0  0  0  0  0
   22.4360    5.9040   29.8310 O   0  0  0  0  0  0  0  0  0  0  0  0
   24.5180    4.8030   30.5660 C   0  0  2  0  0  0  0  0  0  0  0  0
   24.9900    4.3010   29.2900 N   0  0  0  0  0  0  0  0  0  0  0  0
   25.3850    5.4710   28.5290 C   0  0  1  0  0  3  0  0  0  0  0  0
   26.0790    6.3010   29.5700 C   0  0  2  0  0  3  0  0  0  0  0  0
   25.3100    6.0670   30.8260 C   0  0  1  0  0  3  0  0  0  0  0  0
   24.4580    7.2530   31.0010 C   0  0  0  0  0  0  0  0  0  0  0  0
   23.4400    7.4010   31.7550 O   0  0  0  0  0  0  0  0  0  0  0  0
   24.9310    8.3050   30.1690 N   0  0  0  0  0  0  0  0  0  0  0  0
   25.9280    7.7530   29.3330 C   0  0  0  0  0  0  0  0  0  0  0  0
   26.6260    8.3830   28.4810 O   0  0  0  0  0  0  0  0  0  0  0  0
   21.4740    4.3430   31.9050 H   0  0  0  0  0  0  0  0  0  0  0  0
   24.2850    3.7190   28.8020 H   0  0  0  0  0  0  0  0  0  0  0  0
   26.2830    5.0510   27.4090 C   0  0  1  0  0  3  0  0  0  0  0  0
   27.0370    3.8000   27.7880 C   0  0  0  0  0  1  0  0  0  0  0  0
   25.4760    4.7290   26.3110 O   0  0  0  0  0  0  0  0  0  0  0  0
   24.5420    5.0280   26.4590 H   0  0  0  0  0  0  0  0  0  0  0  0
   24.4830    9.6840   30.1720 C   0  0  0  0  0  2  0  0  0  0  0  0
   23.1880    9.8640   29.4480 C   0  0  0  0  0  2  0  0  0  0  0  0
   22.3620   10.8680   30.2620 C   0  0  0  0  0  2  0  0  0  0  0  0
   22.8040   10.8690   31.6990 C   0  0  0  0  0  1  0  0  0  0  0  0
  2  7  1  0  0  0  0
  2  1  1  0  0  0  0
  3  2  2  0  0  0  0
  4  3  1  0  0  0  0
  4  5  2  0  0  0  0
  5  6  1  0  0  0  0
  6  7  2  0  0  0  0
  8 21  1  0  0  0  0
  8  5  1  0  0  0  0
  9  8  1  0  0  0  0
 10  9  2  0  0  0  0
 11  9  1  6  0  0  0
 11 15  1  0  0  0  0
 11  4  1  0  0  0  0
 12 11  1  0  0  0  0
 13 23  1  6  0  0  0
 13 12  1  0  0  0  0
 13 14  1  0  0  0  0
 14 19  1  6  0  0  0
 14 15  1  0  0  0  0
 15 16  1  6  0  0  0
 16 17  2  0  0  0  0
 18 27  1  0  0  0  0
 18 16  1  0  0  0  0
 19 18  1  0  0  0  0
 20 19  2  0  0  0  0
 22 12  1  0  0  0  0
 23 24  1  1  0  0  0
 25 26  1  0  0  0  0
 25 23  1  0  0  0  0
 28 27  1  0  0  0  0
 28 29  1  0  0  0  0
 29 30  1  0  0  0  0
M  END
>  <Pose>
1

>  <Score>
-7.022

$$$$
