MODEL 1
REMARK VINA RESULT:    -7.738      0.000      0.000
REMARK INTER + INTRA:         -10.389
REMARK INTER:                  -9.774
REMARK INTRA:                  -0.615
REMARK UNBOUND:                -0.615
REMARK  5 active torsions:
REMARK  status: ('A' for Active; 'I' for Inactive)
REMARK    1  A    between atoms: C_13  and  C_29 
REMARK    2  A    between atoms: N_18  and  C_21 
REMARK    3  A    between atoms: C_21  and  C_22 
REMARK    4  A    between atoms: C_22  and  C_23 
REMARK    5  A    between atoms: C_29  and  O_30 
ROOT
ATOM      1 Br   UNK d   1      30.800   5.836  31.921  0.00  0.00    -0.051 Br
ATOM      2  C   UNK d   1      30.289   6.206  30.119  0.00  0.00     0.011 A 
ATOM      3  C   UNK d   1      29.310   5.493  29.464  0.00  0.00     0.031 A 
ATOM      4  C   UNK d   1      28.943   5.765  28.137  0.00  0.00     0.019 A 
ATOM      5  C   UNK d   1      29.603   6.786  27.498  0.00  0.00     0.044 A 
ATOM      6  C   UNK d   1      30.590   7.509  28.152  0.00  0.00     0.031 A 
ATOM      7  C   UNK d   1      30.942   7.233  29.454  0.00  0.00     0.021 A 
ATOM      8  N   UNK d   1      29.141   6.934  26.169  0.00  0.00    -0.324 N 
ATOM      9  C   UNK d   1      28.142   5.961  25.957  0.00  0.00     0.267 A 
ATOM     10  O   UNK d   1      27.535   5.840  24.856  0.00  0.00    -0.270 OA
ATOM     11  C   UNK d   1      27.980   5.182  27.202  0.00  0.00     0.279 A 
ATOM     12  N   UNK d   1      28.274   3.766  26.962  0.00  0.00     0.116 N 
ATOM     13  C   UNK d   1      27.407   3.032  27.855  0.00  0.00     0.264 C 
ATOM     14  C   UNK d   1      26.225   3.872  28.143  0.00  0.00     0.130 C 
ATOM     15  C   UNK d   1      26.550   5.247  27.590  0.00  0.00     0.147 C 
ATOM     16  C   UNK d   1      26.168   6.190  28.635  0.00  0.00     0.234 C 
ATOM     17  O   UNK d   1      26.383   7.427  28.640  0.00  0.00    -0.272 OA
ATOM     18  N   UNK d   1      25.487   5.498  29.704  0.00  0.00    -0.287 N 
ATOM     19  C   UNK d   1      25.940   4.135  29.568  0.00  0.00     0.233 C 
ATOM     20  O   UNK d   1      26.061   3.333  30.507  0.00  0.00    -0.272 OA
ATOM     21  H   UNK d   1      29.483   7.647  25.467  0.00  0.00     0.169 HD
ATOM     22  H   UNK d   1      29.281   3.549  27.143  0.00  0.00     0.318 HD
ENDROOT
BRANCH  13  23
ATOM     23  C   UNK d   1      27.069   1.683  27.266  0.00  0.00     0.148 C 
ATOM     24  C   UNK d   1      26.307   0.809  28.231  0.00  0.00     0.041 C 
BRANCH  23  25
ATOM     25  O   UNK d   1      28.216   1.075  26.792  0.00  0.00    -0.394 OA
ATOM     26  H   UNK d   1      28.872   1.717  26.463  0.00  0.00     0.210 HD
ENDBRANCH  23  25
ENDBRANCH  13  23
BRANCH  18  27
ATOM     27  C   UNK d   1      24.555   6.003  30.660  0.00  0.00     0.139 C 
BRANCH  27  28
ATOM     28  C   UNK d   1      23.138   5.528  30.518  0.00  0.00     0.059 C 
BRANCH  28  29
ATOM     29  C   UNK d   1      22.134   6.346  31.220  0.00  0.00    -0.057 A 
ATOM     30  C   UNK d   1      22.286   7.726  31.260  0.00  0.00     0.007 A 
ATOM     31  C   UNK d   1      21.356   8.491  31.880  0.00  0.00     0.001 A 
ATOM     32  C   UNK d   1      20.251   7.962  32.482  0.00  0.00     0.000 A 
ATOM     33  C   UNK d   1      20.108   6.584  32.435  0.00  0.00     0.001 A 
ATOM     34  C   UNK d   1      21.032   5.792  31.817  0.00  0.00     0.007 A 
ENDBRANCH  28  29
ENDBRANCH  27  28
ENDBRANCH  18  27
TORSDOF 5
ENDMDL
