MODEL 1
REMARK VINA RESULT:    -7.887      0.000      0.000
REMARK INTER + INTRA:          -7.887
REMARK INTER:                  -7.887
REMARK INTRA:                   0.000
REMARK UNBOUND:                 0.000
REMARK  0 active torsions:
REMARK  status: ('A' for Active; 'I' for Inactive)
ROOT
ATOM      1 Br   UNK d   1      26.570   2.537  30.986  0.00  0.00    -0.051 Br
ATOM      2  C   UNK d   1      25.044   3.647  31.248  0.00  0.00     0.012 A 
ATOM      3  C   UNK d   1      24.883   4.730  30.433  0.00  0.00     0.038 A 
ATOM      4  C   UNK d   1      23.783   5.554  30.601  0.00  0.00     0.062 A 
ATOM      5  C   UNK d   1      22.848   5.282  31.592  0.00  0.00     0.078 A 
ATOM      6  C   UNK d   1      22.996   4.191  32.424  0.00  0.00     0.034 A 
ATOM      7  C   UNK d   1      24.105   3.400  32.220  0.00  0.00     0.021 A 
ATOM      8  N   UNK d   1      21.690   6.049  31.855  0.00  0.00    -0.195 N 
ATOM      9  N   UNK d   1      20.637   5.515  32.485  0.00  0.00    -0.039 NA
ATOM     10  N   UNK d   1      19.749   6.468  32.571  0.00  0.00    -0.023 NA
ATOM     11  N   UNK d   1      20.209   7.579  32.019  0.00  0.00    -0.111 NA
ATOM     12  C   UNK d   1      21.464   7.316  31.553  0.00  0.00     0.182 A 
ATOM     13  C   UNK d   1      22.287   8.367  30.862  0.00  0.00     0.102 C 
ATOM     14  N   UNK d   1      22.972   7.806  29.700  0.00  0.00    -0.340 N 
ATOM     15  C   UNK d   1      23.801   6.652  29.627  0.00  0.00     0.255 C 
ATOM     16  O   UNK d   1      24.610   6.562  28.662  0.00  0.00    -0.268 OA
ATOM     17  C   UNK d   1      23.365   8.759  31.835  0.00  0.00     0.076 C 
ATOM     18  C   UNK d   1      23.912  10.101  31.470  0.00  0.00     0.056 C 
ATOM     19  O   UNK d   1      22.889  11.004  31.593  0.00  0.00    -0.381 OA
ATOM     20  C   UNK d   1      21.856  10.852  30.708  0.00  0.00     0.171 C 
ATOM     21  C   UNK d   1      21.404   9.482  30.435  0.00  0.00     0.066 C 
ATOM     22  C   UNK d   1      24.985  10.504  32.489  0.00  0.00     0.045 C 
ATOM     23  C   UNK d   1      24.580  10.129  30.122  0.00  0.00     0.045 C 
ATOM     24  H   UNK d   1      22.847   8.315  28.773  0.00  0.00     0.164 HD
ENDROOT
TORSDOF 0
ENDMDL
