/Users/jonathanwahrer/Desktop/Msc/3_Semester/Drug_Design_Praktikum/waehrer_HTS_screening/HTS_experiment/out/docking_results/vina_output/3elj/0588_docked.pdbqt
 OpenBabel03192217443D

 24 27  0  0  1  0  0  0  0  0999 V2000
   26.5700    2.5370   30.9860 Br  0  0  0  0  0  0  0  0  0  0  0  0
   25.0440    3.6470   31.2480 C   0  0  0  0  0  0  0  0  0  0  0  0
   24.8830    4.7300   30.4330 C   0  0  0  0  0  3  0  0  0  0  0  0
   23.7830    5.5540   30.6010 C   0  0  0  0  0  0  0  0  0  0  0  0
   22.8480    5.2820   31.5920 C   0  0  0  0  0  0  0  0  0  0  0  0
   22.9960    4.1910   32.4240 C   0  0  0  0  0  3  0  0  0  0  0  0
   24.1050    3.4000   32.2200 C   0  0  0  0  0  3  0  0  0  0  0  0
   21.6900    6.0490   31.8550 N   0  0  0  0  0  0  0  0  0  0  0  0
   20.6370    5.5150   32.4850 N   0  0  0  0  0  0  0  0  0  0  0  0
   19.7490    6.4680   32.5710 N   0  0  0  0  0  0  0  0  0  0  0  0
   20.2090    7.5790   32.0190 N   0  0  0  0  0  0  0  0  0  0  0  0
   21.4640    7.3160   31.5530 C   0  0  0  0  0  0  0  0  0  0  0  0
   22.2870    8.3670   30.8620 C   0  0  2  0  0  0  0  0  0  0  0  0
   22.9720    7.8060   29.7000 N   0  0  0  0  0  0  0  0  0  0  0  0
   23.8010    6.6520   29.6270 C   0  0  0  0  0  0  0  0  0  0  0  0
   24.6100    6.5620   28.6620 O   0  0  0  0  0  0  0  0  0  0  0  0
   23.3650    8.7590   31.8350 C   0  0  0  0  0  2  0  0  0  0  0  0
   23.9120   10.1010   31.4700 C   0  0  0  0  0  0  0  0  0  0  0  0
   22.8890   11.0040   31.5930 O   0  0  0  0  0  0  0  0  0  0  0  0
   21.8560   10.8520   30.7080 C   0  0  0  0  0  3  0  0  0  0  0  0
   21.4040    9.4820   30.4350 C   0  0  0  0  0  3  0  0  0  0  0  0
   24.9850   10.5040   32.4890 C   0  0  0  0  0  1  0  0  0  0  0  0
   24.5800   10.1290   30.1220 C   0  0  0  0  0  1  0  0  0  0  0  0
   22.8470    8.3150   28.7730 H   0  0  0  0  0  0  0  0  0  0  0  0
  1  2  1  0  0  0  0
  2  7  1  0  0  0  0
  3  4  1  0  0  0  0
  3  2  2  0  0  0  0
  4  5  2  0  0  0  0
  5  8  1  0  0  0  0
  5  6  1  0  0  0  0
  7  6  2  0  0  0  0
  8  9  1  0  0  0  0
  9 10  2  0  0  0  0
 11 10  1  0  0  0  0
 12  8  1  0  0  0  0
 12 11  2  0  0  0  0
 13 21  1  6  0  0  0
 13 12  1  0  0  0  0
 13 17  1  0  0  0  0
 14 13  1  0  0  0  0
 15 14  1  0  0  0  0
 15  4  1  0  0  0  0
 16 15  2  0  0  0  0
 18 19  1  0  0  0  0
 18 17  1  0  0  0  0
 18 22  1  0  0  0  0
 20 19  1  0  0  0  0
 21 20  2  0  0  0  0
 23 18  1  0  0  0  0
 24 14  1  0  0  0  0
M  END
>  <Pose>
1

>  <Score>
-7.887

$$$$
