MODEL 1
REMARK VINA RESULT:    -8.591      0.000      0.000
REMARK INTER + INTRA:          -8.591
REMARK INTER:                  -8.591
REMARK INTRA:                   0.000
REMARK UNBOUND:                 0.000
REMARK  0 active torsions:
REMARK  status: ('A' for Active; 'I' for Inactive)
ROOT
ATOM      1 Br   UNK d   1      23.678   1.545  33.386  0.00  0.00    -0.051 Br
ATOM      2  C   UNK d   1      24.090   3.131  32.385  0.00  0.00     0.012 A 
ATOM      3  C   UNK d   1      23.141   4.117  32.218  0.00  0.00     0.038 A 
ATOM      4  C   UNK d   1      23.442   5.255  31.499  0.00  0.00     0.061 A 
ATOM      5  C   UNK d   1      24.678   5.469  30.920  0.00  0.00     0.072 A 
ATOM      6  C   UNK d   1      25.624   4.462  31.098  0.00  0.00     0.034 A 
ATOM      7  C   UNK d   1      25.331   3.322  31.816  0.00  0.00     0.021 A 
ATOM      8  N   UNK d   1      25.145   6.561  30.162  0.00  0.00    -0.218 N 
ATOM      9  N   UNK d   1      26.257   6.531  29.446  0.00  0.00     0.032 NA
ATOM     10  N   UNK d   1      26.396   7.713  28.868  0.00  0.00    -0.052 NA
ATOM     11  N   UNK d   1      25.385   8.472  29.216  0.00  0.00    -0.116 NA
ATOM     12  C   UNK d   1      24.566   7.773  30.041  0.00  0.00     0.176 A 
ATOM     13  C   UNK d   1      23.352   8.387  30.583  0.00  0.00     0.100 C 
ATOM     14  N   UNK d   1      22.275   7.512  30.891  0.00  0.00    -0.340 N 
ATOM     15  C   UNK d   1      22.323   6.196  31.419  0.00  0.00     0.255 C 
ATOM     16  O   UNK d   1      21.270   5.706  31.910  0.00  0.00    -0.268 OA
ATOM     17  C   UNK d   1      23.648   9.179  31.867  0.00  0.00     0.069 C 
ATOM     18  C   UNK d   1      22.725  10.369  31.924  0.00  0.00     0.275 C 
ATOM     19  N   UNK d   1      23.247  11.367  31.018  0.00  0.00     0.084 N 
ATOM     20  C   UNK d   1      23.543  10.745  29.755  0.00  0.00     0.275 C 
ATOM     21  C   UNK d   1      22.856   9.415  29.572  0.00  0.00     0.069 C 
ATOM     22  C   UNK d   1      24.444  11.940  31.633  0.00  0.00     0.309 C 
ATOM     23  H   UNK d   1      21.325   7.891  30.703  0.00  0.00     0.164 HD
ENDROOT
TORSDOF 0
ENDMDL
