/Users/jonathanwahrer/Desktop/Msc/3_Semester/Drug_Design_Praktikum/waehrer_HTS_screening/HTS_experiment/out/docking_results/vina_output/3elj/0591_docked.pdbqt
 OpenBabel03192217443D

 23 26  0  0  0  0  0  0  0  0999 V2000
   23.6780    1.5450   33.3860 Br  0  0  0  0  0  0  0  0  0  0  0  0
   24.0900    3.1310   32.3850 C   0  0  0  0  0  0  0  0  0  0  0  0
   23.1410    4.1170   32.2180 C   0  0  0  0  0  3  0  0  0  0  0  0
   23.4420    5.2550   31.4990 C   0  0  0  0  0  0  0  0  0  0  0  0
   24.6780    5.4690   30.9200 C   0  0  0  0  0  0  0  0  0  0  0  0
   25.6240    4.4620   31.0980 C   0  0  0  0  0  3  0  0  0  0  0  0
   25.3310    3.3220   31.8160 C   0  0  0  0  0  3  0  0  0  0  0  0
   25.1450    6.5610   30.1620 N   0  0  0  0  0  0  0  0  0  0  0  0
   26.2570    6.5310   29.4460 N   0  0  0  0  0  0  0  0  0  0  0  0
   26.3960    7.7130   28.8680 N   0  0  0  0  0  0  0  0  0  0  0  0
   25.3850    8.4720   29.2160 N   0  0  0  0  0  0  0  0  0  0  0  0
   24.5660    7.7730   30.0410 C   0  0  0  0  0  0  0  0  0  0  0  0
   23.3520    8.3870   30.5830 C   0  0  0  0  0  0  0  0  0  0  0  0
   22.2750    7.5120   30.8910 N   0  0  0  0  0  0  0  0  0  0  0  0
   22.3230    6.1960   31.4190 C   0  0  0  0  0  0  0  0  0  0  0  0
   21.2700    5.7060   31.9100 O   0  0  0  0  0  0  0  0  0  0  0  0
   23.6480    9.1790   31.8670 C   0  0  0  0  0  2  0  0  0  0  0  0
   22.7250   10.3690   31.9240 C   0  0  0  0  0  2  0  0  0  0  0  0
   23.2470   11.3670   31.0180 N   0  0  0  0  0  0  0  0  0  0  0  0
   23.5430   10.7450   29.7550 C   0  0  0  0  0  2  0  0  0  0  0  0
   22.8560    9.4150   29.5720 C   0  0  0  0  0  2  0  0  0  0  0  0
   24.4440   11.9400   31.6330 C   0  0  0  0  0  1  0  0  0  0  0  0
   21.3250    7.8910   30.7030 H   0  0  0  0  0  0  0  0  0  0  0  0
  2  1  1  0  0  0  0
  3  2  1  0  0  0  0
  4  3  2  0  0  0  0
  5  6  2  0  0  0  0
  5  4  1  0  0  0  0
  6  7  1  0  0  0  0
  7  2  2  0  0  0  0
  8  5  1  0  0  0  0
  9  8  1  0  0  0  0
 10 11  1  0  0  0  0
 10  9  2  0  0  0  0
 11 12  2  0  0  0  0
 12  8  1  0  0  0  0
 12 13  1  0  0  0  0
 13 14  1  0  0  0  0
 13 17  1  0  0  0  0
 14 15  1  0  0  0  0
 15  4  1  0  0  0  0
 15 16  2  0  0  0  0
 17 18  1  0  0  0  0
 19 22  1  0  0  0  0
 19 18  1  0  0  0  0
 20 19  1  0  0  0  0
 21 20  1  0  0  0  0
 21 13  1  0  0  0  0
 23 14  1  0  0  0  0
M  END
>  <Pose>
1

>  <Score>
-8.591

$$$$
