MODEL 1
REMARK VINA RESULT:    -6.241      0.000      0.000
REMARK INTER + INTRA:          -6.424
REMARK INTER:                  -6.424
REMARK INTRA:                   0.000
REMARK UNBOUND:                 0.000
REMARK  1 active torsions:
REMARK  status: ('A' for Active; 'I' for Inactive)
REMARK    1  A    between atoms: C_9  and  N_23 
ROOT
ATOM      1 Br   UNK d   1      19.219   6.967  32.869  0.00  0.00    -0.051 Br
ATOM      2  C   UNK d   1      19.838   8.759  32.759  0.00  0.00     0.011 A 
ATOM      3  C   UNK d   1      20.804   9.071  31.843  0.00  0.00     0.031 A 
ATOM      4  C   UNK d   1      21.260  10.391  31.763  0.00  0.00     0.005 A 
ATOM      5  C   UNK d   1      20.728  11.319  32.596  0.00  0.00     0.086 A 
ATOM      6  C   UNK d   1      19.732  10.994  33.540  0.00  0.00     0.039 A 
ATOM      7  C   UNK d   1      19.288   9.696  33.616  0.00  0.00     0.022 A 
ATOM      8  O   UNK d   1      21.144  12.638  32.556  0.00  0.00    -0.292 OA
ATOM      9  C   UNK d   1      22.117  12.995  31.647  0.00  0.00     0.160 A 
ATOM     10  C   UNK d   1      22.676  12.153  30.810  0.00  0.00     0.100 A 
ATOM     11  C   UNK d   1      22.304  10.746  30.779  0.00  0.00     0.145 A 
ATOM     12  C   UNK d   1      23.472   9.838  30.878  0.00  0.00     0.041 A 
ATOM     13  C   UNK d   1      23.561   9.116  29.720  0.00  0.00     0.160 A 
ATOM     14  N   UNK d   1      24.638   8.282  29.815  0.00  0.00    -0.156 NA
ATOM     15  N   UNK d   1      25.179   8.502  31.000  0.00  0.00    -0.280 N 
ATOM     16  C   UNK d   1      24.504   9.439  31.679  0.00  0.00     0.036 A 
ATOM     17  C   UNK d   1      24.867   9.909  33.050  0.00  0.00     0.070 C 
ATOM     18  N   UNK d   1      22.529   9.463  28.822  0.00  0.00    -0.308 N 
ATOM     19  C   UNK d   1      21.747  10.453  29.440  0.00  0.00     0.247 A 
ATOM     20  O   UNK d   1      20.729  11.024  28.965  0.00  0.00    -0.271 OA
ATOM     21  C   UNK d   1      23.690  12.604  29.887  0.00  0.00     0.101 C 
ATOM     22  N   UNK d   1      24.490  12.964  29.131  0.00  0.00    -0.191 NA
ATOM     23  H   UNK d   1      26.035   7.977  31.320  0.00  0.00     0.189 HD
ATOM     24  H   UNK d   1      22.388   9.033  27.849  0.00  0.00     0.170 HD
ENDROOT
BRANCH   9  25
ATOM     25  N   UNK d   1      22.539  14.368  31.618  0.00  0.00    -0.379 N 
ATOM     26  H   UNK d   1      23.488  14.606  31.259  0.00  0.00     0.158 HD
ATOM     27  H   UNK d   1      21.927  15.148  31.946  0.00  0.00     0.158 HD
ENDBRANCH   9  25
TORSDOF 1
ENDMDL
