MODEL 1
REMARK VINA RESULT:   -10.055      0.000      0.000
REMARK INTER + INTRA:         -11.720
REMARK INTER:                 -11.818
REMARK INTRA:                   0.099
REMARK UNBOUND:                 0.099
REMARK  3 active torsions:
REMARK  status: ('A' for Active; 'I' for Inactive)
REMARK    1  A    between atoms: C_11  and  C_13 
REMARK    2  A    between atoms: C_23  and  C_24 
REMARK    3  A    between atoms: C_24  and  N_25 
ROOT
ATOM      1  C   UNK d   1      23.366   9.887  30.687  0.00  0.00    -0.001 A 
ATOM      2  C   UNK d   1      24.482   9.525  29.950  0.00  0.00     0.096 A 
ATOM      3  C   UNK d   1      24.767   8.195  29.726  0.00  0.00     0.289 A 
ATOM      4  O   UNK d   1      25.809   7.942  29.042  0.00  0.00    -0.260 OA
ATOM      5  O   UNK d   1      23.998   7.262  30.197  0.00  0.00    -0.274 OA
ATOM      6  C   UNK d   1      22.954   7.528  30.883  0.00  0.00     0.101 A 
ATOM      7  C   UNK d   1      22.589   8.859  31.160  0.00  0.00     0.010 A 
ATOM      8  C   UNK d   1      21.461   9.112  31.886  0.00  0.00     0.018 A 
ATOM      9  C   UNK d   1      20.711   8.019  32.332  0.00  0.00     0.041 A 
ATOM     10  C   UNK d   1      21.099   6.725  32.047  0.00  0.00     0.118 A 
ATOM     11  C   UNK d   1      22.229   6.433  31.316  0.00  0.00     0.039 A 
ATOM     12  O   UNK d   1      20.275   5.695  32.549  0.00  0.00    -0.191 OA
ENDROOT
BRANCH   1  13
ATOM     13  C   UNK d   1      23.082  11.290  30.986  0.00  0.00     0.052 A 
ATOM     14  C   UNK d   1      24.055  12.111  31.515  0.00  0.00     0.299 A 
ATOM     15  O   UNK d   1      23.794  13.337  31.805  0.00  0.00    -0.274 OA
ATOM     16  O   UNK d   1      25.193  11.574  31.686  0.00  0.00    -0.259 OA
ATOM     17  C   UNK d   1      22.596  13.893  31.620  0.00  0.00     0.089 A 
ATOM     18  C   UNK d   1      21.579  13.124  31.092  0.00  0.00     0.000 A 
ATOM     19  C   UNK d   1      22.397  15.223  31.962  0.00  0.00     0.039 A 
ATOM     20  C   UNK d   1      20.347  13.727  30.911  0.00  0.00     0.033 A 
ATOM     21  C   UNK d   1      21.826  11.812  30.775  0.00  0.00     0.032 A 
ATOM     22  C   UNK d   1      20.089  15.047  31.232  0.00  0.00     0.011 A 
ATOM     23 Br   UNK d   1      18.383  15.820  30.946  0.00  0.00    -0.051 Br
ATOM     24  C   UNK d   1      21.156  15.783  31.767  0.00  0.00     0.022 A 
ENDBRANCH   1  13
BRANCH  11  25
ATOM     25  C   UNK d   1      22.621   5.060  31.145  0.00  0.00     0.278 C 
BRANCH  25  26
ATOM     26  N   UNK d   1      23.784   4.497  31.699  0.00  0.00    -0.075 N 
ATOM     27  C   UNK d   1      23.619   3.519  32.738  0.00  0.00     0.269 C 
ATOM     28  C   UNK d   1      24.753   4.066  30.658  0.00  0.00     0.269 C 
ATOM     29  H   UNK d   1      24.304   5.283  32.187  0.00  0.00     0.279 HD
ENDBRANCH  25  26
ENDBRANCH  11  25
TORSDOF 3
ENDMDL
