MODEL 1
REMARK VINA RESULT:    -8.102      0.000      0.000
REMARK INTER + INTRA:         -10.833
REMARK INTER:                 -10.470
REMARK INTRA:                  -0.362
REMARK UNBOUND:                -0.362
REMARK  5 active torsions:
REMARK  status: ('A' for Active; 'I' for Inactive)
REMARK    1  A    between atoms: C_7  and  N_17 
REMARK    2  A    between atoms: C_9  and  C_10 
REMARK       I    between atoms: N_20  and  C_23 
REMARK    3  A    between atoms: C_23  and  C_25 
REMARK    4  A    between atoms: C_25  and  C_26 
REMARK    5  A    between atoms: C_26  and  C_27 
ROOT
ATOM      1 Br   UNK d   1      19.799   7.260  33.188  0.00  0.00    -0.051 Br
ATOM      2  C   UNK d   1      21.199   6.743  32.000  0.00  0.00     0.011 A 
ATOM      3  C   UNK d   1      22.131   7.675  31.551  0.00  0.00     0.035 A 
ATOM      4  C   UNK d   1      23.151   7.299  30.687  0.00  0.00     0.024 A 
ATOM      5  C   UNK d   1      23.248   5.991  30.264  0.00  0.00     0.073 A 
ATOM      6  N   UNK d   1      24.247   5.621  29.423  0.00  0.00    -0.207 NA
ATOM      7  C   UNK d   1      25.162   6.502  28.979  0.00  0.00     0.327 A 
ATOM      8  N   UNK d   1      25.051   7.767  29.400  0.00  0.00    -0.206 NA
ATOM      9  C   UNK d   1      24.087   8.204  30.232  0.00  0.00     0.085 A 
ATOM     10  C   UNK d   1      22.307   5.080  30.725  0.00  0.00     0.034 A 
ATOM     11  C   UNK d   1      21.287   5.431  31.583  0.00  0.00     0.021 A 
ENDROOT
BRANCH   7  12
ATOM     12  N   UNK d   1      26.204   6.074  28.093  0.00  0.00    -0.004 N 
ATOM     13  C   UNK d   1      25.900   4.770  27.569  0.00  0.00     0.265 C 
ATOM     14  C   UNK d   1      26.105   3.653  28.534  0.00  0.00     0.154 C 
ATOM     15  N   UNK d   1      26.860   4.058  29.699  0.00  0.00    -0.349 N 
ATOM     16  C   UNK d   1      27.938   4.998  29.481  0.00  0.00     0.154 C 
ATOM     17  C   UNK d   1      26.507   3.521  30.960  0.00  0.00     0.220 C 
ATOM     18  C   UNK d   1      27.511   6.179  28.665  0.00  0.00     0.265 C 
ATOM     19  O   UNK d   1      25.560   2.712  31.072  0.00  0.00    -0.273 OA
ATOM     20  H   UNK d   1      26.134   6.738  27.266  0.00  0.00     0.290 HD
BRANCH  17  21
ATOM     21  C   UNK d   1      27.319   3.971  32.128  0.00  0.00     0.113 C 
BRANCH  21  22
ATOM     22  C   UNK d   1      28.102   2.840  32.723  0.00  0.00     0.122 C 
BRANCH  22  23
ATOM     23  C   UNK d   1      29.021   3.265  33.789  0.00  0.00     0.172 C 
ATOM     24  O   UNK d   1      30.001   4.000  33.551  0.00  0.00    -0.648 OA
ATOM     25  O   UNK d   1      28.796   2.844  35.084  0.00  0.00    -0.648 OA
ENDBRANCH  22  23
ENDBRANCH  21  22
ENDBRANCH  17  21
ENDBRANCH   7  12
BRANCH   9  26
ATOM     26  C   UNK d   1      24.057   9.602  30.631  0.00  0.00     0.015 A 
ATOM     27  C   UNK d   1      23.187  10.489  30.012  0.00  0.00     0.046 A 
ATOM     28  C   UNK d   1      23.119  11.818  30.372  0.00  0.00     0.025 A 
ATOM     29 Cl   UNK d   1      22.147   9.869  28.727  0.00  0.00    -0.083 Cl
ATOM     30  C   UNK d   1      23.922  12.325  31.373  0.00  0.00     0.002 A 
ATOM     31  C   UNK d   1      24.792  11.436  31.991  0.00  0.00     0.001 A 
ATOM     32  C   UNK d   1      24.853  10.109  31.625  0.00  0.00     0.015 A 
ENDBRANCH   9  26
TORSDOF 5
ENDMDL
