MODEL 1
REMARK VINA RESULT:    -8.175      0.000      0.000
REMARK INTER + INTRA:         -12.476
REMARK INTER:                 -11.043
REMARK INTRA:                  -1.433
REMARK UNBOUND:                -1.433
REMARK  6 active torsions:
REMARK  status: ('A' for Active; 'I' for Inactive)
REMARK    1  A    between atoms: C_7  and  N_17 
REMARK    2  A    between atoms: C_9  and  C_10 
REMARK       I    between atoms: N_20  and  C_23 
REMARK    3  A    between atoms: C_23  and  C_25 
REMARK    4  A    between atoms: C_25  and  C_26 
REMARK    5  A    between atoms: C_26  and  C_27 
REMARK    6  A    between atoms: C_27  and  C_28 
ROOT
ATOM      1 Br   UNK d   1      18.639   9.139  33.310  0.00  0.00    -0.051 Br
ATOM      2  C   UNK d   1      20.037   8.039  32.611  0.00  0.00     0.011 A 
ATOM      3  C   UNK d   1      21.209   8.574  32.106  0.00  0.00     0.035 A 
ATOM      4  C   UNK d   1      22.235   7.808  31.595  0.00  0.00     0.024 A 
ATOM      5  C   UNK d   1      22.115   6.431  31.572  0.00  0.00     0.073 A 
ATOM      6  N   UNK d   1      23.109   5.659  31.067  0.00  0.00    -0.207 NA
ATOM      7  C   UNK d   1      24.244   6.180  30.570  0.00  0.00     0.327 A 
ATOM      8  N   UNK d   1      24.363   7.520  30.593  0.00  0.00    -0.206 NA
ATOM      9  C   UNK d   1      23.400   8.334  31.087  0.00  0.00     0.085 A 
ATOM     10  C   UNK d   1      20.952   5.889  32.073  0.00  0.00     0.034 A 
ATOM     11  C   UNK d   1      19.921   6.666  32.587  0.00  0.00     0.021 A 
ENDROOT
BRANCH   7  12
ATOM     12  N   UNK d   1      25.266   5.339  30.048  0.00  0.00    -0.004 N 
ATOM     13  C   UNK d   1      25.201   5.278  28.605  0.00  0.00     0.265 C 
ATOM     14  C   UNK d   1      26.515   4.782  28.090  0.00  0.00     0.154 C 
ATOM     15  N   UNK d   1      27.253   4.197  29.191  0.00  0.00    -0.349 N 
ATOM     16  C   UNK d   1      26.522   3.322  30.090  0.00  0.00     0.154 C 
ATOM     17  C   UNK d   1      28.617   4.499  29.335  0.00  0.00     0.219 C 
ATOM     18  C   UNK d   1      25.219   3.989  30.546  0.00  0.00     0.265 C 
ATOM     19  O   UNK d   1      29.233   3.983  30.300  0.00  0.00    -0.273 OA
ATOM     20  H   UNK d   1      26.178   5.752  30.336  0.00  0.00     0.290 HD
BRANCH  17  21
ATOM     21  C   UNK d   1      29.329   5.384  28.411  0.00  0.00     0.103 C 
BRANCH  21  22
ATOM     22  C   UNK d   1      29.536   6.728  29.048  0.00  0.00     0.020 C 
BRANCH  22  23
ATOM     23  C   UNK d   1      29.374   7.868  28.066  0.00  0.00     0.113 C 
BRANCH  23  24
ATOM     24  C   UNK d   1      27.976   8.072  27.640  0.00  0.00     0.172 C 
ATOM     25  O   UNK d   1      27.731   8.007  26.412  0.00  0.00    -0.648 OA
ATOM     26  O   UNK d   1      26.991   8.324  28.584  0.00  0.00    -0.648 OA
ENDBRANCH  23  24
ENDBRANCH  22  23
ENDBRANCH  21  22
ENDBRANCH  17  21
ENDBRANCH   7  12
BRANCH   9  27
ATOM     27  C   UNK d   1      23.579   9.778  31.085  0.00  0.00     0.015 A 
ATOM     28  C   UNK d   1      22.988  10.588  30.127  0.00  0.00     0.046 A 
ATOM     29  C   UNK d   1      23.167  11.960  30.103  0.00  0.00     0.025 A 
ATOM     30 Cl   UNK d   1      21.974   9.856  28.894  0.00  0.00    -0.083 Cl
ATOM     31  C   UNK d   1      23.980  12.522  31.094  0.00  0.00     0.002 A 
ATOM     32  C   UNK d   1      24.583  11.745  32.061  0.00  0.00     0.001 A 
ATOM     33  C   UNK d   1      24.380  10.402  32.046  0.00  0.00     0.015 A 
ENDBRANCH   9  27
TORSDOF 6
ENDMDL
