/Users/jonathanwahrer/Desktop/Msc/3_Semester/Drug_Design_Praktikum/waehrer_HTS_screening/HTS_experiment/out/docking_results/vina_output/3elj/0611_docked.pdbqt
 OpenBabel03192217443D

 33 36  0  0  0  0  0  0  0  0999 V2000
   18.6390    9.1390   33.3100 Br  0  0  0  0  0  0  0  0  0  0  0  0
   20.0370    8.0390   32.6110 C   0  0  0  0  0  0  0  0  0  0  0  0
   21.2090    8.5740   32.1060 C   0  0  0  0  0  3  0  0  0  0  0  0
   22.2350    7.8080   31.5950 C   0  0  0  0  0  0  0  0  0  0  0  0
   22.1150    6.4310   31.5720 C   0  0  0  0  0  0  0  0  0  0  0  0
   23.1090    5.6590   31.0670 N   0  0  0  0  0  0  0  0  0  0  0  0
   24.2440    6.1800   30.5700 C   0  0  0  0  0  0  0  0  0  0  0  0
   24.3630    7.5200   30.5930 N   0  0  0  0  0  0  0  0  0  0  0  0
   23.4000    8.3340   31.0870 C   0  0  0  0  0  0  0  0  0  0  0  0
   20.9520    5.8890   32.0730 C   0  0  0  0  0  3  0  0  0  0  0  0
   19.9210    6.6660   32.5870 C   0  0  0  0  0  3  0  0  0  0  0  0
   25.2660    5.3390   30.0480 N   0  0  0  0  0  4  0  0  0  0  0  0
   25.2010    5.2780   28.6050 C   0  0  0  0  0  2  0  0  0  0  0  0
   26.5150    4.7820   28.0900 C   0  0  0  0  0  2  0  0  0  0  0  0
   27.2530    4.1970   29.1910 N   0  0  0  0  0  0  0  0  0  0  0  0
   26.5220    3.3220   30.0900 C   0  0  0  0  0  2  0  0  0  0  0  0
   28.6170    4.4990   29.3350 C   0  0  0  0  0  0  0  0  0  0  0  0
   25.2190    3.9890   30.5460 C   0  0  0  0  0  2  0  0  0  0  0  0
   29.2330    3.9830   30.3000 O   0  0  0  0  0  0  0  0  0  0  0  0
   26.1780    5.7520   30.3360 H   0  0  0  0  0  0  0  0  0  0  0  0
   29.3290    5.3840   28.4110 C   0  0  0  0  0  2  0  0  0  0  0  0
   29.5360    6.7280   29.0480 C   0  0  0  0  0  2  0  0  0  0  0  0
   29.3740    7.8680   28.0660 C   0  0  0  0  0  2  0  0  0  0  0  0
   27.9760    8.0720   27.6400 C   0  0  0  0  0  0  0  0  0  0  0  0
   27.7310    8.0070   26.4120 O   0  0  0  0  0  0  0  0  0  0  0  0
   26.9910    8.3240   28.5840 O   0  0  0  0  0  1  0  0  0  0  0  0
   23.5790    9.7780   31.0850 C   0  0  0  0  0  0  0  0  0  0  0  0
   22.9880   10.5880   30.1270 C   0  0  0  0  0  0  0  0  0  0  0  0
   23.1670   11.9600   30.1030 C   0  0  0  0  0  3  0  0  0  0  0  0
   21.9740    9.8560   28.8940 Cl  0  0  0  0  0  0  0  0  0  0  0  0
   23.9800   12.5220   31.0940 C   0  0  0  0  0  3  0  0  0  0  0  0
   24.5830   11.7450   32.0610 C   0  0  0  0  0  3  0  0  0  0  0  0
   24.3800   10.4020   32.0460 C   0  0  0  0  0  3  0  0  0  0  0  0
  2  1  1  0  0  0  0
  3  2  2  0  0  0  0
  4  3  1  0  0  0  0
  5  4  2  0  0  0  0
  5 10  1  0  0  0  0
  6  5  1  0  0  0  0
  7  8  1  0  0  0  0
  7  6  2  0  0  0  0
  8  9  2  0  0  0  0
  9  4  1  0  0  0  0
 10 11  2  0  0  0  0
 11  2  1  0  0  0  0
 12 20  1  0  0  0  0
 12 18  1  0  0  0  0
 12  7  1  0  0  0  0
 13 12  1  0  0  0  0
 14 13  1  0  0  0  0
 14 15  1  0  0  0  0
 15 17  1  0  0  0  0
 15 16  1  0  0  0  0
 16 18  1  0  0  0  0
 17 19  2  0  0  0  0
 21 22  1  0  0  0  0
 21 17  1  0  0  0  0
 23 22  1  0  0  0  0
 24 23  1  0  0  0  0
 24 26  1  0  0  0  0
 25 24  2  0  0  0  0
 27  9  1  0  0  0  0
 27 33  1  0  0  0  0
 28 27  2  0  0  0  0
 29 28  1  0  0  0  0
 29 31  2  0  0  0  0
 30 28  1  0  0  0  0
 31 32  1  0  0  0  0
 33 32  2  0  0  0  0
M  END
>  <Pose>
1

>  <Score>
-8.175

$$$$
