/Users/jonathanwahrer/Desktop/Msc/3_Semester/Drug_Design_Praktikum/waehrer_HTS_screening/HTS_experiment/out/docking_results/vina_output/3elj/0616_docked.pdbqt
 OpenBabel03192217453D

 28 31  0  0  0  0  0  0  0  0999 V2000
   23.0000    7.2440   31.1300 C   0  0  0  0  0  0  0  0  0  0  0  0
   21.8120    6.8080   31.3790 O   0  0  0  0  0  0  0  0  0  0  0  0
   23.3040    8.5020   31.6500 N   0  0  0  0  0  0  0  0  0  0  0  0
   24.5460    9.2120   31.5000 C   0  0  0  0  0  2  0  0  0  0  0  0
   24.5030   10.5980   32.1560 C   0  0  0  0  0  2  0  0  0  0  0  0
   23.2820   11.2700   31.7390 N   0  0  0  0  0  0  0  0  0  0  0  0
   22.0180   10.5320   31.7130 C   0  0  0  0  0  2  0  0  0  0  0  0
   22.2810    9.2200   32.4570 C   0  0  0  0  0  2  0  0  0  0  0  0
   23.2900   12.6280   31.3520 C   0  0  0  0  0  0  0  0  0  0  0  0
   24.3920   13.2250   31.3810 O   0  0  0  0  0  0  0  0  0  0  0  0
   23.8910    6.4080   30.3490 C   0  0  0  0  0  0  0  0  0  0  0  0
   24.4660    6.5820   29.1570 N   0  0  0  0  0  0  0  0  0  0  0  0
   25.2310    5.4990   28.8140 C   0  0  0  0  0  0  0  0  0  0  0  0
   24.3910    7.3960   28.5290 H   0  0  0  0  0  0  0  0  0  0  0  0
   25.1540    4.5800   29.8240 C   0  0  0  0  0  0  0  0  0  0  0  0
   26.0020    5.2130   27.7030 C   0  0  0  0  0  3  0  0  0  0  0  0
   25.8510    3.3740   29.7190 C   0  0  0  0  0  3  0  0  0  0  0  0
   24.3350    5.1290   30.7700 C   0  0  0  0  0  3  0  0  0  0  0  0
   26.6180    3.0810   28.6210 C   0  0  0  0  0  0  0  0  0  0  0  0
   27.5780    1.4280   28.4660 Br  0  0  0  0  0  0  0  0  0  0  0  0
   26.6910    4.0120   27.6080 C   0  0  0  0  0  3  0  0  0  0  0  0
   22.0460   13.2610   30.9430 C   0  0  0  0  0  2  0  0  0  0  0  0
   21.2430   13.7880   32.0230 N   0  0  0  0  0  0  0  0  0  0  0  0
   19.8910   14.0520   31.5250 C   0  0  0  0  0  2  0  0  0  0  0  0
   19.7280   15.4850   31.1510 C   0  0  0  0  0  2  0  0  0  0  0  0
   20.9080   15.9910   30.6100 O   0  0  0  0  0  0  0  0  0  0  0  0
   21.9020   16.1060   31.5840 C   0  0  0  0  0  2  0  0  0  0  0  0
   21.7990   14.9970   32.6050 C   0  0  0  0  0  2  0  0  0  0  0  0
  1  2  2  0  0  0  0
  1  3  1  0  0  0  0
  3  8  1  0  0  0  0
  4  3  1  0  0  0  0
  4  5  1  0  0  0  0
  6  5  1  0  0  0  0
  7  6  1  0  0  0  0
  7  8  1  0  0  0  0
  9 10  2  0  0  0  0
  9  6  1  0  0  0  0
 11 18  2  0  0  0  0
 11  1  1  0  0  0  0
 12 11  1  0  0  0  0
 13 12  1  0  0  0  0
 13 15  1  0  0  0  0
 14 12  1  0  0  0  0
 15 18  1  0  0  0  0
 16 13  2  0  0  0  0
 17 15  2  0  0  0  0
 19 17  1  0  0  0  0
 20 19  1  0  0  0  0
 21 16  1  0  0  0  0
 21 19  2  0  0  0  0
 22  9  1  0  0  0  0
 22 23  1  0  0  0  0
 23 28  1  0  0  0  0
 24 23  1  0  0  0  0
 25 24  1  0  0  0  0
 26 25  1  0  0  0  0
 26 27  1  0  0  0  0
 27 28  1  0  0  0  0
M  END
>  <Pose>
1

>  <Score>
-8.327

$$$$
