MODEL 1
REMARK VINA RESULT:    -8.327      0.000      0.000
REMARK INTER + INTRA:         -10.209
REMARK INTER:                  -9.787
REMARK INTRA:                  -0.422
REMARK UNBOUND:                -0.422
REMARK  3 active torsions:
REMARK  status: ('A' for Active; 'I' for Inactive)
REMARK    1  A    between atoms: C_7  and  C_9 
REMARK       I    between atoms: C_9  and  N_11 
REMARK       I    between atoms: N_14  and  C_17 
REMARK    2  A    between atoms: C_17  and  C_19 
REMARK    3  A    between atoms: C_19  and  N_20 
ROOT
ATOM      1  C   UNK d   1      23.000   7.244  31.130  0.00  0.00     0.270 C 
ATOM      2  O   UNK d   1      21.812   6.808  31.379  0.00  0.00    -0.266 OA
ATOM      3  N   UNK d   1      23.304   8.502  31.650  0.00  0.00    -0.344 N 
ATOM      4  C   UNK d   1      24.546   9.212  31.500  0.00  0.00     0.146 C 
ATOM      5  C   UNK d   1      24.503  10.598  32.156  0.00  0.00     0.145 C 
ATOM      6  N   UNK d   1      23.282  11.270  31.739  0.00  0.00    -0.348 N 
ATOM      7  C   UNK d   1      22.018  10.532  31.713  0.00  0.00     0.145 C 
ATOM      8  C   UNK d   1      22.281   9.220  32.457  0.00  0.00     0.146 C 
ATOM      9  C   UNK d   1      23.290  12.628  31.352  0.00  0.00     0.248 C 
ATOM     10  O   UNK d   1      24.392  13.225  31.381  0.00  0.00    -0.271 OA
ENDROOT
BRANCH   1  11
ATOM     11  C   UNK d   1      23.891   6.408  30.349  0.00  0.00     0.102 A 
ATOM     12  N   UNK d   1      24.466   6.582  29.157  0.00  0.00    -0.351 N 
ATOM     13  C   UNK d   1      25.231   5.499  28.814  0.00  0.00     0.043 A 
ATOM     14  H   UNK d   1      24.391   7.396  28.529  0.00  0.00     0.166 HD
ATOM     15  C   UNK d   1      25.154   4.580  29.824  0.00  0.00    -0.006 A 
ATOM     16  C   UNK d   1      26.002   5.213  27.703  0.00  0.00     0.031 A 
ATOM     17  C   UNK d   1      25.851   3.374  29.719  0.00  0.00     0.032 A 
ATOM     18  C   UNK d   1      24.335   5.129  30.770  0.00  0.00     0.049 A 
ATOM     19  C   UNK d   1      26.618   3.081  28.621  0.00  0.00     0.011 A 
ATOM     20 Br   UNK d   1      27.578   1.428  28.466  0.00  0.00    -0.051 Br
ATOM     21  C   UNK d   1      26.691   4.012  27.608  0.00  0.00     0.021 A 
ENDBRANCH   1  11
BRANCH   9  22
ATOM     22  C   UNK d   1      22.046  13.261  30.943  0.00  0.00     0.374 C 
BRANCH  22  23
ATOM     23  N   UNK d   1      21.243  13.788  32.023  0.00  0.00     0.101 N 
ATOM     24  C   UNK d   1      19.891  14.052  31.525  0.00  0.00     0.299 C 
ATOM     25  C   UNK d   1      19.728  15.485  31.151  0.00  0.00     0.198 C 
ATOM     26  O   UNK d   1      20.908  15.991  30.610  0.00  0.00    -0.388 OA
ATOM     27  C   UNK d   1      21.902  16.106  31.584  0.00  0.00     0.198 C 
ATOM     28  C   UNK d   1      21.799  14.997  32.605  0.00  0.00     0.299 C 
ENDBRANCH  22  23
ENDBRANCH   9  22
TORSDOF 3
ENDMDL
