MODEL 1
REMARK VINA RESULT:    -9.040      0.000      0.000
REMARK INTER + INTRA:          -9.127
REMARK INTER:                  -9.568
REMARK INTRA:                   0.441
REMARK UNBOUND:                 0.441
REMARK  1 active torsions:
REMARK  status: ('A' for Active; 'I' for Inactive)
REMARK    1  A    between atoms: C_10  and  C_15 
REMARK       I    between atoms: C_15  and  N_17 
ROOT
ATOM      1 Br   UNK d   1      22.416   5.116  30.932  0.00  0.00    -0.051 Br
ATOM      2  C   UNK d   1      21.802   6.825  31.505  0.00  0.00     0.012 A 
ATOM      3  C   UNK d   1      20.661   6.900  32.276  0.00  0.00     0.028 A 
ATOM      4  C   UNK d   1      20.183   8.142  32.712  0.00  0.00    -0.027 A 
ATOM      5  C   UNK d   1      20.874   9.256  32.357  0.00  0.00     0.055 A 
ATOM      6  C   UNK d   1      22.018   9.231  31.590  0.00  0.00     0.044 A 
ATOM      7  C   UNK d   1      22.466   8.004  31.174  0.00  0.00     0.037 A 
ATOM      8  C   UNK d   1      22.615  10.431  31.305  0.00  0.00     0.201 A 
ATOM      9  O   UNK d   1      23.647  10.423  30.615  0.00  0.00    -0.286 OA
ATOM     10  C   UNK d   1      22.113  11.643  31.756  0.00  0.00     0.098 A 
ATOM     11  C   UNK d   1      20.966  11.597  32.518  0.00  0.00     0.112 A 
ATOM     12  N   UNK d   1      20.361  10.401  32.808  0.00  0.00    -0.354 N 
ATOM     13  C   UNK d   1      19.176  10.071  33.569  0.00  0.00     0.133 A 
ATOM     14  C   UNK d   1      19.031   8.574  33.522  0.00  0.00     0.061 A 
ENDROOT
BRANCH  10  15
ATOM     15  C   UNK d   1      22.762  12.912  31.444  0.00  0.00     0.259 C 
ATOM     16  O   UNK d   1      23.985  13.046  31.677  0.00  0.00    -0.267 OA
ATOM     17  N   UNK d   1      22.015  13.998  30.878  0.00  0.00    -0.344 N 
ATOM     18  C   UNK d   1      22.634  15.267  30.560  0.00  0.00     0.152 C 
ATOM     19  C   UNK d   1      20.599  13.866  30.600  0.00  0.00     0.152 C 
ATOM     20  C   UNK d   1      21.799  16.337  31.276  0.00  0.00     0.187 C 
ATOM     21  O   UNK d   1      20.477  16.187  30.932  0.00  0.00    -0.388 OA
ATOM     22  C   UNK d   1      19.911  15.005  31.360  0.00  0.00     0.187 C 
ENDBRANCH  10  15
TORSDOF 1
ENDMDL
