MODEL 1
REMARK VINA RESULT:    -7.967      0.000      0.000
REMARK INTER + INTRA:         -12.759
REMARK INTER:                 -11.460
REMARK INTRA:                  -1.299
REMARK UNBOUND:                -1.299
REMARK  8 active torsions:
REMARK  status: ('A' for Active; 'I' for Inactive)
REMARK    1  A    between atoms: N_5  and  C_23 
REMARK    2  A    between atoms: C_6  and  C_17 
REMARK    3  A    between atoms: C_7  and  C_12 
REMARK    4  A    between atoms: C_10  and  O_11 
REMARK    5  A    between atoms: C_12  and  O_14 
REMARK    6  A    between atoms: O_14  and  C_15 
REMARK    7  A    between atoms: C_17  and  N_18 
REMARK    8  A    between atoms: C_23  and  C_24 
ROOT
ATOM      1 Br   UNK d   1      24.043   1.579  34.196  0.00  0.00    -0.048 Br
ATOM      2  C   UNK d   1      24.231   2.879  32.845  0.00  0.00     0.046 A 
ATOM      3  C   UNK d   1      23.181   3.715  32.499  0.00  0.00     0.052 A 
ATOM      4  C   UNK d   1      23.286   4.653  31.513  0.00  0.00     0.048 A 
ATOM      5  N   UNK d   1      22.390   5.590  31.082  0.00  0.00    -0.343 N 
ATOM      6  C   UNK d   1      23.006   6.326  30.140  0.00  0.00     0.055 A 
ATOM      7  C   UNK d   1      24.321   5.824  29.945  0.00  0.00     0.076 A 
ATOM      8  C   UNK d   1      24.446   4.787  30.834  0.00  0.00     0.012 A 
ATOM      9  C   UNK d   1      25.520   3.957  31.165  0.00  0.00     0.052 A 
ATOM     10  C   UNK d   1      25.429   3.001  32.166  0.00  0.00     0.084 A 
ENDROOT
BRANCH   5  11
ATOM     11  C   UNK d   1      20.956   5.485  31.417  0.00  0.00     0.167 C 
BRANCH  11  12
ATOM     12  C   UNK d   1      20.596   6.835  32.079  0.00  0.00    -0.040 A 
ATOM     13  C   UNK d   1      19.277   7.179  32.025  0.00  0.00     0.009 A 
ATOM     14  C   UNK d   1      18.872   8.388  32.616  0.00  0.00     0.001 A 
ATOM     15  C   UNK d   1      19.740   9.226  33.249  0.00  0.00     0.000 A 
ATOM     16  C   UNK d   1      21.077   8.828  33.282  0.00  0.00     0.001 A 
ATOM     17  C   UNK d   1      21.495   7.629  32.692  0.00  0.00     0.009 A 
ENDBRANCH  11  12
ENDBRANCH   5  11
BRANCH   6  18
ATOM     18  C   UNK d   1      22.533   7.512  29.426  0.00  0.00     0.292 C 
BRANCH  18  19
ATOM     19  N   UNK d   1      23.053   8.793  29.791  0.00  0.00    -0.066 N 
ATOM     20  C   UNK d   1      23.946   9.145  30.748  0.00  0.00     0.235 C 
ATOM     21  C   UNK d   1      23.543  10.543  31.276  0.00  0.00     0.029 C 
ATOM     22  C   UNK d   1      22.806  11.086  30.054  0.00  0.00     0.029 C 
ATOM     23  C   UNK d   1      22.018   9.835  29.690  0.00  0.00     0.235 C 
ATOM     24  H   UNK d   1      23.587   9.054  28.772  0.00  0.00     0.280 HD
ENDBRANCH  18  19
ENDBRANCH   6  18
BRANCH   7  25
ATOM     25  C   UNK d   1      25.281   6.187  28.895  0.00  0.00     0.296 C 
ATOM     26  O   UNK d   1      25.870   7.296  29.010  0.00  0.00    -0.259 OA
BRANCH  25  27
ATOM     27  O   UNK d   1      25.600   5.429  27.818  0.00  0.00    -0.318 OA
BRANCH  27  28
ATOM     28  C   UNK d   1      26.762   4.769  27.465  0.00  0.00     0.174 C 
ATOM     29  C   UNK d   1      26.636   3.252  27.401  0.00  0.00     0.034 C 
ENDBRANCH  27  28
ENDBRANCH  25  27
ENDBRANCH   7  25
BRANCH  10  30
ATOM     30  O   UNK d   1      26.494   2.158  32.529  0.00  0.00    -0.359 OA
ATOM     31  H   UNK d   1      26.336   1.141  32.565  0.00  0.00     0.217 HD
ENDBRANCH  10  30
TORSDOF 8
ENDMDL
