MODEL 1
REMARK VINA RESULT:    -8.312      0.000      0.000
REMARK INTER + INTRA:         -11.958
REMARK INTER:                 -11.471
REMARK INTRA:                  -0.487
REMARK UNBOUND:                -0.487
REMARK  7 active torsions:
REMARK  status: ('A' for Active; 'I' for Inactive)
REMARK    1  A    between atoms: C_6  and  O_28 
REMARK    2  A    between atoms: C_10  and  N_11 
REMARK       I    between atoms: N_11  and  C_12 
REMARK    3  A    between atoms: C_12  and  C_14 
REMARK    4  A    between atoms: C_14  and  N_15 
REMARK    5  A    between atoms: N_18  and  C_21 
REMARK    6  A    between atoms: C_21  and  C_22 
REMARK       I    between atoms: C_22  and  N_24 
REMARK    7  A    between atoms: N_24  and  C_25 
ROOT
ATOM      1  N   UNK d   1      23.043   9.545  31.340  0.00  0.00    -0.324 N 
ATOM      2  C   UNK d   1      23.299   9.013  30.069  0.00  0.00     0.239 C 
ATOM      3  O   UNK d   1      22.800   9.549  29.047  0.00  0.00    -0.271 OA
ATOM      4  H   UNK d   1      23.524   9.034  32.142  0.00  0.00     0.169 HD
ENDROOT
BRANCH   2   5
ATOM      5  C   UNK d   1      24.138   7.834  29.829  0.00  0.00     0.220 C 
BRANCH   5   6
ATOM      6  N   UNK d   1      23.874   6.667  30.573  0.00  0.00    -0.401 N 
ATOM      7  C   UNK d   1      22.654   5.983  30.341  0.00  0.00     0.136 C 
ATOM      8  C   UNK d   1      22.288   5.049  31.495  0.00  0.00     0.136 C 
ATOM      9  N   UNK d   1      23.374   4.195  31.723  0.00  0.00    -0.401 N 
ATOM     10  C   UNK d   1      24.575   4.420  31.018  0.00  0.00     0.136 C 
ATOM     11  C   UNK d   1      25.003   5.849  30.860  0.00  0.00     0.136 C 
BRANCH   9  12
ATOM     12  C   UNK d   1      23.384   3.500  32.929  0.00  0.00     0.219 C 
BRANCH  12  13
ATOM     13  C   UNK d   1      23.929   2.142  32.953  0.00  0.00     0.235 C 
ATOM     14  O   UNK d   1      25.213   2.070  33.084  0.00  0.00    -0.272 OA
ATOM     15  N   UNK d   1      23.241   0.938  32.855  0.00  0.00    -0.355 N 
ATOM     16  H   UNK d   1      22.205   0.930  32.758  0.00  0.00     0.162 HD
BRANCH  15  17
ATOM     17  C   UNK d   1      23.897  -0.365  32.893  0.00  0.00     0.084 A 
ATOM     18  C   UNK d   1      23.166  -1.568  33.322  0.00  0.00     0.027 A 
ATOM     19  C   UNK d   1      23.490  -1.385  31.851  0.00  0.00     0.027 A 
ENDBRANCH  15  17
ENDBRANCH  12  13
ENDBRANCH   9  12
ENDBRANCH   5   6
ENDBRANCH   2   5
BRANCH   1  20
ATOM     20  C   UNK d   1      22.250  10.670  31.658  0.00  0.00     0.054 A 
ATOM     21  C   UNK d   1      21.130  10.498  32.456  0.00  0.00     0.040 A 
ATOM     22 Br   UNK d   1      20.725   8.719  33.046  0.00  0.00    -0.049 Br
ATOM     23  C   UNK d   1      20.299  11.529  32.834  0.00  0.00     0.055 A 
ATOM     24  C   UNK d   1      20.551  12.814  32.422  0.00  0.00     0.089 A 
ATOM     25  N   UNK d   1      19.972  14.017  32.598  0.00  0.00    -0.207 NA
ATOM     26  C   UNK d   1      21.651  13.005  31.635  0.00  0.00     0.066 A 
ATOM     27  C   UNK d   1      20.665  14.971  31.948  0.00  0.00     0.244 A 
ATOM     28  N   UNK d   1      21.691  14.326  31.365  0.00  0.00    -0.319 N 
ATOM     29  H   UNK d   1      22.437  14.783  30.770  0.00  0.00     0.169 HD
ATOM     30  C   UNK d   1      22.501  11.959  31.248  0.00  0.00     0.063 A 
BRANCH  27  31
ATOM     31  O   UNK d   1      20.365  16.347  31.902  0.00  0.00    -0.331 OA
ATOM     32  H   UNK d   1      21.181  16.973  31.943  0.00  0.00     0.221 HD
ENDBRANCH  27  31
ENDBRANCH   1  20
TORSDOF 7
ENDMDL
