/Users/jonathanwahrer/Desktop/Msc/3_Semester/Drug_Design_Praktikum/waehrer_HTS_screening/HTS_experiment/out/docking_results/vina_output/3elj/0631_docked.pdbqt
 OpenBabel03192217463D

 29 32  0  0  1  0  0  0  0  0999 V2000
   20.5530    7.9110   32.0310 N   0  0  0  0  0  0  0  0  0  0  0  0
   21.0640    9.2980   31.9670 C   0  0  0  0  0  2  0  0  0  0  0  0
   20.4430    9.9460   33.1940 C   0  0  2  0  0  3  0  0  0  0  0  0
   19.1130    9.2330   33.3130 C   0  0  0  0  0  2  0  0  0  0  0  0
   19.2090    7.9930   32.5010 C   0  0  0  0  0  0  0  0  0  0  0  0
   18.3080    7.1760   32.2640 O   0  0  0  0  0  0  0  0  0  0  0  0
   20.3420   11.3790   32.8720 C   0  0  0  0  0  0  0  0  0  0  0  0
   19.3900   12.0740   33.2970 O   0  0  0  0  0  0  0  0  0  0  0  0
   21.3590   11.9570   32.0650 N   0  0  0  0  0  0  0  0  0  0  0  0
   22.1250   11.3420   31.7280 H   0  0  0  0  0  0  0  0  0  0  0  0
   21.3410   13.3580   31.7080 C   0  0  0  0  0  2  0  0  0  0  0  0
   22.7220   13.9770   31.7040 C   0  0  0  0  0  2  0  0  0  0  0  0
   23.6810   13.1140   30.9860 C   0  0  0  0  0  0  0  0  0  0  0  0
   24.3490   12.1010   31.5610 N   0  0  0  0  0  0  0  0  0  0  0  0
   25.1360   11.5040   30.6640 C   0  0  0  0  0  3  0  0  0  0  0  0
   24.9720   12.1500   29.4780 N   0  0  0  0  0  0  0  0  0  0  0  0
   24.0840   13.1270   29.6870 C   0  0  0  0  0  3  0  0  0  0  0  0
   25.4850   11.8700   28.6120 H   0  0  0  0  0  0  0  0  0  0  0  0
   21.3610    6.8110   31.6870 C   0  0  0  0  0  0  0  0  0  0  0  0
   21.2010    5.5030   31.9330 N   0  0  0  0  0  0  0  0  0  0  0  0
   22.2040    4.7940   31.4230 N   0  0  0  0  0  0  0  0  0  0  0  0
   20.4130    5.0650   32.4490 H   0  0  0  0  0  0  0  0  0  0  0  0
   23.0740    5.6170   30.8130 C   0  0  0  0  0  0  0  0  0  0  0  0
   24.2540    5.3970   30.1400 C   0  0  0  0  0  3  0  0  0  0  0  0
   22.5690    6.8790   30.9660 C   0  0  0  0  0  0  0  0  0  0  0  0
   24.9140    6.5080   29.6190 C   0  0  0  0  0  0  0  0  0  0  0  0
   26.5630    6.3150   28.6640 Br  0  0  0  0  0  0  0  0  0  0  0  0
   24.3870    7.7810   29.7830 C   0  0  0  0  0  3  0  0  0  0  0  0
   23.2080    7.9760   30.4590 C   0  0  0  0  0  3  0  0  0  0  0  0
  1  5  1  0  0  0  0
  2  1  1  0  0  0  0
  2  3  1  0  0  0  0
  3  7  1  6  0  0  0
  3  4  1  0  0  0  0
  5  4  1  0  0  0  0
  6  5  2  0  0  0  0
  7  8  2  0  0  0  0
  9  7  1  0  0  0  0
 10  9  1  0  0  0  0
 11  9  1  0  0  0  0
 12 11  1  0  0  0  0
 13 14  1  0  0  0  0
 13 12  1  0  0  0  0
 15 14  2  0  0  0  0
 16 17  1  0  0  0  0
 16 15  1  0  0  0  0
 17 13  2  0  0  0  0
 18 16  1  0  0  0  0
 19 20  1  0  0  0  0
 19  1  1  0  0  0  0
 20 22  1  0  0  0  0
 21 20  1  0  0  0  0
 23 25  1  0  0  0  0
 23 21  2  0  0  0  0
 24 23  1  0  0  0  0
 25 19  2  0  0  0  0
 26 28  1  0  0  0  0
 26 24  2  0  0  0  0
 27 26  1  0  0  0  0
 28 29  2  0  0  0  0
 29 25  1  0  0  0  0
M  END
>  <Pose>
1

>  <Score>
-8.727

$$$$
