MODEL 1
REMARK VINA RESULT:    -7.153      0.000      0.000
REMARK INTER + INTRA:          -9.266
REMARK INTER:                  -8.826
REMARK INTRA:                  -0.440
REMARK UNBOUND:                -0.440
REMARK  4 active torsions:
REMARK  status: ('A' for Active; 'I' for Inactive)
REMARK    1  A    between atoms: N_4  and  C_31 
REMARK    2  A    between atoms: C_6  and  C_7 
REMARK       I    between atoms: C_7  and  N_9 
REMARK       I    between atoms: N_12  and  C_15 
REMARK    3  A    between atoms: C_15  and  C_17 
REMARK    4  A    between atoms: C_20  and  C_22 
REMARK       I    between atoms: C_22  and  N_24 
ROOT
ATOM      1  C   UNK d   1      28.837  15.321  27.266  0.00  0.00     0.275 C 
ATOM      2  O   UNK d   1      27.691  15.898  27.259  0.00  0.00    -0.266 OA
ATOM      3  N   UNK d   1      28.934  14.093  26.667  0.00  0.00    -0.344 N 
ATOM      4  C   UNK d   1      30.115  13.290  26.587  0.00  0.00     0.146 C 
ATOM      5  C   UNK d   1      29.961  12.118  27.500  0.00  0.00     0.145 C 
ATOM      6  N   UNK d   1      28.561  11.766  27.687  0.00  0.00    -0.355 N 
ATOM      7  C   UNK d   1      27.532  12.129  26.770  0.00  0.00     0.145 C 
ATOM      8  C   UNK d   1      27.766  13.445  26.035  0.00  0.00     0.146 C 
ATOM      9  C   UNK d   1      28.304  11.070  28.916  0.00  0.00     0.205 C 
ATOM     10  O   UNK d   1      29.311  10.926  29.727  0.00  0.00    -0.170 OA
ENDROOT
BRANCH   9  11
ATOM     11  C   UNK d   1      27.044  10.537  29.302  0.00  0.00     0.108 A 
ATOM     12  N   UNK d   1      26.710   9.196  29.155  0.00  0.00    -0.269 N 
ATOM     13  N   UNK d   1      25.488   9.005  29.530  0.00  0.00    -0.167 NA
ATOM     14  C   UNK d   1      27.590   8.162  28.663  0.00  0.00     0.180 C 
ATOM     15  C   UNK d   1      24.924  10.139  29.938  0.00  0.00     0.147 A 
ATOM     16  C   UNK d   1      25.926  11.118  29.789  0.00  0.00     0.075 A 
BRANCH  15  17
ATOM     17  C   UNK d   1      23.588  10.375  30.455  0.00  0.00     0.274 C 
ATOM     18  O   UNK d   1      22.708   9.482  30.186  0.00  0.00    -0.266 OA
ATOM     19  N   UNK d   1      23.197  11.473  31.205  0.00  0.00    -0.343 N 
ATOM     20  C   UNK d   1      21.805  11.533  31.665  0.00  0.00     0.152 C 
ATOM     21  C   UNK d   1      24.045  12.571  31.550  0.00  0.00     0.152 C 
ATOM     22  C   UNK d   1      21.278  12.877  31.207  0.00  0.00     0.187 C 
ATOM     23  O   UNK d   1      22.003  13.831  31.944  0.00  0.00    -0.388 OA
ATOM     24  C   UNK d   1      23.290  13.893  31.488  0.00  0.00     0.187 C 
ENDBRANCH  15  17
ENDBRANCH   9  11
BRANCH   1  25
ATOM     25  C   UNK d   1      29.896  16.050  27.917  0.00  0.00     0.163 A 
ATOM     26  C   UNK d   1      30.720  17.034  27.362  0.00  0.00     0.064 A 
ATOM     27 Br   UNK d   1      30.603  17.641  25.541  0.00  0.00    -0.047 Br
ATOM     28  C   UNK d   1      31.593  17.469  28.322  0.00  0.00     0.134 A 
ATOM     29  N   UNK d   1      31.326  16.782  29.438  0.00  0.00    -0.279 N 
ATOM     30  N   UNK d   1      30.341  15.957  29.204  0.00  0.00    -0.166 NA
BRANCH  29  31
ATOM     31  C   UNK d   1      32.080  16.991  30.668  0.00  0.00     0.146 C 
ATOM     32  C   UNK d   1      31.416  17.964  31.605  0.00  0.00     0.028 C 
ENDBRANCH  29  31
ENDBRANCH   1  25
TORSDOF 4
ENDMDL
