MODEL 1
REMARK VINA RESULT:    -8.671      0.000      0.000
REMARK INTER + INTRA:         -11.945
REMARK INTER:                 -11.206
REMARK INTRA:                  -0.739
REMARK UNBOUND:                -0.739
REMARK  5 active torsions:
REMARK  status: ('A' for Active; 'I' for Inactive)
REMARK    1  A    between atoms: N_4  and  C_7 
REMARK    2  A    between atoms: C_7  and  C_8 
REMARK       I    between atoms: C_8  and  N_10 
REMARK    3  A    between atoms: N_10  and  C_11 
REMARK    4  A    between atoms: C_11  and  C_12 
REMARK    5  A    between atoms: C_15  and  O_24 
ROOT
ATOM      1  C   UNK d   1      22.000  10.847  32.010  0.00  0.00     0.003 A 
ATOM      2  C   UNK d   1      20.920  10.332  32.683  0.00  0.00     0.116 A 
ATOM      3  C   UNK d   1      19.860  11.136  33.059  0.00  0.00     0.140 A 
ATOM      4  C   UNK d   1      19.855  12.483  32.772  0.00  0.00     0.120 A 
ATOM      5  C   UNK d   1      20.957  13.024  32.083  0.00  0.00     0.075 A 
ATOM      6  C   UNK d   1      22.007  12.227  31.709  0.00  0.00    -0.027 A 
ATOM      7  C   UNK d   1      23.143  12.801  30.984  0.00  0.00     0.060 C 
ATOM      8  C   UNK d   1      23.358  14.258  31.092  0.00  0.00     0.130 C 
ATOM      9  N   UNK d   1      22.127  15.031  31.198  0.00  0.00    -0.352 N 
ATOM     10  C   UNK d   1      20.990  14.461  31.832  0.00  0.00     0.256 C 
ATOM     11  O   UNK d   1      20.028  15.217  32.166  0.00  0.00    -0.267 OA
ATOM     12  C   UNK d   1      22.149  16.369  30.654  0.00  0.00     0.152 C 
ATOM     13  O   UNK d   1      18.955  10.315  33.703  0.00  0.00    -0.320 OA
ATOM     14  C   UNK d   1      19.337   8.968  33.583  0.00  0.00     0.352 C 
ATOM     15  O   UNK d   1      20.676   9.003  33.097  0.00  0.00    -0.322 OA
ENDROOT
BRANCH   1  16
ATOM     16  C   UNK d   1      23.167  10.022  31.633  0.00  0.00     0.164 C 
BRANCH  16  17
ATOM     17  N   UNK d   1      22.806   8.742  31.050  0.00  0.00    -0.355 N 
ATOM     18  C   UNK d   1      23.402   8.053  30.017  0.00  0.00     0.237 C 
ATOM     19  O   UNK d   1      24.423   8.511  29.410  0.00  0.00    -0.272 OA
ATOM     20  H   UNK d   1      21.954   8.299  31.520  0.00  0.00     0.162 HD
BRANCH  18  21
ATOM     21  C   UNK d   1      22.872   6.738  29.565  0.00  0.00     0.253 C 
BRANCH  21  22
ATOM     22  N   UNK d   1      23.536   5.708  30.388  0.00  0.00    -0.271 N 
ATOM     23  C   UNK d   1      22.978   4.923  31.303  0.00  0.00     0.133 A 
ATOM     24  C   UNK d   1      23.957   4.111  31.825  0.00  0.00     0.047 A 
ATOM     25 Br   UNK d   1      23.770   2.778  33.179  0.00  0.00    -0.048 Br
ATOM     26  C   UNK d   1      25.141   4.425  31.198  0.00  0.00     0.159 A 
ATOM     27  N   UNK d   1      24.830   5.401  30.333  0.00  0.00    -0.183 NA
ENDBRANCH  21  22
ENDBRANCH  18  21
ENDBRANCH  16  17
ENDBRANCH   1  16
BRANCH   4  28
ATOM     28  O   UNK d   1      18.811  13.317  33.131  0.00  0.00    -0.352 OA
ATOM     29  C   UNK d   1      17.486  13.049  32.722  0.00  0.00     0.210 C 
ENDBRANCH   4  28
TORSDOF 5
ENDMDL
