MODEL 1
REMARK VINA RESULT:    -8.156      0.000      0.000
REMARK INTER + INTRA:          -9.986
REMARK INTER:                  -9.586
REMARK INTRA:                  -0.400
REMARK UNBOUND:                -0.400
REMARK  3 active torsions:
REMARK  status: ('A' for Active; 'I' for Inactive)
REMARK    1  A    between atoms: N_4  and  C_7 
REMARK    2  A    between atoms: C_7  and  N_8 
REMARK    3  A    between atoms: C_10  and  C_13 
ROOT
ATOM      1  C   UNK d   1      21.873   9.985  31.864  0.00  0.00     0.202 A 
ATOM      2  N   UNK d   1      23.096  10.479  31.616  0.00  0.00    -0.142 NA
ATOM      3  N   UNK d   1      23.063  11.812  31.622  0.00  0.00    -0.206 N 
ATOM      4  C   UNK d   1      21.778  12.187  31.883  0.00  0.00     0.170 A 
ATOM      5  N   UNK d   1      21.070  11.049  32.026  0.00  0.00    -0.205 NA
ATOM      6  C   UNK d   1      21.487  13.533  31.942  0.00  0.00     0.078 A 
ATOM      7  C   UNK d   1      22.445  14.512  31.747  0.00  0.00     0.160 A 
ATOM      8  N   UNK d   1      21.870  15.721  31.864  0.00  0.00    -0.261 N 
ATOM      9  N   UNK d   1      20.588  15.520  32.124  0.00  0.00    -0.184 NA
ATOM     10  C   UNK d   1      20.315  14.199  32.179  0.00  0.00     0.158 A 
ATOM     11  N   UNK d   1      23.696  14.096  31.493  0.00  0.00    -0.222 NA
ATOM     12  C   UNK d   1      23.975  12.784  31.438  0.00  0.00     0.239 A 
ATOM     13  H   UNK d   1      22.321  16.656  31.772  0.00  0.00     0.191 HD
ENDROOT
BRANCH   1  14
ATOM     14  C   UNK d   1      21.510   8.571  31.938  0.00  0.00     0.128 A 
ATOM     15  N   UNK d   1      21.930   7.563  31.155  0.00  0.00    -0.167 NA
ATOM     16  N   UNK d   1      21.385   6.416  31.522  0.00  0.00    -0.261 N 
ATOM     17  C   UNK d   1      20.578   6.632  32.574  0.00  0.00     0.117 A 
ATOM     18  C   UNK d   1      20.647   7.994  32.847  0.00  0.00     0.056 A 
BRANCH  16  19
ATOM     19  C   UNK d   1      21.627   5.120  30.882  0.00  0.00     0.300 C 
BRANCH  19  20
ATOM     20  N   UNK d   1      22.931   4.594  31.227  0.00  0.00    -0.260 N 
ATOM     21  C   UNK d   1      24.078   4.816  30.563  0.00  0.00     0.135 A 
ATOM     22  C   UNK d   1      25.090   4.138  31.212  0.00  0.00     0.047 A 
ATOM     23 Br   UNK d   1      26.915   4.092  30.718  0.00  0.00    -0.048 Br
ATOM     24  C   UNK d   1      24.509   3.505  32.287  0.00  0.00     0.159 A 
ATOM     25  N   UNK d   1      23.191   3.811  32.258  0.00  0.00    -0.182 NA
ENDBRANCH  19  20
ENDBRANCH  16  19
ENDBRANCH   1  14
TORSDOF 3
ENDMDL
