MODEL 1
REMARK VINA RESULT:    -7.860      0.000      0.000
REMARK INTER + INTRA:          -9.317
REMARK INTER:                  -8.779
REMARK INTRA:                  -0.538
REMARK UNBOUND:                -0.538
REMARK  2 active torsions:
REMARK  status: ('A' for Active; 'I' for Inactive)
REMARK    1  A    between atoms: N_4  and  C_7 
REMARK    2  A    between atoms: C_10  and  C_13 
REMARK       I    between atoms: C_13  and  N_15 
ROOT
ATOM      1  C   UNK d   1      26.336   4.356  30.291  0.00  0.00     0.253 C 
ATOM      2  O   UNK d   1      27.229   4.362  31.230  0.00  0.00    -0.267 OA
ATOM      3  N   UNK d   1      26.717   3.755  29.104  0.00  0.00    -0.348 N 
ATOM      4  C   UNK d   1      25.996   3.513  27.884  0.00  0.00     0.129 C 
ATOM      5  C   UNK d   1      26.413   4.588  26.899  0.00  0.00     0.061 C 
ATOM      6  C   UNK d   1      27.889   4.896  27.049  0.00  0.00     0.118 C 
ATOM      7  N   UNK d   1      28.418   5.111  25.719  0.00  0.00    -0.324 N 
ATOM      8  C   UNK d   1      28.187   6.469  25.373  0.00  0.00     0.323 C 
ATOM      9  O   UNK d   1      28.166   6.989  24.210  0.00  0.00    -0.247 OA
ATOM     10  N   UNK d   1      27.976   7.177  26.604  0.00  0.00    -0.277 N 
ATOM     11  C   UNK d   1      28.085   6.216  27.677  0.00  0.00     0.254 C 
ATOM     12  O   UNK d   1      28.303   6.516  28.870  0.00  0.00    -0.270 OA
ATOM     13  C   UNK d   1      28.666   3.795  27.695  0.00  0.00     0.061 C 
ATOM     14  C   UNK d   1      28.139   3.298  28.998  0.00  0.00     0.129 C 
ATOM     15  H   UNK d   1      28.888   4.427  25.095  0.00  0.00     0.165 HD
ATOM     16  H   UNK d   1      27.778   8.190  26.755  0.00  0.00     0.173 HD
ENDROOT
BRANCH   1  17
ATOM     17  C   UNK d   1      25.087   4.986  30.655  0.00  0.00     0.032 A 
ATOM     18  C   UNK d   1      24.077   4.213  31.263  0.00  0.00     0.019 A 
ATOM     19  C   UNK d   1      22.882   4.744  31.671  0.00  0.00     0.032 A 
ATOM     20  C   UNK d   1      22.589   6.077  31.515  0.00  0.00     0.058 A 
ATOM     21  C   UNK d   1      23.553   6.850  30.927  0.00  0.00     0.032 A 
ATOM     22  C   UNK d   1      24.782   6.318  30.506  0.00  0.00     0.019 A 
BRANCH  20  23
ATOM     23  N   UNK d   1      21.342   6.600  31.948  0.00  0.00    -0.244 N 
ATOM     24  C   UNK d   1      21.047   7.854  32.336  0.00  0.00     0.139 A 
ATOM     25  C   UNK d   1      19.714   7.926  32.676  0.00  0.00     0.047 A 
ATOM     26 Br   UNK d   1      18.749   9.471  33.299  0.00  0.00    -0.048 Br
ATOM     27  C   UNK d   1      19.217   6.658  32.475  0.00  0.00     0.159 A 
ATOM     28  N   UNK d   1      20.227   5.907  32.042  0.00  0.00    -0.179 NA
ENDBRANCH  20  23
ENDBRANCH   1  17
TORSDOF 2
ENDMDL
