/Users/jonathanwahrer/Desktop/Msc/3_Semester/Drug_Design_Praktikum/waehrer_HTS_screening/HTS_experiment/out/docking_results/vina_output/3elj/0670_docked.pdbqt
 OpenBabel03192217473D

 23 27  0  0  1  0  0  0  0  0999 V2000
   22.8270   11.1880   31.6770 C   0  0  0  0  0  2  0  0  0  0  0  0
   23.3990   10.0130   30.9480 C   0  0  1  0  0  3  0  0  0  0  0  0
   24.2160   10.3370   29.7130 C   0  0  2  0  0  3  0  0  0  0  0  0
   24.9970    9.1860   30.0650 N   0  0  0  0  0  0  0  0  0  0  0  0
   24.7720    9.5590   31.4330 C   0  0  2  0  0  3  0  0  0  0  0  0
   25.6680    8.1720   29.3740 C   0  0  0  0  0  0  0  0  0  0  0  0
   26.9040    8.3080   28.8470 N   0  0  0  0  0  0  0  0  0  0  0  0
   27.5590    7.3600   28.1890 C   0  0  0  0  0  3  0  0  0  0  0  0
   26.9690    6.1290   28.0090 C   0  0  0  0  0  0  0  0  0  0  0  0
   27.8880    4.7420   27.0640 Br  0  0  0  0  0  0  0  0  0  0  0  0
   25.7070    5.9510   28.5330 C   0  0  0  0  0  3  0  0  0  0  0  0
   25.0900    6.9480   29.1920 N   0  0  0  0  0  0  0  0  0  0  0  0
   21.5690   10.7860   32.2480 N   0  0  0  0  0  0  0  0  0  0  0  0
   21.2040    9.4400   32.2720 N   0  0  0  0  0  0  0  0  0  0  0  0
   19.9730    8.9940   32.8250 C   0  0  0  0  0  0  0  0  0  0  0  0
   21.8930    8.7490   31.8540 H   0  0  0  0  0  0  0  0  0  0  0  0
   19.6770    7.7090   32.8220 C   0  0  0  0  0  0  0  0  0  0  0  0
   19.0390    9.9470   33.3920 C   0  0  0  0  0  3  0  0  0  0  0  0
   19.8970    6.2740   32.5500 C   0  0  0  0  0  2  0  0  0  0  0  0
   18.6550    6.6570   33.2040 C   0  0  0  0  0  2  0  0  0  0  0  0
   19.3640   11.2300   33.3800 C   0  0  0  0  0  3  0  0  0  0  0  0
   20.6410   11.7030   32.8090 C   0  0  0  0  0  0  0  0  0  0  0  0
   20.9270   12.9300   32.8090 O   0  0  0  0  0  0  0  0  0  0  0  0
  1 13  1  0  0  0  0
  2  5  1  0  0  0  0
  2  1  1  1  0  0  0
  3  4  1  6  0  0  0
  3  2  1  0  0  0  0
  3  5  1  0  0  0  0
  5  4  1  6  0  0  0
  6  4  1  0  0  0  0
  7  6  2  0  0  0  0
  8  7  1  0  0  0  0
  9  8  2  0  0  0  0
  9 11  1  0  0  0  0
 10  9  1  0  0  0  0
 11 12  2  0  0  0  0
 12  6  1  0  0  0  0
 13 14  1  0  0  0  0
 13 22  1  0  0  0  0
 14 15  1  0  0  0  0
 15 18  1  0  0  0  0
 16 14  1  0  0  0  0
 17 15  2  0  0  0  0
 17 20  1  0  0  0  0
 19 17  1  0  0  0  0
 19 20  1  0  0  0  0
 21 18  2  0  0  0  0
 22 21  1  0  0  0  0
 23 22  2  0  0  0  0
M  END
>  <Pose>
1

>  <Score>
-7.750

$$$$
