MODEL 1
REMARK VINA RESULT:    -7.750      0.000      0.000
REMARK INTER + INTRA:          -9.586
REMARK INTER:                  -9.109
REMARK INTRA:                  -0.477
REMARK UNBOUND:                -0.477
REMARK  3 active torsions:
REMARK  status: ('A' for Active; 'I' for Inactive)
REMARK    1  A    between atoms: C_5  and  N_8 
REMARK    2  A    between atoms: C_10  and  C_12 
REMARK    3  A    between atoms: C_12  and  N_13 
ROOT
ATOM      1  C   UNK d   1      22.827  11.188  31.677  0.00  0.00     0.160 C 
ENDROOT
BRANCH   1   2
ATOM      2  C   UNK d   1      23.399  10.013  30.948  0.00  0.00     0.043 C 
ATOM      3  C   UNK d   1      24.216  10.337  29.713  0.00  0.00     0.149 C 
ATOM      4  N   UNK d   1      24.997   9.186  30.065  0.00  0.00    -0.213 N 
ATOM      5  C   UNK d   1      24.772   9.559  31.433  0.00  0.00     0.149 C 
BRANCH   4   6
ATOM      6  C   UNK d   1      25.668   8.172  29.374  0.00  0.00     0.724 A 
ATOM      7  N   UNK d   1      26.904   8.308  28.847  0.00  0.00    -0.074 NA
ATOM      8  C   UNK d   1      27.559   7.360  28.189  0.00  0.00     0.157 A 
ATOM      9  C   UNK d   1      26.969   6.129  28.009  0.00  0.00     0.047 A 
ATOM     10 Br   UNK d   1      27.888   4.742  27.064  0.00  0.00    -0.048 Br
ATOM     11  C   UNK d   1      25.707   5.951  28.533  0.00  0.00     0.157 A 
ATOM     12  N   UNK d   1      25.090   6.948  29.192  0.00  0.00    -0.074 NA
ENDBRANCH   4   6
ENDBRANCH   1   2
BRANCH   1  13
ATOM     13  N   UNK d   1      21.569  10.786  32.248  0.00  0.00    -0.257 N 
ATOM     14  N   UNK d   1      21.204   9.440  32.272  0.00  0.00    -0.296 N 
ATOM     15  C   UNK d   1      19.973   8.994  32.825  0.00  0.00     0.051 A 
ATOM     16  H   UNK d   1      21.893   8.749  31.854  0.00  0.00     0.187 HD
ATOM     17  C   UNK d   1      19.677   7.709  32.822  0.00  0.00    -0.051 A 
ATOM     18  C   UNK d   1      19.039   9.947  33.392  0.00  0.00     0.036 A 
ATOM     19  C   UNK d   1      19.897   6.274  32.550  0.00  0.00     0.041 A 
ATOM     20  C   UNK d   1      18.655   6.657  33.204  0.00  0.00     0.041 A 
ATOM     21  C   UNK d   1      19.364  11.230  33.380  0.00  0.00     0.078 A 
ATOM     22  C   UNK d   1      20.641  11.703  32.809  0.00  0.00     0.262 A 
ATOM     23  O   UNK d   1      20.927  12.930  32.809  0.00  0.00    -0.267 OA
ENDBRANCH   1  13
TORSDOF 3
ENDMDL
