/Users/jonathanwahrer/Desktop/Msc/3_Semester/Drug_Design_Praktikum/waehrer_HTS_screening/HTS_experiment/out/docking_results/vina_output/3elj/0677_docked.pdbqt
 OpenBabel03192217473D

 29 32  0  0  0  0  0  0  0  0999 V2000
   22.4550   13.0130   30.4310 C   0  0  0  0  0  0  0  0  0  0  0  0
   21.5630   13.0860   31.5600 C   0  0  0  0  0  0  0  0  0  0  0  0
   21.0590   14.2740   31.9420 C   0  0  0  0  0  0  0  0  0  0  0  0
   21.3870   15.4580   31.2560 C   0  0  0  0  0  0  0  0  0  0  0  0
   22.2370   15.4070   30.1780 C   0  0  0  0  0  0  0  0  0  0  0  0
   22.7710   14.1740   29.7720 C   0  0  0  0  0  0  0  0  0  0  0  0
   23.7650   14.1130   28.6700 C   0  0  0  0  0  2  0  0  0  0  0  0
   24.4160   15.4570   28.3590 C   0  0  0  0  0  2  0  0  0  0  0  0
   23.4390   16.5180   28.2790 N   0  0  0  0  0  0  0  0  0  0  0  0
   22.5740   16.6080   29.4190 C   0  0  0  0  0  0  0  0  0  0  0  0
   22.1460   17.7450   29.7040 O   0  0  0  0  0  0  0  0  0  0  0  0
   23.3430   17.4110   27.1440 C   0  0  0  0  0  1  0  0  0  0  0  0
   20.2360   14.0360   33.0540 O   0  0  0  0  0  0  0  0  0  0  0  0
   20.0290   12.6480   33.2100 C   0  0  0  0  0  2  0  0  0  0  0  0
   21.0650   12.1010   32.4190 O   0  0  0  0  0  0  0  0  0  0  0  0
   22.8730   11.6510   30.1770 C   0  0  0  0  0  2  0  0  0  0  0  0
   22.0810   10.5110   30.3360 N   0  0  0  0  0  0  0  0  0  0  0  0
   22.5650    9.5330   31.3320 C   0  0  0  0  0  0  0  0  0  0  0  0
   23.6150    9.7850   31.9470 O   0  0  0  0  0  0  0  0  0  0  0  0
   21.1860   10.2110   29.9240 H   0  0  0  0  0  0  0  0  0  0  0  0
   21.8350    8.3140   31.5850 C   0  0  0  0  0  0  0  0  0  0  0  0
   22.4480    7.1100   31.2580 C   0  0  0  0  0  3  0  0  0  0  0  0
   21.8340    5.9340   31.4560 N   0  0  0  0  0  0  0  0  0  0  0  0
   20.6090    5.9080   31.9780 C   0  0  0  0  0  3  0  0  0  0  0  0
   19.9630    7.0550   32.3160 C   0  0  0  0  0  0  0  0  0  0  0  0
   18.2060    6.9960   33.0630 Br  0  0  0  0  0  0  0  0  0  0  0  0
   20.5690    8.2960   32.1240 C   0  0  0  0  0  3  0  0  0  0  0  0
   20.8410   16.6040   31.6980 O   0  0  0  0  0  0  0  0  0  0  0  0
   20.5040   17.3750   31.2310 H   0  0  0  0  0  0  0  0  0  0  0  0
  1  2  1  0  0  0  0
  2  3  2  0  0  0  0
  2 15  1  0  0  0  0
  3 13  1  0  0  0  0
  4 28  1  0  0  0  0
  4  3  1  0  0  0  0
  5  4  2  0  0  0  0
  6  5  1  0  0  0  0
  6  1  2  0  0  0  0
  7  6  1  0  0  0  0
  8  7  1  0  0  0  0
  9  8  1  0  0  0  0
  9 10  1  0  0  0  0
 10 11  2  0  0  0  0
 10  5  1  0  0  0  0
 12  9  1  0  0  0  0
 13 14  1  0  0  0  0
 15 14  1  0  0  0  0
 16 17  1  0  0  0  0
 16  1  1  0  0  0  0
 17 18  1  0  0  0  0
 18 21  1  0  0  0  0
 18 19  2  0  0  0  0
 20 17  1  0  0  0  0
 21 27  1  0  0  0  0
 22 23  1  0  0  0  0
 22 21  2  0  0  0  0
 23 24  2  0  0  0  0
 24 25  1  0  0  0  0
 25 26  1  0  0  0  0
 27 25  2  0  0  0  0
 29 28  1  0  0  0  0
M  END
>  <Pose>
1

>  <Score>
-9.367

$$$$
