MODEL 1
REMARK VINA RESULT:    -9.367      0.000      0.000
REMARK INTER + INTRA:         -11.937
REMARK INTER:                 -11.284
REMARK INTRA:                  -0.653
REMARK UNBOUND:                -0.653
REMARK  4 active torsions:
REMARK  status: ('A' for Active; 'I' for Inactive)
REMARK    1  A    between atoms: C_6  and  C_8 
REMARK       I    between atoms: C_8  and  N_10 
REMARK    2  A    between atoms: N_10  and  C_11 
REMARK    3  A    between atoms: C_11  and  C_12 
REMARK    4  A    between atoms: C_15  and  O_24 
ROOT
ATOM      1  C   UNK d   1      22.455  13.013  30.431  0.00  0.00     0.003 A 
ATOM      2  C   UNK d   1      21.563  13.086  31.560  0.00  0.00     0.116 A 
ATOM      3  C   UNK d   1      21.059  14.274  31.942  0.00  0.00     0.139 A 
ATOM      4  C   UNK d   1      21.387  15.458  31.256  0.00  0.00     0.118 A 
ATOM      5  C   UNK d   1      22.237  15.407  30.178  0.00  0.00     0.075 A 
ATOM      6  C   UNK d   1      22.771  14.174  29.772  0.00  0.00    -0.027 A 
ATOM      7  C   UNK d   1      23.765  14.113  28.670  0.00  0.00     0.060 C 
ATOM      8  C   UNK d   1      24.416  15.457  28.359  0.00  0.00     0.130 C 
ATOM      9  N   UNK d   1      23.439  16.518  28.279  0.00  0.00    -0.352 N 
ATOM     10  C   UNK d   1      22.574  16.608  29.419  0.00  0.00     0.256 C 
ATOM     11  O   UNK d   1      22.146  17.745  29.704  0.00  0.00    -0.267 OA
ATOM     12  C   UNK d   1      23.343  17.411  27.144  0.00  0.00     0.152 C 
ATOM     13  O   UNK d   1      20.236  14.036  33.054  0.00  0.00    -0.320 OA
ATOM     14  C   UNK d   1      20.029  12.648  33.210  0.00  0.00     0.352 C 
ATOM     15  O   UNK d   1      21.065  12.101  32.419  0.00  0.00    -0.322 OA
ENDROOT
BRANCH   1  16
ATOM     16  C   UNK d   1      22.873  11.651  30.177  0.00  0.00     0.165 C 
BRANCH  16  17
ATOM     17  N   UNK d   1      22.081  10.511  30.336  0.00  0.00    -0.352 N 
ATOM     18  C   UNK d   1      22.565   9.533  31.332  0.00  0.00     0.253 C 
ATOM     19  O   UNK d   1      23.615   9.785  31.947  0.00  0.00    -0.268 OA
ATOM     20  H   UNK d   1      21.186  10.211  29.924  0.00  0.00     0.163 HD
BRANCH  18  21
ATOM     21  C   UNK d   1      21.835   8.314  31.585  0.00  0.00     0.050 A 
ATOM     22  C   UNK d   1      22.448   7.110  31.258  0.00  0.00     0.133 A 
ATOM     23  N   UNK d   1      21.834   5.934  31.456  0.00  0.00    -0.271 NA
ATOM     24  C   UNK d   1      20.609   5.908  31.978  0.00  0.00     0.135 A 
ATOM     25  C   UNK d   1      19.963   7.055  32.316  0.00  0.00     0.029 A 
ATOM     26 Br   UNK d   1      18.206   6.996  33.063  0.00  0.00    -0.050 Br
ATOM     27  C   UNK d   1      20.569   8.296  32.124  0.00  0.00     0.039 A 
ENDBRANCH  18  21
ENDBRANCH  16  17
ENDBRANCH   1  16
BRANCH   4  28
ATOM     28  O   UNK d   1      20.841  16.604  31.698  0.00  0.00    -0.357 OA
ATOM     29  H   UNK d   1      20.504  17.375  31.231  0.00  0.00     0.217 HD
ENDBRANCH   4  28
TORSDOF 4
ENDMDL
