MODEL 1
REMARK VINA RESULT:    -7.866      0.000      0.000
REMARK INTER + INTRA:          -8.042
REMARK INTER:                  -8.785
REMARK INTRA:                   0.744
REMARK UNBOUND:                 0.744
REMARK  2 active torsions:
REMARK  status: ('A' for Active; 'I' for Inactive)
REMARK    1  A    between atoms: C_6  and  C_8 
REMARK       I    between atoms: C_8  and  N_10 
REMARK    2  A    between atoms: C_12  and  N_14 
ROOT
ATOM      1  C   UNK d   1      23.087   5.416  30.928  0.00  0.00     0.255 C 
ATOM      2  O   UNK d   1      21.889   5.109  30.574  0.00  0.00    -0.267 OA
ATOM      3  N   UNK d   1      23.452   6.774  30.867  0.00  0.00    -0.344 N 
ATOM      4  C   UNK d   1      24.587   7.609  31.108  0.00  0.00     0.153 C 
ATOM      5  C   UNK d   1      24.005   8.581  30.066  0.00  0.00     0.132 C 
ATOM      6  C   UNK d   1      22.716   8.006  30.517  0.00  0.00     0.153 C 
ENDROOT
BRANCH   5   7
ATOM      7  N   UNK d   1      24.275   9.951  30.405  0.00  0.00    -0.280 N 
ATOM      8  C   UNK d   1      24.473  10.527  31.709  0.00  0.00     0.232 C 
ATOM      9  O   UNK d   1      24.872   9.903  32.708  0.00  0.00    -0.272 OA
ATOM     10  C   UNK d   1      24.103  11.978  31.569  0.00  0.00     0.095 C 
ATOM     11  C   UNK d   1      24.679  12.267  30.203  0.00  0.00     0.095 C 
ATOM     12  C   UNK d   1      22.616  12.057  31.634  0.00  0.00     0.041 C 
ATOM     13  C   UNK d   1      24.038  13.478  29.585  0.00  0.00     0.041 C 
ATOM     14  C   UNK d   1      24.399  11.017  29.470  0.00  0.00     0.232 C 
ATOM     15  C   UNK d   1      22.572  13.261  29.465  0.00  0.00    -0.030 C 
ATOM     16  C   UNK d   1      21.968  12.603  30.433  0.00  0.00    -0.030 C 
ATOM     17  O   UNK d   1      24.296  10.961  28.219  0.00  0.00    -0.272 OA
ENDBRANCH   5   7
BRANCH   1  18
ATOM     18  C   UNK d   1      23.907   4.304  31.349  0.00  0.00     0.051 A 
ATOM     19  C   UNK d   1      25.026   3.923  30.595  0.00  0.00     0.133 A 
ATOM     20  N   UNK d   1      25.809   2.893  30.933  0.00  0.00    -0.271 NA
ATOM     21  C   UNK d   1      25.556   2.154  32.043  0.00  0.00     0.135 A 
ATOM     22  C   UNK d   1      24.478   2.458  32.839  0.00  0.00     0.029 A 
ATOM     23 Br   UNK d   1      24.142   1.406  34.390  0.00  0.00    -0.050 Br
ATOM     24  C   UNK d   1      23.683   3.530  32.464  0.00  0.00     0.039 A 
ENDBRANCH   1  18
TORSDOF 2
ENDMDL
