MODEL 1
REMARK VINA RESULT:    -8.897      0.000      0.000
REMARK INTER + INTRA:         -10.631
REMARK INTER:                 -10.457
REMARK INTRA:                  -0.174
REMARK UNBOUND:                -0.174
REMARK  3 active torsions:
REMARK  status: ('A' for Active; 'I' for Inactive)
REMARK    1  A    between atoms: C_6  and  C_8 
REMARK       I    between atoms: C_8  and  N_10 
REMARK    2  A    between atoms: C_12  and  O_14 
REMARK    3  A    between atoms: O_14  and  C_15 
ROOT
ATOM      1  C   UNK d   1      22.459  16.419  30.025  0.00  0.00     0.255 C 
ATOM      2  O   UNK d   1      22.156  17.298  30.890  0.00  0.00    -0.267 OA
ATOM      3  N   UNK d   1      22.361  15.068  30.379  0.00  0.00    -0.343 N 
ATOM      4  C   UNK d   1      22.552  13.754  29.827  0.00  0.00     0.160 C 
ATOM      5  C   UNK d   1      21.932  13.082  31.043  0.00  0.00     0.166 C 
ATOM      6  C   UNK d   1      21.982  14.446  31.663  0.00  0.00     0.160 C 
ENDROOT
BRANCH   5   7
ATOM      7  O   UNK d   1      22.684  12.091  31.669  0.00  0.00    -0.325 OA
BRANCH   7   8
ATOM      8  C   UNK d   1      22.395  10.742  31.693  0.00  0.00     0.186 A 
ATOM      9  C   UNK d   1      23.166   9.890  31.023  0.00  0.00     0.087 A 
ATOM     10  C   UNK d   1      22.913   8.455  31.010  0.00  0.00     0.044 A 
ATOM     11  C   UNK d   1      23.701   7.636  30.335  0.00  0.00     0.043 C 
ATOM     12  N   UNK d   1      21.794   7.978  31.744  0.00  0.00    -0.189 N 
ATOM     13  C   UNK d   1      20.979   8.922  32.456  0.00  0.00     0.731 A 
ATOM     14  H   UNK d   1      21.605   6.962  31.742  0.00  0.00     0.184 HD
ATOM     15  N   UNK d   1      21.266  10.232  32.429  0.00  0.00    -0.038 N 
ATOM     16  N   UNK d   1      19.887   8.764  33.210  0.00  0.00    -0.054 NA
ATOM     17  N   UNK d   1      20.358  10.886  33.162  0.00  0.00    -0.143 NA
ATOM     18  C   UNK d   1      19.508   9.971  33.642  0.00  0.00     0.275 A 
ENDBRANCH   7   8
ENDBRANCH   5   7
BRANCH   1  19
ATOM     19  C   UNK d   1      22.889  16.869  28.724  0.00  0.00     0.051 A 
ATOM     20  C   UNK d   1      23.684  16.182  27.842  0.00  0.00     0.133 A 
ATOM     21  N   UNK d   1      24.039  16.677  26.621  0.00  0.00    -0.271 NA
ATOM     22  C   UNK d   1      23.635  17.877  26.190  0.00  0.00     0.135 A 
ATOM     23  C   UNK d   1      22.834  18.615  27.031  0.00  0.00     0.029 A 
ATOM     24 Br   UNK d   1      22.234  20.344  26.443  0.00  0.00    -0.050 Br
ATOM     25  C   UNK d   1      22.469  18.130  28.261  0.00  0.00     0.039 A 
ENDBRANCH   1  19
TORSDOF 3
ENDMDL
