MODEL 1
REMARK VINA RESULT:    -5.274      0.000      0.000
REMARK INTER + INTRA:          -5.618
REMARK INTER:                  -5.582
REMARK INTRA:                  -0.036
REMARK UNBOUND:                -0.036
REMARK  2 active torsions:
REMARK  status: ('A' for Active; 'I' for Inactive)
REMARK    1  A    between atoms: C_6  and  C_8 
REMARK    2  A    between atoms: C_21  and  N_22 
ROOT
ATOM      1 Br   UNK d   1      19.906  11.824  33.517  0.00  0.00    -0.050 Br
ATOM      2  C   UNK d   1      20.611  10.223  32.807  0.00  0.00     0.029 A 
ATOM      3  C   UNK d   1      21.783  10.255  32.069  0.00  0.00     0.135 A 
ATOM      4  N   UNK d   1      22.245   9.091  31.587  0.00  0.00    -0.271 NA
ATOM      5  C   UNK d   1      21.641   7.908  31.778  0.00  0.00     0.134 A 
ATOM      6  C   UNK d   1      20.480   7.885  32.509  0.00  0.00     0.059 A 
ATOM      7  C   UNK d   1      19.937   9.043  33.042  0.00  0.00     0.040 A 
ENDROOT
BRANCH   6   8
ATOM      8  C   UNK d   1      19.796   6.622  32.737  0.00  0.00     0.210 C 
ATOM      9  O   UNK d   1      20.377   5.526  32.501  0.00  0.00    -0.644 OA
ATOM     10  O   UNK d   1      18.498   6.582  33.214  0.00  0.00    -0.644 OA
ENDBRANCH   6   8
TORSDOF 2
ENDMDL
