/Users/jonathanwahrer/Desktop/Msc/3_Semester/Drug_Design_Praktikum/waehrer_HTS_screening/HTS_experiment/out/docking_results/vina_output/3elj/0683_docked.pdbqt
 OpenBabel03192217473D

 10 10  0  0  0  0  0  0  0  0999 V2000
   19.9060   11.8240   33.5170 Br  0  0  0  0  0  0  0  0  0  0  0  0
   20.6110   10.2230   32.8070 C   0  0  0  0  0  0  0  0  0  0  0  0
   21.7830   10.2550   32.0690 C   0  0  0  0  0  3  0  0  0  0  0  0
   22.2450    9.0910   31.5870 N   0  0  0  0  0  0  0  0  0  0  0  0
   21.6410    7.9080   31.7780 C   0  0  0  0  0  3  0  0  0  0  0  0
   20.4800    7.8850   32.5090 C   0  0  0  0  0  0  0  0  0  0  0  0
   19.9370    9.0430   33.0420 C   0  0  0  0  0  3  0  0  0  0  0  0
   19.7960    6.6220   32.7370 C   0  0  0  0  0  0  0  0  0  0  0  0
   20.3770    5.5260   32.5010 O   0  0  0  0  0  0  0  0  0  0  0  0
   18.4980    6.5820   33.2140 O   0  0  0  0  0  1  0  0  0  0  0  0
  2  7  1  0  0  0  0
  2  1  1  0  0  0  0
  3  2  2  0  0  0  0
  4  5  2  0  0  0  0
  4  3  1  0  0  0  0
  5  6  1  0  0  0  0
  6  8  1  0  0  0  0
  6  7  2  0  0  0  0
  8 10  1  0  0  0  0
  9  8  2  0  0  0  0
M  END
>  <Pose>
1

>  <Score>
-5.274

$$$$
