MODEL 1
REMARK VINA RESULT:    -5.256      0.000      0.000
REMARK INTER + INTRA:          -5.600
REMARK INTER:                  -5.564
REMARK INTRA:                  -0.036
REMARK UNBOUND:                -0.036
REMARK  2 active torsions:
REMARK  status: ('A' for Active; 'I' for Inactive)
REMARK    1  A    between atoms: C_6  and  C_8 
REMARK    2  A    between atoms: C_20  and  N_21 
ROOT
ATOM      1 Br   UNK d   1      19.852  11.852  33.523  0.00  0.00    -0.050 Br
ATOM      2  C   UNK d   1      20.603  10.249  32.819  0.00  0.00     0.029 A 
ATOM      3  C   UNK d   1      21.776  10.246  32.094  0.00  0.00     0.135 A 
ATOM      4  N   UNK d   1      22.311   9.118  31.594  0.00  0.00    -0.271 NA
ATOM      5  C   UNK d   1      21.680   7.954  31.811  0.00  0.00     0.134 A 
ATOM      6  C   UNK d   1      20.506   7.873  32.524  0.00  0.00     0.059 A 
ATOM      7  C   UNK d   1      19.982   9.037  33.022  0.00  0.00     0.040 A 
ENDROOT
BRANCH   6   8
ATOM      8  C   UNK d   1      19.832   6.600  32.751  0.00  0.00     0.210 C 
ATOM      9  O   UNK d   1      20.448   5.527  32.542  0.00  0.00    -0.644 OA
ATOM     10  O   UNK d   1      18.519   6.621  33.197  0.00  0.00    -0.644 OA
ENDBRANCH   6   8
TORSDOF 2
ENDMDL
