/Users/jonathanwahrer/Desktop/Msc/3_Semester/Drug_Design_Praktikum/waehrer_HTS_screening/HTS_experiment/out/docking_results/vina_output/3elj/0692_docked.pdbqt
 OpenBabel03192217473D

 29 32  0  0  0  0  0  0  0  0999 V2000
   22.6810   10.6170   31.5410 Br  0  0  0  0  0  0  0  0  0  0  0  0
   21.8730    8.9030   31.6660 C   0  0  0  0  0  0  0  0  0  0  0  0
   22.6030    7.7800   31.3250 C   0  0  0  0  0  0  0  0  0  0  0  0
   22.0660    6.4860   31.3930 C   0  0  0  0  0  0  0  0  0  0  0  0
   20.7690    6.3230   31.8140 C   0  0  0  0  0  3  0  0  0  0  0  0
   20.0340    7.4410   32.1570 C   0  0  0  0  0  0  0  0  0  0  0  0
   20.5610    8.7120   32.0900 C   0  0  0  0  0  3  0  0  0  0  0  0
   18.2340    7.2510   32.7450 Br  0  0  0  0  0  0  0  0  0  0  0  0
   22.8710    5.3340   31.0080 C   0  0  0  0  0  0  0  0  0  0  0  0
   22.2290    4.3020   30.6700 O   0  0  0  0  0  0  0  0  0  0  0  0
   24.3300    5.3610   31.0110 C   0  0  0  0  0  0  0  0  0  0  0  0
   24.7960    6.8110   31.3060 C   0  0  0  0  0  2  0  0  0  0  0  0
   23.9150    7.7870   30.8860 O   0  0  0  0  0  0  0  0  0  0  0  0
   25.0250    4.5560   32.0100 C   0  0  0  0  0  2  0  0  0  0  0  0
   24.7720    3.2300   32.3350 N   0  0  0  0  0  4  0  0  0  0  0  0
   23.8790    2.8930   33.3990 C   0  0  0  0  0  2  0  0  0  0  0  0
   23.3600    1.4660   33.0870 C   0  0  0  0  0  2  0  0  0  0  0  0
   24.5280    0.5480   33.3810 C   0  0  0  0  0  2  0  0  0  0  0  0
   25.8370    1.3050   33.4330 C   0  0  0  0  0  2  0  0  0  0  0  0
   25.9290    2.3470   32.3390 C   0  0  0  0  0  2  0  0  0  0  0  0
   24.2240    2.8620   31.4710 H   0  0  0  0  0  0  0  0  0  0  0  0
   24.8050    4.9770   29.6180 C   0  0  0  0  0  2  0  0  0  0  0  0
   26.1310    5.4590   29.3230 N   0  0  0  0  0  4  0  0  0  0  0  0
   26.1990    5.7340   27.8950 C   0  0  0  0  0  2  0  0  0  0  0  0
   25.7770    4.5160   27.1430 C   0  0  0  0  0  2  0  0  0  0  0  0
   26.5030    3.2710   27.4970 C   0  0  0  0  0  2  0  0  0  0  0  0
   26.8900    3.1380   28.9300 C   0  0  0  0  0  2  0  0  0  0  0  0
   27.1840    4.4860   29.5510 C   0  0  0  0  0  2  0  0  0  0  0  0
   26.3720    6.2900   29.8920 H   0  0  0  0  0  0  0  0  0  0  0  0
  1  2  1  0  0  0  0
  2  7  1  0  0  0  0
  3  4  1  0  0  0  0
  3  2  2  0  0  0  0
  4  5  2  0  0  0  0
  5  6  1  0  0  0  0
  6  8  1  0  0  0  0
  7  6  2  0  0  0  0
  9 11  1  0  0  0  0
  9  4  1  0  0  0  0
 10  9  2  0  0  0  0
 11 12  1  0  0  0  0
 11 14  1  0  0  0  0
 13 12  1  0  0  0  0
 13  3  1  0  0  0  0
 14 15  1  0  0  0  0
 15 20  1  0  0  0  0
 15 16  1  0  0  0  0
 17 18  1  0  0  0  0
 17 16  1  0  0  0  0
 18 19  1  0  0  0  0
 20 19  1  0  0  0  0
 21 15  1  0  0  0  0
 22 11  1  0  0  0  0
 23 28  1  0  0  0  0
 23 22  1  0  0  0  0
 23 29  1  0  0  0  0
 24 23  1  0  0  0  0
 25 26  1  0  0  0  0
 25 24  1  0  0  0  0
 26 27  1  0  0  0  0
 27 28  1  0  0  0  0
M  END
>  <Pose>
1

>  <Score>
-7.117

$$$$
