MODEL 1
REMARK VINA RESULT:    -9.043      0.000      0.000
REMARK INTER + INTRA:         -12.013
REMARK INTER:                 -11.158
REMARK INTRA:                  -0.855
REMARK UNBOUND:                -0.855
REMARK  4 active torsions:
REMARK  status: ('A' for Active; 'I' for Inactive)
REMARK    1  A    between atoms: N_10  and  N_11 
REMARK       I    between atoms: N_11  and  C_12 
REMARK    2  A    between atoms: C_12  and  C_14 
REMARK    3  A    between atoms: C_14  and  N_15 
REMARK       I    between atoms: N_15  and  C_16 
REMARK    4  A    between atoms: C_16  and  C_18 
ROOT
ATOM      1  N   UNK d   1      25.370   8.982  30.954  0.00  0.00    -0.245 N 
ATOM      2  C   UNK d   1      25.883   9.428  29.715  0.00  0.00     0.255 C 
ATOM      3  O   UNK d   1      25.320  10.352  29.092  0.00  0.00    -0.270 OA
ATOM      4  H   UNK d   1      25.787   8.218  31.527  0.00  0.00     0.192 HD
ENDROOT
BRANCH   2   5
ATOM      5  C   UNK d   1      27.105   8.828  29.093  0.00  0.00     0.227 C 
BRANCH   5   6
ATOM      6  N   UNK d   1      27.077   7.392  29.126  0.00  0.00    -0.350 N 
ATOM      7  C   UNK d   1      27.233   6.589  27.964  0.00  0.00     0.249 C 
ATOM      8  O   UNK d   1      27.404   7.162  26.866  0.00  0.00    -0.271 OA
ATOM      9  H   UNK d   1      26.938   6.872  30.024  0.00  0.00     0.163 HD
BRANCH   7  10
ATOM     10  C   UNK d   1      27.203   5.096  27.982  0.00  0.00     0.244 C 
ATOM     11  O   UNK d   1      26.104   4.605  28.691  0.00  0.00    -0.331 OA
ATOM     12  C   UNK d   1      26.175   3.960  29.924  0.00  0.00     0.103 A 
ATOM     13  C   UNK d   1      27.393   3.452  30.290  0.00  0.00     0.102 A 
ATOM     14  C   UNK d   1      25.102   3.820  30.753  0.00  0.00     0.040 A 
ATOM     15  C   UNK d   1      27.493   2.799  31.519  0.00  0.00     0.039 A 
ATOM     16  O   UNK d   1      28.467   3.594  29.454  0.00  0.00    -0.345 OA
ATOM     17  C   UNK d   1      26.419   2.651  32.366  0.00  0.00     0.003 A 
ATOM     18  C   UNK d   1      25.207   3.176  31.963  0.00  0.00     0.003 A 
ATOM     19  C   UNK d   1      28.506   4.503  28.389  0.00  0.00     0.218 C 
ENDBRANCH   7  10
ENDBRANCH   5   6
ENDBRANCH   2   5
BRANCH   1  20
ATOM     20  N   UNK d   1      24.221   9.604  31.451  0.00  0.00    -0.166 NA
ATOM     21  C   UNK d   1      23.121   8.977  31.644  0.00  0.00     0.157 A 
ATOM     22  C   UNK d   1      21.842   9.456  32.147  0.00  0.00     0.029 A 
ATOM     23  C   UNK d   1      22.929   7.549  31.372  0.00  0.00     0.277 A 
ATOM     24  C   UNK d   1      20.912   8.433  32.196  0.00  0.00     0.065 A 
ATOM     25  C   UNK d   1      21.413  10.698  32.563  0.00  0.00     0.035 A 
ATOM     26  C   UNK d   1      19.619   8.634  32.636  0.00  0.00     0.040 A 
ATOM     27  N   UNK d   1      21.587   7.273  31.721  0.00  0.00    -0.320 N 
ATOM     28 Br   UNK d   1      18.343   7.209  32.695  0.00  0.00    -0.049 Br
ATOM     29  C   UNK d   1      19.213   9.902  33.052  0.00  0.00     0.040 A 
ATOM     30  C   UNK d   1      20.133  10.937  33.010  0.00  0.00     0.013 A 
ATOM     31 Br   UNK d   1      19.601  12.685  33.573  0.00  0.00    -0.051 Br
ATOM     32  H   UNK d   1      21.145   6.342  31.641  0.00  0.00     0.169 HD
ATOM     33  O   UNK d   1      23.830   6.792  30.921  0.00  0.00    -0.266 OA
ENDBRANCH   1  20
TORSDOF 4
ENDMDL
