/Users/jonathanwahrer/Desktop/Msc/3_Semester/Drug_Design_Praktikum/waehrer_HTS_screening/HTS_experiment/out/docking_results/vina_output/3elj/0695_docked.pdbqt
 OpenBabel03192217483D

 22 25  0  0  0  0  0  0  0  0999 V2000
   22.5400   10.7320   31.8260 C   0  0  0  0  0  2  0  0  0  0  0  0
   21.6040    9.6080   32.0790 C   0  0  0  0  0  0  0  0  0  0  0  0
   20.3880    9.7540   32.7060 C   0  0  0  0  0  3  0  0  0  0  0  0
   19.5270    8.6790   32.9340 C   0  0  0  0  0  0  0  0  0  0  0  0
   19.8730    7.4130   32.5310 C   0  0  0  0  0  0  0  0  0  0  0  0
   18.2710    8.5700   33.5340 O   0  0  0  0  0  0  0  0  0  0  0  0
   21.0900    7.2550   31.9020 C   0  0  0  0  0  0  0  0  0  0  0  0
   18.8290    6.5520   32.8900 O   0  0  0  0  0  0  0  0  0  0  0  0
   21.5730    5.4830   31.3380 Br  0  0  0  0  0  0  0  0  0  0  0  0
   21.9450    8.3140   31.6730 C   0  0  0  0  0  3  0  0  0  0  0  0
   17.6610    7.3740   33.0240 C   0  0  0  0  0  2  0  0  0  0  0  0
   22.2320   11.3340   30.5520 N   0  0  0  0  0  0  0  0  0  0  0  0
   21.9240   10.7730   29.7400 H   0  0  0  0  0  0  0  0  0  0  0  0
   22.3640   12.7620   30.4210 C   0  0  0  0  0  0  0  0  0  0  0  0
   23.3210   13.3020   29.6540 N   0  0  0  0  0  0  0  0  0  0  0  0
   23.4360   14.6360   29.5370 C   0  0  0  0  0  3  0  0  0  0  0  0
   22.5710   15.4980   30.2050 C   0  0  0  0  0  3  0  0  0  0  0  0
   21.6220   14.9540   30.9660 N   0  0  0  0  0  0  0  0  0  0  0  0
   21.5020   13.6070   31.0860 C   0  0  0  0  0  0  0  0  0  0  0  0
   20.6440   15.4730   31.7300 C   0  0  0  0  0  3  0  0  0  0  0  0
   20.4690   13.3600   31.9080 N   0  0  0  0  0  0  0  0  0  0  0  0
   19.9340   14.5010   32.3090 N   0  0  0  0  0  0  0  0  0  0  0  0
  1  2  1  0  0  0  0
  2  3  1  0  0  0  0
  3  4  2  0  0  0  0
  4  6  1  0  0  0  0
  5  8  1  0  0  0  0
  5  4  1  0  0  0  0
  7  5  2  0  0  0  0
  8 11  1  0  0  0  0
  9  7  1  0  0  0  0
 10  7  1  0  0  0  0
 10  2  2  0  0  0  0
 11  6  1  0  0  0  0
 12  1  1  0  0  0  0
 13 12  1  0  0  0  0
 14 12  1  0  0  0  0
 14 19  1  0  0  0  0
 15 14  2  0  0  0  0
 16 15  1  0  0  0  0
 16 17  2  0  0  0  0
 17 18  1  0  0  0  0
 18 19  1  0  0  0  0
 18 20  1  0  0  0  0
 19 21  2  0  0  0  0
 20 22  2  0  0  0  0
 21 22  1  0  0  0  0
M  END
>  <Pose>
1

>  <Score>
-8.070

$$$$
