MODEL 1
REMARK VINA RESULT:    -8.070      0.000      0.000
REMARK INTER + INTRA:          -9.819
REMARK INTER:                  -9.486
REMARK INTRA:                  -0.333
REMARK UNBOUND:                -0.333
REMARK  3 active torsions:
REMARK  status: ('A' for Active; 'I' for Inactive)
REMARK    1  A    between atoms: C_6  and  C_8 
REMARK    2  A    between atoms: C_8  and  N_9 
REMARK    3  A    between atoms: N_9  and  C_10 
ROOT
ATOM      1  C   UNK d   1      22.540  10.732  31.826  0.00  0.00     0.160 C 
ENDROOT
BRANCH   1   2
ATOM      2  C   UNK d   1      21.604   9.608  32.079  0.00  0.00    -0.036 A 
ATOM      3  C   UNK d   1      20.388   9.754  32.706  0.00  0.00     0.048 A 
ATOM      4  C   UNK d   1      19.527   8.679  32.934  0.00  0.00     0.106 A 
ATOM      5  C   UNK d   1      19.873   7.413  32.531  0.00  0.00     0.122 A 
ATOM      6  O   UNK d   1      18.271   8.570  33.534  0.00  0.00    -0.323 OA
ATOM      7  C   UNK d   1      21.090   7.255  31.902  0.00  0.00     0.047 A 
ATOM      8  O   UNK d   1      18.829   6.552  32.890  0.00  0.00    -0.322 OA
ATOM      9 Br   UNK d   1      21.573   5.483  31.338  0.00  0.00    -0.048 Br
ATOM     10  C   UNK d   1      21.945   8.314  31.673  0.00  0.00     0.031 A 
ATOM     11  C   UNK d   1      17.661   7.374  33.024  0.00  0.00     0.352 C 
ENDBRANCH   1   2
BRANCH   1  12
ATOM     12  N   UNK d   1      22.232  11.334  30.552  0.00  0.00    -0.367 N 
ATOM     13  H   UNK d   1      21.924  10.773  29.740  0.00  0.00     0.161 HD
BRANCH  12  14
ATOM     14  C   UNK d   1      22.364  12.762  30.421  0.00  0.00     0.172 A 
ATOM     15  N   UNK d   1      23.321  13.302  29.654  0.00  0.00    -0.239 NA
ATOM     16  C   UNK d   1      23.436  14.636  29.537  0.00  0.00     0.136 A 
ATOM     17  C   UNK d   1      22.571  15.498  30.205  0.00  0.00     0.119 A 
ATOM     18  N   UNK d   1      21.622  14.954  30.966  0.00  0.00    -0.294 N 
ATOM     19  C   UNK d   1      21.502  13.607  31.086  0.00  0.00     0.203 A 
ATOM     20  C   UNK d   1      20.644  15.473  31.730  0.00  0.00     0.240 A 
ATOM     21  N   UNK d   1      20.469  13.360  31.908  0.00  0.00    -0.126 NA
ATOM     22  N   UNK d   1      19.934  14.501  32.309  0.00  0.00    -0.143 NA
ENDBRANCH  12  14
ENDBRANCH   1  12
TORSDOF 3
ENDMDL
