MODEL 1
REMARK VINA RESULT:    -9.218      0.000      0.000
REMARK INTER + INTRA:         -13.558
REMARK INTER:                 -12.721
REMARK INTRA:                  -0.837
REMARK UNBOUND:                -0.837
REMARK  7 active torsions:
REMARK  status: ('A' for Active; 'I' for Inactive)
REMARK    1  A    between atoms: C_7  and  O_8 
REMARK    2  A    between atoms: O_8  and  C_9 
REMARK    3  A    between atoms: C_9  and  C_10 
REMARK    4  A    between atoms: C_10  and  O_11 
REMARK    5  A    between atoms: C_10  and  C_12 
REMARK    6  A    between atoms: C_12  and  N_13 
REMARK       I    between atoms: N_16  and  C_19 
REMARK    7  A    between atoms: C_19  and  C_21 
ROOT
ATOM      1  C   UNK d   1      25.308   8.033  29.809  0.00  0.00     0.168 C 
ENDROOT
BRANCH   1   2
ATOM      2  C   UNK d   1      24.747   7.575  31.131  0.00  0.00     0.209 C 
BRANCH   2   3
ATOM      3  O   UNK d   1      23.480   6.962  30.988  0.00  0.00    -0.347 OA
BRANCH   3   4
ATOM      4  C   UNK d   1      22.394   7.566  31.619  0.00  0.00     0.087 A 
ATOM      5  C   UNK d   1      21.149   6.969  31.655  0.00  0.00     0.055 A 
ATOM      6 Br   UNK d   1      20.946   5.277  30.810  0.00  0.00    -0.047 Br
ATOM      7  C   UNK d   1      20.060   7.550  32.275  0.00  0.00    -0.006 A 
ATOM      8  C   UNK d   1      20.178   8.776  32.896  0.00  0.00    -0.024 A 
ATOM      9  C   UNK d   1      18.815   6.947  32.308  0.00  0.00     0.014 A 
ATOM     10  C   UNK d   1      21.419   9.380  32.865  0.00  0.00     0.015 A 
ATOM     11  C   UNK d   1      19.086   9.358  33.518  0.00  0.00     0.012 A 
ATOM     12  C   UNK d   1      22.502   8.792  32.243  0.00  0.00     0.039 A 
ATOM     13  C   UNK d   1      17.845   8.755  33.550  0.00  0.00     0.001 A 
ATOM     14  C   UNK d   1      17.726   7.528  32.928  0.00  0.00     0.001 A 
ENDBRANCH   3   4
ENDBRANCH   2   3
ENDBRANCH   1   2
BRANCH   1  15
ATOM     15  O   UNK d   1      26.530   7.482  29.523  0.00  0.00    -0.392 OA
ATOM     16  H   UNK d   1      26.939   6.980  30.252  0.00  0.00     0.210 HD
ENDBRANCH   1  15
BRANCH   1  17
ATOM     17  C   UNK d   1      25.322   9.520  29.724  0.00  0.00     0.268 C 
BRANCH  17  18
ATOM     18  N   UNK d   1      24.235  10.157  30.433  0.00  0.00    -0.066 N 
ATOM     19  C   UNK d   1      23.270  10.581  29.434  0.00  0.00     0.254 C 
ATOM     20  C   UNK d   1      22.189  11.495  30.029  0.00  0.00     0.152 C 
ATOM     21  N   UNK d   1      22.819  12.619  30.624  0.00  0.00    -0.356 N 
ATOM     22  C   UNK d   1      24.296  12.597  30.581  0.00  0.00     0.152 C 
ATOM     23  C   UNK d   1      22.154  13.697  31.218  0.00  0.00     0.187 C 
ATOM     24  C   UNK d   1      24.763  11.303  31.159  0.00  0.00     0.254 C 
ATOM     25  O   UNK d   1      22.976  14.615  31.700  0.00  0.00    -0.171 OA
ATOM     26  H   UNK d   1      23.741   9.528  31.101  0.00  0.00     0.280 HD
BRANCH  23  27
ATOM     27  C   UNK d   1      20.769  13.989  31.403  0.00  0.00     0.018 A 
ATOM     28  C   UNK d   1      20.036  14.934  30.744  0.00  0.00     0.016 A 
ATOM     29  C   UNK d   1      18.687  15.168  30.973  0.00  0.00     0.001 A 
ATOM     30  C   UNK d   1      18.016  14.436  31.899  0.00  0.00     0.000 A 
ATOM     31  C   UNK d   1      18.729  13.472  32.582  0.00  0.00     0.001 A 
ATOM     32  C   UNK d   1      20.062  13.241  32.357  0.00  0.00     0.016 A 
ENDBRANCH  23  27
ENDBRANCH  17  18
ENDBRANCH   1  17
TORSDOF 7
ENDMDL
