/Users/jonathanwahrer/Desktop/Msc/3_Semester/Drug_Design_Praktikum/waehrer_HTS_screening/HTS_experiment/out/docking_results/vina_output/3elj/0706_docked.pdbqt
 OpenBabel03192217483D

 30 33  0  0  0  0  0  0  0  0999 V2000
   21.9500    8.8370   30.9030 C   0  0  0  0  0  3  0  0  0  0  0  0
   22.4470    7.5050   30.9790 N   0  0  0  0  0  0  0  0  0  0  0  0
   21.7750    6.5030   31.5780 C   0  0  0  0  0  0  0  0  0  0  0  0
   20.0500    6.6100   32.4330 Br  0  0  0  0  0  0  0  0  0  0  0  0
   22.5420    5.4040   31.4670 N   0  0  0  0  0  0  0  0  0  0  0  0
   23.6750    5.6940   30.8140 C   0  0  0  0  0  0  0  0  0  0  0  0
   23.6120    7.0390   30.5020 C   0  0  0  0  0  0  0  0  0  0  0  0
   24.7640    4.9920   30.4410 N   0  0  0  0  0  0  0  0  0  0  0  0
   24.6920    7.5650   29.8240 C   0  0  0  0  0  0  0  0  0  0  0  0
   25.7730    6.8560   29.4560 N   0  0  0  0  0  0  0  0  0  0  0  0
   24.6570    8.7780   29.5340 O   0  0  0  0  0  0  0  0  0  0  0  0
   25.8000    5.5490   29.7750 C   0  0  0  0  0  0  0  0  0  0  0  0
   26.8970    7.4300   28.7420 C   0  0  0  0  0  1  0  0  0  0  0  0
   26.8050    4.8530   29.4430 O   0  0  0  0  0  0  0  0  0  0  0  0
   24.8200    3.5830   30.7710 C   0  0  0  0  0  1  0  0  0  0  0  0
   22.4110    9.7960   31.9390 C   0  0  0  0  0  3  0  0  0  0  0  0
   21.7530   11.0570   32.0070 N   0  0  0  0  0  0  0  0  0  0  0  0
   22.1360   12.1820   31.3520 C   0  0  0  0  0  0  0  0  0  0  0  0
   21.2730   13.2040   31.6620 C   0  0  0  0  0  0  0  0  0  0  0  0
   23.1720   12.4880   30.4790 C   0  0  0  0  0  0  0  0  0  0  0  0
   20.3770   12.6640   32.5050 N   0  0  0  0  0  0  0  0  0  0  0  0
   21.3960   14.4610   31.1570 N   0  0  0  0  0  0  0  0  0  0  0  0
   20.6650   11.3720   32.7150 C   0  0  0  0  0  0  0  0  0  0  0  0
   19.7120   10.1290   33.8390 Br  0  0  0  0  0  0  0  0  0  0  0  0
   22.4240   14.6780   30.3180 C   0  0  0  0  0  0  0  0  0  0  0  0
   20.4600   15.5210   31.5070 C   0  0  0  0  0  1  0  0  0  0  0  0
   22.5490   15.8400   29.8430 O   0  0  0  0  0  0  0  0  0  0  0  0
   23.3000   13.7160   29.9800 N   0  0  0  0  0  0  0  0  0  0  0  0
   24.3910   14.0020   29.0710 C   0  0  0  0  0  1  0  0  0  0  0  0
   23.9580   11.5420   30.2030 O   0  0  0  0  0  0  0  0  0  0  0  0
  1  2  1  0  0  0  0
  1 16  2  0  0  0  0
  2  3  1  0  0  0  0
  3  4  1  0  0  0  0
  5  3  2  0  0  0  0
  6  5  1  0  0  0  0
  7  6  2  0  0  0  0
  7  2  1  0  0  0  0
  8 15  1  0  0  0  0
  8  6  1  0  0  0  0
  9  7  1  0  0  0  0
 10 12  1  0  0  0  0
 10  9  1  0  0  0  0
 11  9  2  0  0  0  0
 12  8  1  0  0  0  0
 13 10  1  0  0  0  0
 14 12  2  0  0  0  0
 16 17  1  0  0  0  0
 17 23  1  0  0  0  0
 18 19  2  0  0  0  0
 18 17  1  0  0  0  0
 19 21  1  0  0  0  0
 20 18  1  0  0  0  0
 21 23  2  0  0  0  0
 22 26  1  0  0  0  0
 22 19  1  0  0  0  0
 23 24  1  0  0  0  0
 25 22  1  0  0  0  0
 27 25  2  0  0  0  0
 28 25  1  0  0  0  0
 28 20  1  0  0  0  0
 29 28  1  0  0  0  0
 30 20  2  0  0  0  0
M  END
>  <Pose>
1

>  <Score>
-8.842

$$$$
