MODEL 1
REMARK VINA RESULT:    -8.842      0.000      0.000
REMARK INTER + INTRA:         -10.963
REMARK INTER:                 -10.393
REMARK INTRA:                  -0.570
REMARK UNBOUND:                -0.570
REMARK  3 active torsions:
REMARK  status: ('A' for Active; 'I' for Inactive)
REMARK    1  A    between atoms: N_3  and  C_15 
REMARK    2  A    between atoms: C_15  and  C_16 
REMARK    3  A    between atoms: C_16  and  N_17 
ROOT
ATOM      1  C   UNK d   1      21.950   8.837  30.903  0.00  0.00     0.152 C 
ENDROOT
BRANCH   1   2
ATOM      2  N   UNK d   1      22.447   7.505  30.979  0.00  0.00    -0.316 N 
ATOM      3  C   UNK d   1      21.775   6.503  31.578  0.00  0.00     0.180 A 
ATOM      4 Br   UNK d   1      20.050   6.610  32.433  0.00  0.00    -0.008 Br
ATOM      5  N   UNK d   1      22.542   5.404  31.467  0.00  0.00    -0.203 NA
ATOM      6  C   UNK d   1      23.675   5.694  30.814  0.00  0.00     0.169 A 
ATOM      7  C   UNK d   1      23.612   7.039  30.502  0.00  0.00     0.152 A 
ATOM      8  N   UNK d   1      24.764   4.992  30.441  0.00  0.00    -0.286 N 
ATOM      9  C   UNK d   1      24.692   7.565  29.824  0.00  0.00     0.282 A 
ATOM     10  N   UNK d   1      25.773   6.856  29.456  0.00  0.00    -0.269 N 
ATOM     11  O   UNK d   1      24.657   8.778  29.534  0.00  0.00    -0.265 OA
ATOM     12  C   UNK d   1      25.800   5.549  29.775  0.00  0.00     0.332 A 
ATOM     13  C   UNK d   1      26.897   7.430  28.742  0.00  0.00     0.164 C 
ATOM     14  O   UNK d   1      26.805   4.853  29.443  0.00  0.00    -0.246 OA
ATOM     15  C   UNK d   1      24.820   3.583  30.771  0.00  0.00     0.163 C 
ENDBRANCH   1   2
BRANCH   1  16
ATOM     16  C   UNK d   1      22.411   9.796  31.939  0.00  0.00     0.152 C 
BRANCH  16  17
ATOM     17  N   UNK d   1      21.753  11.057  32.007  0.00  0.00    -0.316 N 
ATOM     18  C   UNK d   1      22.136  12.182  31.352  0.00  0.00     0.152 A 
ATOM     19  C   UNK d   1      21.273  13.204  31.662  0.00  0.00     0.169 A 
ATOM     20  C   UNK d   1      23.172  12.488  30.479  0.00  0.00     0.282 A 
ATOM     21  N   UNK d   1      20.377  12.664  32.505  0.00  0.00    -0.203 NA
ATOM     22  N   UNK d   1      21.396  14.461  31.157  0.00  0.00    -0.286 N 
ATOM     23  C   UNK d   1      20.665  11.372  32.715  0.00  0.00     0.180 A 
ATOM     24 Br   UNK d   1      19.712  10.129  33.839  0.00  0.00    -0.008 Br
ATOM     25  C   UNK d   1      22.424  14.678  30.318  0.00  0.00     0.332 A 
ATOM     26  C   UNK d   1      20.460  15.521  31.507  0.00  0.00     0.163 C 
ATOM     27  O   UNK d   1      22.549  15.840  29.843  0.00  0.00    -0.246 OA
ATOM     28  N   UNK d   1      23.300  13.716  29.980  0.00  0.00    -0.269 N 
ATOM     29  C   UNK d   1      24.391  14.002  29.071  0.00  0.00     0.164 C 
ATOM     30  O   UNK d   1      23.958  11.542  30.203  0.00  0.00    -0.265 OA
ENDBRANCH  16  17
ENDBRANCH   1  16
TORSDOF 3
ENDMDL
