MODEL 1
REMARK VINA RESULT:    -9.148      0.000      0.000
REMARK INTER + INTRA:         -11.454
REMARK INTER:                 -11.287
REMARK INTRA:                  -0.167
REMARK UNBOUND:                -0.167
REMARK  4 active torsions:
REMARK  status: ('A' for Active; 'I' for Inactive)
REMARK    1  A    between atoms: N_3  and  C_14 
REMARK    2  A    between atoms: C_14  and  C_15 
REMARK    3  A    between atoms: C_15  and  C_16 
REMARK    4  A    between atoms: C_16  and  N_17 
ROOT
ATOM      1  C   UNK d   1      22.940  11.801  30.868  0.00  0.00     0.041 C 
ENDROOT
BRANCH   1   2
ATOM      2  C   UNK d   1      23.301  10.718  31.842  0.00  0.00     0.133 C 
BRANCH   2   3
ATOM      3  N   UNK d   1      22.328   9.648  31.918  0.00  0.00    -0.318 N 
ATOM      4  C   UNK d   1      22.515   8.385  31.426  0.00  0.00     0.180 A 
ATOM      5 Br   UNK d   1      24.126   7.837  30.573  0.00  0.00    -0.008 Br
ATOM      6  N   UNK d   1      21.422   7.638  31.639  0.00  0.00    -0.203 NA
ATOM      7  C   UNK d   1      20.495   8.389  32.272  0.00  0.00     0.169 A 
ATOM      8  C   UNK d   1      21.082   9.633  32.433  0.00  0.00     0.152 A 
ATOM      9  N   UNK d   1      19.253   8.079  32.683  0.00  0.00    -0.286 N 
ATOM     10  C   UNK d   1      20.347  10.602  33.045  0.00  0.00     0.280 A 
ATOM     11  N   UNK d   1      19.089  10.285  33.460  0.00  0.00    -0.273 N 
ATOM     12  O   UNK d   1      20.824  11.743  33.213  0.00  0.00    -0.265 OA
ATOM     13  C   UNK d   1      18.558   9.061  33.284  0.00  0.00     0.330 A 
ATOM     14  H   UNK d   1      18.563  11.056  33.924  0.00  0.00     0.173 HD
ATOM     15  O   UNK d   1      17.373   8.817  33.694  0.00  0.00    -0.246 OA
ATOM     16  C   UNK d   1      18.649   6.776  32.512  0.00  0.00     0.163 C 
ENDBRANCH   2   3
ENDBRANCH   1   2
BRANCH   1  17
ATOM     17  C   UNK d   1      23.569  13.134  31.152  0.00  0.00     0.133 C 
BRANCH  17  18
ATOM     18  N   UNK d   1      23.692  13.901  29.920  0.00  0.00    -0.318 N 
ATOM     19  C   UNK d   1      23.176  15.118  29.633  0.00  0.00     0.152 A 
ATOM     20  C   UNK d   1      23.525  15.494  28.356  0.00  0.00     0.169 A 
ATOM     21  C   UNK d   1      22.408  15.982  30.367  0.00  0.00     0.280 A 
ATOM     22  N   UNK d   1      24.264  14.480  27.870  0.00  0.00    -0.203 NA
ATOM     23  N   UNK d   1      23.153  16.659  27.794  0.00  0.00    -0.286 N 
ATOM     24  C   UNK d   1      24.360  13.524  28.818  0.00  0.00     0.180 A 
ATOM     25 Br   UNK d   1      25.293  11.863  28.677  0.00  0.00    -0.008 Br
ATOM     26  C   UNK d   1      22.393  17.483  28.557  0.00  0.00     0.330 A 
ATOM     27  C   UNK d   1      23.547  17.016  26.433  0.00  0.00     0.163 C 
ATOM     28  O   UNK d   1      22.042  18.583  28.031  0.00  0.00    -0.246 OA
ATOM     29  N   UNK d   1      22.030  17.153  29.814  0.00  0.00    -0.273 N 
ATOM     30  H   UNK d   1      21.448  17.825  30.352  0.00  0.00     0.173 HD
ATOM     31  O   UNK d   1      22.087  15.646  31.533  0.00  0.00    -0.265 OA
ENDBRANCH  17  18
ENDBRANCH   1  17
TORSDOF 4
ENDMDL
