/Users/jonathanwahrer/Desktop/Msc/3_Semester/Drug_Design_Praktikum/waehrer_HTS_screening/HTS_experiment/out/docking_results/vina_output/3elj/0709_docked.pdbqt
 OpenBabel03192217493D

 30 33  0  0  0  0  0  0  0  0999 V2000
   22.4170    9.9050   32.0450 C   0  0  0  0  0  3  0  0  0  0  0  0
   21.7390   11.1560   32.0730 N   0  0  0  0  0  0  0  0  0  0  0  0
   20.5390   11.3810   32.6580 C   0  0  0  0  0  0  0  0  0  0  0  0
   19.5580   10.0230   33.5740 Br  0  0  0  0  0  0  0  0  0  0  0  0
   20.1930   12.6660   32.4810 N   0  0  0  0  0  0  0  0  0  0  0  0
   21.1540   13.3090   31.7790 C   0  0  0  0  0  0  0  0  0  0  0  0
   22.1200   12.3370   31.5320 C   0  0  0  0  0  0  0  0  0  0  0  0
   21.3050   14.5680   31.3320 N   0  0  0  0  0  0  0  0  0  0  0  0
   23.2150   12.7480   30.8110 C   0  0  0  0  0  0  0  0  0  0  0  0
   23.3630   14.0210   30.3620 N   0  0  0  0  0  0  0  0  0  0  0  0
   24.1000   11.8740   30.5750 O   0  0  0  0  0  0  0  0  0  0  0  0
   22.3980   14.9190   30.6320 C   0  0  0  0  0  0  0  0  0  0  0  0
   24.2180   14.2710   29.8210 H   0  0  0  0  0  0  0  0  0  0  0  0
   22.5490   16.1080   30.2060 O   0  0  0  0  0  0  0  0  0  0  0  0
   20.3070   15.5820   31.5860 C   0  0  0  0  0  1  0  0  0  0  0  0
   22.0760    8.9750   30.9350 C   0  0  0  0  0  3  0  0  0  0  0  0
   22.6060    7.6580   30.9720 N   0  0  0  0  0  0  0  0  0  0  0  0
   23.7810    7.2300   30.4820 C   0  0  0  0  0  0  0  0  0  0  0  0
   23.9020    5.8770   30.7210 C   0  0  0  0  0  0  0  0  0  0  0  0
   24.8420    7.8360   29.8290 C   0  0  0  0  0  0  0  0  0  0  0  0
   22.7660    5.5380   31.3640 N   0  0  0  0  0  0  0  0  0  0  0  0
   24.9940    5.2210   30.3300 N   0  0  0  0  0  0  0  0  0  0  0  0
   21.9680    6.5870   31.5300 C   0  0  0  0  0  0  0  0  0  0  0  0
   20.2420    6.6250   32.3850 Br  0  0  0  0  0  0  0  0  0  0  0  0
   25.9820    5.8630   29.7030 C   0  0  0  0  0  0  0  0  0  0  0  0
   25.1330    3.8040   30.5720 C   0  0  0  0  0  1  0  0  0  0  0  0
   27.0390    5.2620   29.3150 O   0  0  0  0  0  0  0  0  0  0  0  0
   25.9400    7.1800   29.4330 N   0  0  0  0  0  0  0  0  0  0  0  0
   26.7370    7.6550   28.9370 H   0  0  0  0  0  0  0  0  0  0  0  0
   24.7950    9.0630   29.5850 O   0  0  0  0  0  0  0  0  0  0  0  0
  1  2  1  0  0  0  0
  2  3  1  0  0  0  0
  3  4  1  0  0  0  0
  5  3  2  0  0  0  0
  6  5  1  0  0  0  0
  7  6  2  0  0  0  0
  7  2  1  0  0  0  0
  8 15  1  0  0  0  0
  8  6  1  0  0  0  0
  9  7  1  0  0  0  0
 10 12  1  0  0  0  0
 10  9  1  0  0  0  0
 11  9  2  0  0  0  0
 12  8  1  0  0  0  0
 13 10  1  0  0  0  0
 14 12  2  0  0  0  0
 16 17  1  0  0  0  0
 16  1  2  0  0  0  0
 17 23  1  0  0  0  0
 18 19  2  0  0  0  0
 18 17  1  0  0  0  0
 19 21  1  0  0  0  0
 20 18  1  0  0  0  0
 21 23  2  0  0  0  0
 22 26  1  0  0  0  0
 22 19  1  0  0  0  0
 23 24  1  0  0  0  0
 25 22  1  0  0  0  0
 27 25  2  0  0  0  0
 28 25  1  0  0  0  0
 28 20  1  0  0  0  0
 29 28  1  0  0  0  0
 30 20  2  0  0  0  0
M  END
>  <Pose>
1

>  <Score>
-8.840

$$$$
