/Users/jonathanwahrer/Desktop/Msc/3_Semester/Drug_Design_Praktikum/waehrer_HTS_screening/HTS_experiment/out/docking_results/vina_output/3elj/0716_docked.pdbqt
 OpenBabel03192217493D

 31 35  0  0  1  0  0  0  0  0999 V2000
   22.4250    9.1190   31.2990 C   0  0  1  0  0  0  0  0  0  0  0  0
   21.8560   10.4470   30.8520 C   0  0  0  0  0  2  0  0  0  0  0  0
   22.9760   11.4230   30.6360 C   0  0  2  0  0  0  0  0  0  0  0  0
   23.7830   10.8880   29.4440 C   0  0  0  0  0  2  0  0  0  0  0  0
   24.2900    9.5090   29.7840 C   0  0  2  0  0  3  0  0  0  0  0  0
   23.1830    8.5440   30.1220 C   0  0  0  0  0  2  0  0  0  0  0  0
   25.2450    9.6210   30.9290 C   0  0  0  0  0  2  0  0  0  0  0  0
   24.5040   10.1790   32.1230 C   0  0  2  0  0  3  0  0  0  0  0  0
   23.3780    9.2550   32.4450 C   0  0  0  0  0  2  0  0  0  0  0  0
   23.9250   11.5350   31.7820 C   0  0  0  0  0  2  0  0  0  0  0  0
   22.4660   12.7680   30.2980 C   0  0  0  0  0  0  0  0  0  0  0  0
   21.3330   12.8530   29.7600 O   0  0  0  0  0  0  0  0  0  0  0  0
   23.2370   13.9350   30.5730 N   0  0  0  0  0  0  0  0  0  0  0  0
   24.1610   13.7810   31.0170 H   0  0  0  0  0  0  0  0  0  0  0  0
   22.8310   15.2640   30.2840 C   0  0  0  0  0  0  0  0  0  0  0  0
   23.0940   15.9160   29.1120 C   0  0  0  0  0  0  0  0  0  0  0  0
   22.5520   17.1530   29.2130 N   0  0  0  0  0  0  0  0  0  0  0  0
   21.9780   17.2690   30.3910 N   0  0  0  0  0  0  0  0  0  0  0  0
   22.5690   18.2130   28.2200 C   0  0  0  0  0  1  0  0  0  0  0  0
   22.1230   16.1360   31.0860 C   0  0  0  0  0  3  0  0  0  0  0  0
   23.7990   15.4880   27.9210 C   0  0  0  0  0  0  0  0  0  0  0  0
   23.8080   14.2830   27.5660 O   0  0  0  0  0  0  0  0  0  0  0  0
   24.5200   16.3760   27.0770 N   0  0  0  0  0  0  0  0  0  0  0  0
   24.0530   16.6900   26.1770 H   0  0  0  0  0  0  0  0  0  0  0  0
   25.4720   16.7420   27.2700 H   0  0  0  0  0  0  0  0  0  0  0  0
   21.3310    8.2410   31.7110 N   0  0  0  0  0  0  0  0  0  0  0  0
   20.1280    8.5980   32.1430 N   0  0  0  0  0  0  0  0  0  0  0  0
   19.3850    7.5140   32.4300 C   0  0  0  0  0  0  0  0  0  0  0  0
   17.5840    7.4680   33.0870 Br  0  0  0  0  0  0  0  0  0  0  0  0
   20.1530    6.4330   32.1660 N   0  0  0  0  0  0  0  0  0  0  0  0
   21.3340    6.8950   31.7290 C   0  0  0  0  0  3  0  0  0  0  0  0
  1  6  1  6  0  0  0
  1 26  1  0  0  0  0
  1  9  1  0  0  0  0
  2  1  1  0  0  0  0
  3 11  1  6  0  0  0
  3  2  1  0  0  0  0
  3 10  1  0  0  0  0
  4  3  1  0  0  0  0
  5  4  1  1  0  0  0
  5  6  1  0  0  0  0
  5  7  1  0  0  0  0
  8  7  1  6  0  0  0
  8  9  1  0  0  0  0
 10  8  1  0  0  0  0
 11 13  1  0  0  0  0
 12 11  2  0  0  0  0
 13 14  1  0  0  0  0
 15 13  1  0  0  0  0
 15 20  1  0  0  0  0
 16 17  1  0  0  0  0
 16 15  2  0  0  0  0
 17 18  1  0  0  0  0
 18 20  2  0  0  0  0
 19 17  1  0  0  0  0
 21 16  1  0  0  0  0
 22 21  2  0  0  0  0
 23 25  1  0  0  0  0
 23 21  1  0  0  0  0
 24 23  1  0  0  0  0
 26 31  1  0  0  0  0
 26 27  1  0  0  0  0
 27 28  2  0  0  0  0
 28 29  1  0  0  0  0
 30 28  1  0  0  0  0
 31 30  2  0  0  0  0
M  END
>  <Pose>
1

>  <Score>
-9.157

$$$$
