MODEL 1
REMARK VINA RESULT:    -5.615      0.000      0.000
REMARK INTER + INTRA:          -6.580
REMARK INTER:                  -6.271
REMARK INTRA:                  -0.309
REMARK UNBOUND:                -0.309
REMARK  2 active torsions:
REMARK  status: ('A' for Active; 'I' for Inactive)
REMARK    1  A    between atoms: C_9  and  N_11 
REMARK    2  A    between atoms: C_12  and  C_17 
ROOT
ATOM      1  N   UNK d   1      28.839  16.569  24.528  0.00  0.00    -0.348 N 
ATOM      2  C   UNK d   1      29.151  15.924  23.291  0.00  0.00     0.189 C 
ATOM      3  C   UNK d   1      30.520  15.362  23.250  0.00  0.00     0.201 C 
ATOM      4  O   UNK d   1      31.365  15.692  24.274  0.00  0.00    -0.387 OA
ATOM      5  C   UNK d   1      31.199  16.999  24.717  0.00  0.00     0.187 C 
ATOM      6  C   UNK d   1      29.843  17.234  25.301  0.00  0.00     0.151 C 
ENDROOT
BRANCH   1   7
ATOM      7  C   UNK d   1      27.503  16.603  25.052  0.00  0.00     0.145 A 
ATOM      8  N   UNK d   1      26.625  17.528  24.554  0.00  0.00    -0.223 NA
ATOM      9  C   UNK d   1      25.347  17.569  24.970  0.00  0.00     0.237 A 
ATOM     10  N   UNK d   1      24.896  16.699  25.891  0.00  0.00    -0.222 NA
ATOM     11  C   UNK d   1      25.696  15.768  26.423  0.00  0.00     0.164 A 
ATOM     12  N   UNK d   1      25.472  14.822  27.353  0.00  0.00    -0.255 N 
ATOM     13  C   UNK d   1      27.026  15.729  25.988  0.00  0.00     0.095 A 
ATOM     14  N   UNK d   1      26.613  14.193  27.516  0.00  0.00    -0.163 NA
ATOM     15  C   UNK d   1      24.230  14.536  28.046  0.00  0.00     0.182 C 
ATOM     16  C   UNK d   1      27.577  14.703  26.718  0.00  0.00     0.141 A 
ATOM     17 Br   UNK d   1      29.399  14.158  26.618  0.00  0.00    -0.026 Br
ENDBRANCH   1   7
BRANCH   2  18
ATOM     18  C   UNK d   1      28.101  14.958  22.898  0.00  0.00     0.198 A 
ATOM     19  N   UNK d   1      27.080  15.201  22.074  0.00  0.00    -0.207 NA
ATOM     20  C   UNK d   1      26.366  14.042  21.995  0.00  0.00     0.152 A 
ATOM     21  N   UNK d   1      26.995  13.151  22.782  0.00  0.00    -0.112 NA
ATOM     22  C   UNK d   1      25.138  13.797  21.204  0.00  0.00     0.096 C 
ATOM     23  O   UNK d   1      28.035  13.726  23.313  0.00  0.00    -0.194 OA
ENDBRANCH   2  18
TORSDOF 2
ENDMDL
