/Users/jonathanwahrer/Desktop/Msc/3_Semester/Drug_Design_Praktikum/waehrer_HTS_screening/HTS_experiment/out/docking_results/vina_output/3elj/0723_docked.pdbqt
 OpenBabel03192217493D

 23 26  0  0  1  0  0  0  0  0999 V2000
   28.8390   16.5690   24.5280 N   0  0  0  0  0  0  0  0  0  0  0  0
   29.1510   15.9240   23.2910 C   0  0  1  0  0  3  0  0  0  0  0  0
   30.5200   15.3620   23.2500 C   0  0  0  0  0  2  0  0  0  0  0  0
   31.3650   15.6920   24.2740 O   0  0  0  0  0  0  0  0  0  0  0  0
   31.1990   16.9990   24.7170 C   0  0  0  0  0  2  0  0  0  0  0  0
   29.8430   17.2340   25.3010 C   0  0  0  0  0  2  0  0  0  0  0  0
   27.5030   16.6030   25.0520 C   0  0  0  0  0  0  0  0  0  0  0  0
   26.6250   17.5280   24.5540 N   0  0  0  0  0  0  0  0  0  0  0  0
   25.3470   17.5690   24.9700 C   0  0  0  0  0  3  0  0  0  0  0  0
   24.8960   16.6990   25.8910 N   0  0  0  0  0  0  0  0  0  0  0  0
   25.6960   15.7680   26.4230 C   0  0  0  0  0  0  0  0  0  0  0  0
   25.4720   14.8220   27.3530 N   0  0  0  0  0  0  0  0  0  0  0  0
   27.0260   15.7290   25.9880 C   0  0  0  0  0  0  0  0  0  0  0  0
   26.6130   14.1930   27.5160 N   0  0  0  0  0  0  0  0  0  0  0  0
   24.2300   14.5360   28.0460 C   0  0  0  0  0  1  0  0  0  0  0  0
   27.5770   14.7030   26.7180 C   0  0  0  0  0  0  0  0  0  0  0  0
   29.3990   14.1580   26.6180 Br  0  0  0  0  0  0  0  0  0  0  0  0
   28.1010   14.9580   22.8980 C   0  0  0  0  0  0  0  0  0  0  0  0
   27.0800   15.2010   22.0740 N   0  0  0  0  0  0  0  0  0  0  0  0
   26.3660   14.0420   21.9950 C   0  0  0  0  0  0  0  0  0  0  0  0
   26.9950   13.1510   22.7820 N   0  0  0  0  0  0  0  0  0  0  0  0
   25.1380   13.7970   21.2040 C   0  0  0  0  0  1  0  0  0  0  0  0
   28.0350   13.7260   23.3130 O   0  0  0  0  0  0  0  0  0  0  0  0
  1  7  1  0  0  0  0
  1  6  1  0  0  0  0
  2 18  1  1  0  0  0
  2  1  1  0  0  0  0
  3  2  1  0  0  0  0
  3  4  1  0  0  0  0
  4  5  1  0  0  0  0
  5  6  1  0  0  0  0
  7 13  1  0  0  0  0
  8  9  1  0  0  0  0
  8  7  2  0  0  0  0
  9 10  2  0  0  0  0
 10 11  1  0  0  0  0
 11 12  1  0  0  0  0
 12 14  1  0  0  0  0
 12 15  1  0  0  0  0
 13 11  2  0  0  0  0
 13 16  1  0  0  0  0
 16 14  2  0  0  0  0
 17 16  1  0  0  0  0
 18 23  1  0  0  0  0
 19 18  2  0  0  0  0
 20 19  1  0  0  0  0
 20 21  2  0  0  0  0
 21 23  1  0  0  0  0
 22 20  1  0  0  0  0
M  END
>  <Pose>
1

>  <Score>
-5.615

$$$$
