MODEL 1
REMARK VINA RESULT:    -7.099      0.000      0.000
REMARK INTER + INTRA:          -7.720
REMARK INTER:                  -7.514
REMARK INTRA:                  -0.206
REMARK UNBOUND:                -0.206
REMARK  1 active torsions:
REMARK  status: ('A' for Active; 'I' for Inactive)
REMARK    1  A    between atoms: C_9  and  N_11 
ROOT
ATOM      1 Br   UNK d   1      21.266  15.929  31.628  0.00  0.00    -0.026 Br
ATOM      2  C   UNK d   1      22.176  16.420  30.030  0.00  0.00     0.141 A 
ATOM      3  N   UNK d   1      22.107  17.635  29.411  0.00  0.00    -0.163 NA
ATOM      4  N   UNK d   1      22.882  17.611  28.353  0.00  0.00    -0.255 N 
ATOM      5  C   UNK d   1      23.472  16.410  28.244  0.00  0.00     0.164 A 
ATOM      6  N   UNK d   1      24.344  15.877  27.373  0.00  0.00    -0.222 NA
ATOM      7  C   UNK d   1      24.794  14.632  27.501  0.00  0.00     0.237 A 
ATOM      8  N   UNK d   1      24.378  13.881  28.515  0.00  0.00    -0.223 NA
ATOM      9  C   UNK d   1      23.487  14.326  29.463  0.00  0.00     0.144 A 
ATOM     10  C   UNK d   1      23.035  15.613  29.316  0.00  0.00     0.095 A 
ATOM     11  C   UNK d   1      23.125  18.690  27.383  0.00  0.00     0.182 C 
ENDROOT
BRANCH   9  12
ATOM     12  N   UNK d   1      23.049  13.486  30.487  0.00  0.00    -0.359 N 
ATOM     13  C   UNK d   1      21.749  12.855  30.435  0.00  0.00     0.131 C 
ATOM     14  C   UNK d   1      21.981  11.355  30.156  0.00  0.00     0.079 C 
ATOM     15  C   UNK d   1      23.188  10.905  30.883  0.00  0.00     0.040 A 
ATOM     16  N   UNK d   1      23.641   9.635  30.997  0.00  0.00    -0.347 N 
ATOM     17  C   UNK d   1      24.064  11.686  31.574  0.00  0.00     0.076 A 
ATOM     18  C   UNK d   1      24.761   9.664  31.739  0.00  0.00     0.209 A 
ATOM     19  C   UNK d   1      23.071   8.432  30.447  0.00  0.00     0.157 C 
ATOM     20  N   UNK d   1      25.039  10.915  32.103  0.00  0.00    -0.245 NA
ATOM     21  C   UNK d   1      23.844  13.151  31.641  0.00  0.00     0.185 C 
ENDBRANCH   9  12
TORSDOF 1
ENDMDL
