MODEL 1
REMARK VINA RESULT:    -7.593      0.000      0.000
REMARK INTER + INTRA:          -8.203
REMARK INTER:                  -8.037
REMARK INTRA:                  -0.166
REMARK UNBOUND:                -0.166
REMARK  1 active torsions:
REMARK  status: ('A' for Active; 'I' for Inactive)
REMARK    1  A    between atoms: N_8  and  C_11 
ROOT
ATOM      1  C   UNK d   1      23.558   4.945  31.214  0.00  0.00     0.148 A 
ATOM      2  C   UNK d   1      23.661   3.999  32.120  0.00  0.00     0.080 A 
ATOM      3  C   UNK d   1      24.672   2.936  32.016  0.00  0.00     0.043 A 
ATOM      4  C   UNK d   1      24.787   1.978  32.918  0.00  0.00     0.043 C 
ATOM      5  N   UNK d   1      25.515   3.010  30.876  0.00  0.00    -0.189 N 
ATOM      6  C   UNK d   1      25.387   4.051  29.898  0.00  0.00     0.730 A 
ATOM      7  N   UNK d   1      24.418   4.984  30.093  0.00  0.00    -0.044 N 
ATOM      8  N   UNK d   1      24.513   5.824  29.056  0.00  0.00    -0.143 NA
ATOM      9  C   UNK d   1      25.497   5.455  28.224  0.00  0.00     0.275 A 
ATOM     10  N   UNK d   1      26.037   4.347  28.759  0.00  0.00    -0.054 NA
ATOM     11  H   UNK d   1      26.252   2.284  30.745  0.00  0.00     0.184 HD
ENDROOT
BRANCH   1  12
ATOM     12  N   UNK d   1      22.572   5.940  31.364  0.00  0.00    -0.357 N 
ATOM     13  C   UNK d   1      21.189   5.530  31.330  0.00  0.00     0.203 C 
ATOM     14  C   UNK d   1      20.340   6.508  32.073  0.00  0.00     0.124 A 
ATOM     15  N   UNK d   1      20.680   7.794  32.134  0.00  0.00    -0.325 N 
ATOM     16  N   UNK d   1      19.181   6.368  32.769  0.00  0.00    -0.243 NA
ATOM     17  C   UNK d   1      19.768   8.464  32.848  0.00  0.00     0.101 A 
ATOM     18  C   UNK d   1      21.877   8.295  31.489  0.00  0.00     0.151 C 
ATOM     19 Br   UNK d   1      19.731  10.334  33.271  0.00  0.00    -0.029 Br
ATOM     20  C   UNK d   1      18.807   7.563  33.259  0.00  0.00     0.156 A 
ATOM     21  C   UNK d   1      23.004   7.306  31.540  0.00  0.00     0.145 C 
ENDBRANCH   1  12
TORSDOF 1
ENDMDL
