MODEL 1
REMARK VINA RESULT:    -7.545      0.000      0.000
REMARK INTER + INTRA:          -9.860
REMARK INTER:                  -8.868
REMARK INTRA:                  -0.992
REMARK UNBOUND:                -0.992
REMARK  3 active torsions:
REMARK  status: ('A' for Active; 'I' for Inactive)
REMARK    1  A    between atoms: C_4  and  C_7 
REMARK       I    between atoms: C_7  and  N_9 
REMARK    2  A    between atoms: N_12  and  C_15 
REMARK    3  A    between atoms: C_17  and  N_22 
ROOT
ATOM      1  C   UNK d   1      23.031  13.223  29.865  0.00  0.00     0.277 C 
ATOM      2  O   UNK d   1      23.057  13.411  28.640  0.00  0.00    -0.265 OA
ATOM      3  N   UNK d   1      24.057  12.466  30.483  0.00  0.00    -0.343 N 
ATOM      4  C   UNK d   1      25.131  11.917  29.681  0.00  0.00     0.146 C 
ATOM      5  C   UNK d   1      25.190  10.411  29.760  0.00  0.00     0.144 C 
ATOM      6  N   UNK d   1      24.667  10.044  31.086  0.00  0.00    -0.362 N 
ATOM      7  C   UNK d   1      24.981  10.934  32.151  0.00  0.00     0.144 C 
ATOM      8  C   UNK d   1      24.119  12.187  31.905  0.00  0.00     0.146 C 
ENDROOT
BRANCH   6   9
ATOM      9  C   UNK d   1      23.912   8.849  31.167  0.00  0.00     0.146 A 
ATOM     10  N   UNK d   1      22.728   8.799  31.839  0.00  0.00    -0.045 NA
ATOM     11  C   UNK d   1      22.003   7.673  31.925  0.00  0.00     0.726 A 
ATOM     12  N   UNK d   1      22.440   6.539  31.335  0.00  0.00    -0.068 NA
ATOM     13  C   UNK d   1      23.595   6.494  30.650  0.00  0.00     0.053 A 
ATOM     14  C   UNK d   1      24.328   7.689  30.581  0.00  0.00     0.078 A 
ATOM     15  C   UNK d   1      24.095   5.257  29.991  0.00  0.00     0.071 C 
BRANCH  11  16
ATOM     16  N   UNK d   1      20.777   7.672  32.636  0.00  0.00    -0.210 N 
ATOM     17  C   UNK d   1      20.337   8.774  33.456  0.00  0.00     0.167 C 
ATOM     18  C   UNK d   1      18.953   9.191  33.058  0.00  0.00     0.188 C 
ATOM     19  O   UNK d   1      18.343   8.294  32.183  0.00  0.00    -0.388 OA
ATOM     20  C   UNK d   1      18.479   6.988  32.644  0.00  0.00     0.188 C 
ATOM     21  C   UNK d   1      19.909   6.517  32.547  0.00  0.00     0.167 C 
ENDBRANCH  11  16
ENDBRANCH   6   9
BRANCH   1  22
ATOM     22  C   UNK d   1      21.923  13.801  30.647  0.00  0.00     0.144 A 
ATOM     23  O   UNK d   1      20.828  13.224  31.040  0.00  0.00    -0.298 OA
ATOM     24  C   UNK d   1      20.074  14.022  31.705  0.00  0.00     0.122 A 
ATOM     25 Br   UNK d   1      18.351  13.653  32.501  0.00  0.00    -0.023 Br
ATOM     26  C   UNK d   1      20.697  15.244  31.775  0.00  0.00     0.048 A 
ATOM     27  C   UNK d   1      21.880  15.100  31.097  0.00  0.00     0.046 A 
ENDBRANCH   1  22
TORSDOF 3
ENDMDL
