/Users/jonathanwahrer/Desktop/Msc/3_Semester/Drug_Design_Praktikum/waehrer_HTS_screening/HTS_experiment/out/docking_results/vina_output/3elj/0767_docked.pdbqt
 OpenBabel03192217503D

 32 35  0  0  0  0  0  0  0  0999 V2000
   25.6170    4.9580   30.4570 C   0  0  0  0  0  2  0  0  0  0  0  0
   25.6210    6.3780   30.5520 N   0  0  0  0  0  0  0  0  0  0  0  0
   25.9070    7.2050   29.4300 C   0  0  0  0  0  0  0  0  0  0  0  0
   26.1650    6.6380   28.3150 O   0  0  0  0  0  0  0  0  0  0  0  0
   25.4100    6.8310   31.4610 H   0  0  0  0  0  0  0  0  0  0  0  0
   25.9130    8.6600   29.5230 C   0  0  0  0  0  0  0  0  0  0  0  0
   26.9990    9.3870   29.4600 O   0  0  0  0  0  0  0  0  0  0  0  0
   26.7040   10.6500   29.5720 N   0  0  0  0  0  0  0  0  0  0  0  0
   25.3670   10.7910   29.7160 C   0  0  0  0  0  0  0  0  0  0  0  0
   24.9070    9.5290   29.6810 N   0  0  0  0  0  0  0  0  0  0  0  0
   24.6120   12.0290   29.8730 C   0  0  0  0  0  0  0  0  0  0  0  0
   24.0360   12.4860   30.9550 O   0  0  0  0  0  0  0  0  0  0  0  0
   23.4420   13.6230   30.7570 C   0  0  0  0  0  0  0  0  0  0  0  0
   22.4710   14.6910   31.9880 Br  0  0  0  0  0  0  0  0  0  0  0  0
   23.6210   13.9900   29.4220 C   0  0  0  0  0  3  0  0  0  0  0  0
   24.3700   12.9580   28.8770 C   0  0  0  0  0  3  0  0  0  0  0  0
   24.2400    4.3580   30.6490 C   0  0  0  0  0  2  0  0  0  0  0  0
   23.4240    5.1780   31.5340 N   0  0  0  0  0  0  0  0  0  0  0  0
   22.5810    6.1540   30.9750 C   0  0  0  0  0  0  0  0  0  0  0  0
   22.6100    6.2340   29.6950 O   0  0  0  0  0  0  0  0  0  0  0  0
   23.4470    5.0570   32.5630 H   0  0  0  0  0  0  0  0  0  0  0  0
   21.7000    7.0630   31.6620 C   0  0  0  0  0  0  0  0  0  0  0  0
   21.9700    8.4300   31.5970 C   0  0  0  0  0  3  0  0  0  0  0  0
   21.1410    9.3190   32.2330 C   0  0  0  0  0  0  0  0  0  0  0  0
   20.0600    8.8730   32.9280 C   0  0  0  0  0  0  0  0  0  0  0  0
   21.3810   10.6950   32.1890 C   0  0  0  0  0  3  0  0  0  0  0  0
   19.2190    9.7820   33.5740 C   0  0  0  0  0  3  0  0  0  0  0  0
   19.8340    7.5910   32.9700 O   0  0  0  0  0  0  0  0  0  0  0  0
   19.4500   11.1350   33.5320 C   0  0  0  0  0  3  0  0  0  0  0  0
   20.5430   11.5790   32.8320 C   0  0  0  0  0  3  0  0  0  0  0  0
   20.5940    6.6780   32.3770 C   0  0  0  0  0  0  0  0  0  0  0  0
   20.2660    5.4740   32.4970 O   0  0  0  0  0  0  0  0  0  0  0  0
  1  2  1  0  0  0  0
  1 17  1  0  0  0  0
  2  5  1  0  0  0  0
  3  6  1  0  0  0  0
  3  2  1  0  0  0  0
  4  3  2  0  0  0  0
  6 10  2  0  0  0  0
  7  6  1  0  0  0  0
  7  8  1  0  0  0  0
  8  9  2  0  0  0  0
  9 11  1  0  0  0  0
 10  9  1  0  0  0  0
 11 12  1  0  0  0  0
 13 12  1  0  0  0  0
 13 14  1  0  0  0  0
 15 13  2  0  0  0  0
 16 15  1  0  0  0  0
 16 11  2  0  0  0  0
 17 18  1  0  0  0  0
 18 21  1  0  0  0  0
 19 18  1  0  0  0  0
 19 22  1  0  0  0  0
 20 19  2  0  0  0  0
 22 31  1  0  0  0  0
 23 22  2  0  0  0  0
 23 24  1  0  0  0  0
 24 25  1  0  0  0  0
 25 28  1  0  0  0  0
 25 27  2  0  0  0  0
 26 24  2  0  0  0  0
 26 30  1  0  0  0  0
 29 27  1  0  0  0  0
 30 29  2  0  0  0  0
 31 32  2  0  0  0  0
 31 28  1  0  0  0  0
M  END
>  <Pose>
1

>  <Score>
-9.475

$$$$
