MODEL 1
REMARK VINA RESULT:    -8.763      0.000      0.000
REMARK INTER + INTRA:         -10.592
REMARK INTER:                 -11.837
REMARK INTRA:                   1.245
REMARK UNBOUND:                 1.245
REMARK  7 active torsions:
REMARK  status: ('A' for Active; 'I' for Inactive)
REMARK    1  A    between atoms: N_4  and  C_10 
REMARK    2  A    between atoms: C_11  and  O_33 
REMARK       I    between atoms: N_18  and  C_21 
REMARK    3  A    between atoms: C_21  and  C_23 
REMARK    4  A    between atoms: C_25  and  O_29 
REMARK    5  A    between atoms: O_29  and  C_30 
REMARK    6  A    between atoms: C_30  and  C_31 
REMARK    7  A    between atoms: C_31  and  N_32 
ROOT
ATOM      1  C   UNK d   1      24.409  11.630  31.563  0.00  0.00     0.152 C 
ATOM      2  C   UNK d   1      24.830  11.426  30.102  0.00  0.00     0.080 C 
ATOM      3  C   UNK d   1      24.104  10.250  29.544  0.00  0.00     0.077 C 
ATOM      4  C   UNK d   1      24.519   9.017  30.315  0.00  0.00     0.067 C 
ATOM      5  O   UNK d   1      25.078   9.318  31.542  0.00  0.00    -0.378 OA
ATOM      6  C   UNK d   1      24.390  10.301  32.241  0.00  0.00     0.197 C 
ATOM      7  C   UNK d   1      23.343   8.113  30.389  0.00  0.00     0.058 C 
ATOM      8  C   UNK d   1      23.761   6.837  31.137  0.00  0.00     0.128 C 
ATOM      9  N   UNK d   1      24.701   6.144  30.319  0.00  0.00    -0.359 N 
ATOM     10  C   UNK d   1      25.174   6.917  29.122  0.00  0.00     0.128 C 
ATOM     11  C   UNK d   1      25.577   8.305  29.499  0.00  0.00     0.058 C 
ATOM     12  C   UNK d   1      25.195   4.872  30.533  0.00  0.00     0.187 C 
ATOM     13  O   UNK d   1      26.042   4.437  29.623  0.00  0.00    -0.171 OA
ATOM     14  C   UNK d   1      24.662  12.681  29.309  0.00  0.00     0.048 C 
ENDROOT
BRANCH   2  15
ATOM     15  O   UNK d   1      26.192  11.115  30.127  0.00  0.00    -0.388 OA
ATOM     16  H   UNK d   1      26.410  10.301  29.606  0.00  0.00     0.210 HD
ENDBRANCH   2  15
BRANCH   1  17
ATOM     17  N   UNK d   1      23.218  12.407  31.685  0.00  0.00    -0.298 N 
ATOM     18  C   UNK d   1      23.172  13.747  31.575  0.00  0.00     0.121 A 
ATOM     19  C   UNK d   1      22.010  14.467  31.698  0.00  0.00     0.094 A 
ATOM     20 Br   UNK d   1      22.094  16.359  31.519  0.00  0.00    -0.044 Br
ATOM     21  C   UNK d   1      20.829  13.811  31.945  0.00  0.00     0.268 A 
ATOM     22  N   UNK d   1      20.875  12.472  32.054  0.00  0.00    -0.274 N 
ATOM     23  O   UNK d   1      19.771  14.477  32.057  0.00  0.00    -0.267 OA
ATOM     24  C   UNK d   1      22.014  11.808  31.931  0.00  0.00     0.329 A 
ATOM     25  H   UNK d   1      19.972  11.988  32.242  0.00  0.00     0.173 HD
ATOM     26  O   UNK d   1      21.974  10.549  32.048  0.00  0.00    -0.246 OA
ENDBRANCH   1  17
BRANCH  12  27
ATOM     27  C   UNK d   1      24.949   3.941  31.576  0.00  0.00     0.020 A 
ATOM     28  C   UNK d   1      25.977   3.091  32.023  0.00  0.00     0.052 A 
ATOM     29  C   UNK d   1      25.871   2.175  33.020  0.00  0.00     0.069 A 
ATOM     30  C   UNK d   1      24.615   2.080  33.656  0.00  0.00     0.037 A 
ATOM     31  C   UNK d   1      23.611   2.888  33.244  0.00  0.00     0.004 A 
ATOM     32  C   UNK d   1      23.753   3.826  32.207  0.00  0.00     0.016 A 
BRANCH  29  33
ATOM     33  O   UNK d   1      26.891   1.365  33.422  0.00  0.00    -0.349 OA
BRANCH  33  34
ATOM     34  C   UNK d   1      28.230   1.579  33.559  0.00  0.00     0.205 C 
BRANCH  34  35
ATOM     35  C   UNK d   1      28.567   2.422  34.741  0.00  0.00     0.293 C 
BRANCH  35  36
ATOM     36  N   UNK d   1      29.278   3.622  34.300  0.00  0.00     0.080 N 
ATOM     37  H   UNK d   1      29.346   4.330  35.045  0.00  0.00     0.312 HD
ATOM     38  H   UNK d   1      28.949   3.971  33.394  0.00  0.00     0.312 HD
ENDBRANCH  35  36
ENDBRANCH  34  35
ENDBRANCH  33  34
ENDBRANCH  29  33
ENDBRANCH  12  27
TORSDOF 7
ENDMDL
