MODEL 1
REMARK VINA RESULT:    -7.162      0.000      0.000
REMARK INTER + INTRA:         -10.171
REMARK INTER:                  -9.464
REMARK INTRA:                  -0.707
REMARK UNBOUND:                -0.707
REMARK  7 active torsions:
REMARK  status: ('A' for Active; 'I' for Inactive)
REMARK    1  A    between atoms: N_4  and  C_10 
REMARK    2  A    between atoms: C_11  and  O_33 
REMARK       I    between atoms: N_18  and  C_21 
REMARK    3  A    between atoms: C_21  and  C_23 
REMARK    4  A    between atoms: C_23  and  N_24 
REMARK    5  A    between atoms: C_23  and  C_25 
REMARK    6  A    between atoms: C_25  and  C_26 
REMARK    7  A    between atoms: C_29  and  O_32 
ROOT
ATOM      1  C   UNK d   1      25.191  -0.236  33.775  0.00  0.00     0.152 C 
ATOM      2  C   UNK d   1      24.734   1.013  33.135  0.00  0.00     0.080 C 
ATOM      3  C   UNK d   1      25.653   1.515  32.015  0.00  0.00     0.077 C 
ATOM      4  C   UNK d   1      27.070   1.651  32.513  0.00  0.00     0.067 C 
ATOM      5  O   UNK d   1      27.300   0.868  33.628  0.00  0.00    -0.378 OA
ATOM      6  C   UNK d   1      26.684  -0.345  33.633  0.00  0.00     0.197 C 
ATOM      7  C   UNK d   1      27.312   3.121  32.801  0.00  0.00     0.058 C 
ATOM      8  C   UNK d   1      27.975   3.787  31.624  0.00  0.00     0.129 C 
ATOM      9  N   UNK d   1      27.389   3.273  30.413  0.00  0.00    -0.350 N 
ATOM     10  C   UNK d   1      27.683   1.881  30.108  0.00  0.00     0.129 C 
ATOM     11  C   UNK d   1      27.998   1.189  31.414  0.00  0.00     0.058 C 
ATOM     12  C   UNK d   1      26.608   4.086  29.587  0.00  0.00     0.253 C 
ATOM     13  O   UNK d   1      26.138   3.513  28.537  0.00  0.00    -0.271 OA
ATOM     14  C   UNK d   1      24.412   2.138  34.065  0.00  0.00     0.048 C 
ENDROOT
BRANCH   2  15
ATOM     15  O   UNK d   1      23.521   0.715  32.461  0.00  0.00    -0.388 OA
ATOM     16  H   UNK d   1      23.419   1.250  31.641  0.00  0.00     0.210 HD
ENDBRANCH   2  15
BRANCH   1  17
ATOM     17  N   UNK d   1      24.780  -0.392  35.156  0.00  0.00    -0.298 N 
ATOM     18  C   UNK d   1      25.562   0.062  36.129  0.00  0.00     0.121 A 
ATOM     19  C   UNK d   1      25.204  -0.078  37.450  0.00  0.00     0.094 A 
ATOM     20 Br   UNK d   1      26.349   0.588  38.841  0.00  0.00    -0.044 Br
ATOM     21  C   UNK d   1      24.011  -0.702  37.750  0.00  0.00     0.268 A 
ATOM     22  N   UNK d   1      23.261  -1.141  36.721  0.00  0.00    -0.274 N 
ATOM     23  O   UNK d   1      23.636  -0.855  38.949  0.00  0.00    -0.267 OA
ATOM     24  C   UNK d   1      23.629  -0.996  35.439  0.00  0.00     0.329 A 
ATOM     25  H   UNK d   1      22.340  -1.624  36.947  0.00  0.00     0.173 HD
ATOM     26  O   UNK d   1      22.852  -1.446  34.533  0.00  0.00    -0.246 OA
ENDBRANCH   1  17
BRANCH  12  27
ATOM     27  C   UNK d   1      26.252   5.492  29.740  0.00  0.00     0.313 C 
BRANCH  27  28
ATOM     28  N   UNK d   1      27.321   6.381  29.282  0.00  0.00     0.092 N 
ATOM     29  H   UNK d   1      28.111   5.837  28.871  0.00  0.00     0.313 HD
ATOM     30  H   UNK d   1      27.715   6.883  30.116  0.00  0.00     0.313 HD
ENDBRANCH  27  28
BRANCH  27  31
ATOM     31  C   UNK d   1      25.007   5.928  28.999  0.00  0.00     0.083 C 
BRANCH  31  32
ATOM     32  C   UNK d   1      23.868   5.772  29.978  0.00  0.00    -0.056 A 
ATOM     33  C   UNK d   1      23.743   4.624  30.715  0.00  0.00     0.010 A 
ATOM     34  C   UNK d   1      22.678   4.522  31.605  0.00  0.00     0.037 A 
ATOM     35  C   UNK d   1      21.761   5.537  31.759  0.00  0.00     0.065 A 
ATOM     36  C   UNK d   1      21.922   6.679  30.999  0.00  0.00     0.037 A 
ATOM     37  C   UNK d   1      22.967   6.809  30.107  0.00  0.00     0.010 A 
BRANCH  35  38
ATOM     38  O   UNK d   1      20.724   5.381  32.658  0.00  0.00    -0.361 OA
ATOM     39  H   UNK d   1      20.632   4.585  33.290  0.00  0.00     0.217 HD
ENDBRANCH  35  38
ENDBRANCH  31  32
ENDBRANCH  27  31
ENDBRANCH  12  27
TORSDOF 7
ENDMDL
