/Users/jonathanwahrer/Desktop/Msc/3_Semester/Drug_Design_Praktikum/waehrer_HTS_screening/HTS_experiment/out/docking_results/vina_output/3elj/0783_docked.pdbqt
 OpenBabel03192217513D

 39 42  0  0  1  0  0  0  0  0999 V2000
   25.1910   -0.2360   33.7750 C   0  0  1  0  0  3  0  0  0  0  0  0
   24.7340    1.0130   33.1350 C   0  0  2  0  0  0  0  0  0  0  0  0
   25.6530    1.5150   32.0150 C   0  0  0  0  0  2  0  0  0  0  0  0
   27.0700    1.6510   32.5130 C   0  0  2  0  0  0  0  0  0  0  0  0
   27.3000    0.8680   33.6280 O   0  0  0  0  0  0  0  0  0  0  0  0
   26.6840   -0.3450   33.6330 C   0  0  0  0  0  2  0  0  0  0  0  0
   27.3120    3.1210   32.8010 C   0  0  0  0  0  2  0  0  0  0  0  0
   27.9750    3.7870   31.6240 C   0  0  0  0  0  2  0  0  0  0  0  0
   27.3890    3.2730   30.4130 N   0  0  0  0  0  0  0  0  0  0  0  0
   27.6830    1.8810   30.1080 C   0  0  0  0  0  2  0  0  0  0  0  0
   27.9980    1.1890   31.4140 C   0  0  0  0  0  2  0  0  0  0  0  0
   26.6080    4.0860   29.5870 C   0  0  0  0  0  0  0  0  0  0  0  0
   26.1380    3.5130   28.5370 O   0  0  0  0  0  0  0  0  0  0  0  0
   24.4120    2.1380   34.0650 C   0  0  0  0  0  1  0  0  0  0  0  0
   23.5210    0.7150   32.4610 O   0  0  0  0  0  0  0  0  0  0  0  0
   23.4190    1.2500   31.6410 H   0  0  0  0  0  0  0  0  0  0  0  0
   24.7800   -0.3920   35.1560 N   0  0  0  0  0  0  0  0  0  0  0  0
   25.5620    0.0620   36.1290 C   0  0  0  0  0  3  0  0  0  0  0  0
   25.2040   -0.0780   37.4500 C   0  0  0  0  0  0  0  0  0  0  0  0
   26.3490    0.5880   38.8410 Br  0  0  0  0  0  0  0  0  0  0  0  0
   24.0110   -0.7020   37.7500 C   0  0  0  0  0  0  0  0  0  0  0  0
   23.2610   -1.1410   36.7210 N   0  0  0  0  0  0  0  0  0  0  0  0
   23.6360   -0.8550   38.9490 O   0  0  0  0  0  0  0  0  0  0  0  0
   23.6290   -0.9960   35.4390 C   0  0  0  0  0  0  0  0  0  0  0  0
   22.3400   -1.6240   36.9470 H   0  0  0  0  0  0  0  0  0  0  0  0
   22.8520   -1.4460   34.5330 O   0  0  0  0  0  0  0  0  0  0  0  0
   26.2520    5.4920   29.7400 C   0  0  1  0  0  3  0  0  0  0  0  0
   27.3210    6.3810   29.2820 N   0  0  0  0  0  0  0  0  0  0  0  0
   28.1110    5.8370   28.8710 H   0  0  0  0  0  0  0  0  0  0  0  0
   27.7150    6.8830   30.1160 H   0  0  0  0  0  0  0  0  0  0  0  0
   25.0070    5.9280   28.9990 C   0  0  0  0  0  2  0  0  0  0  0  0
   23.8680    5.7720   29.9780 C   0  0  0  0  0  0  0  0  0  0  0  0
   23.7430    4.6240   30.7150 C   0  0  0  0  0  3  0  0  0  0  0  0
   22.6780    4.5220   31.6050 C   0  0  0  0  0  3  0  0  0  0  0  0
   21.7610    5.5370   31.7590 C   0  0  0  0  0  0  0  0  0  0  0  0
   21.9220    6.6790   30.9990 C   0  0  0  0  0  3  0  0  0  0  0  0
   22.9670    6.8090   30.1070 C   0  0  0  0  0  3  0  0  0  0  0  0
   20.7240    5.3810   32.6580 O   0  0  0  0  0  0  0  0  0  0  0  0
   20.6320    4.5850   33.2900 H   0  0  0  0  0  0  0  0  0  0  0  0
  1  6  1  1  0  0  0
  1 17  1  0  0  0  0
  2  1  1  0  0  0  0
  2 14  1  1  0  0  0
  3  4  1  0  0  0  0
  3  2  1  0  0  0  0
  4 11  1  6  0  0  0
  4  7  1  0  0  0  0
  4  5  1  0  0  0  0
  5  6  1  0  0  0  0
  8  7  1  0  0  0  0
  9  8  1  0  0  0  0
 10  9  1  0  0  0  0
 10 11  1  0  0  0  0
 12 27  1  0  0  0  0
 12  9  1  0  0  0  0
 13 12  2  0  0  0  0
 15  2  1  0  0  0  0
 16 15  1  0  0  0  0
 17 24  1  0  0  0  0
 17 18  1  0  0  0  0
 18 19  2  0  0  0  0
 19 21  1  0  0  0  0
 19 20  1  0  0  0  0
 21 23  2  0  0  0  0
 22 25  1  0  0  0  0
 22 21  1  0  0  0  0
 24 22  1  0  0  0  0
 26 24  2  0  0  0  0
 27 31  1  6  0  0  0
 28 27  1  0  0  0  0
 28 30  1  0  0  0  0
 29 28  1  0  0  0  0
 31 32  1  0  0  0  0
 32 37  2  0  0  0  0
 32 33  1  0  0  0  0
 33 34  2  0  0  0  0
 34 35  1  0  0  0  0
 35 38  1  0  0  0  0
 36 35  2  0  0  0  0
 37 36  1  0  0  0  0
 38 39  1  0  0  0  0
M  END
>  <Pose>
1

>  <Score>
-7.162

$$$$
