/Users/jonathanwahrer/Desktop/Msc/3_Semester/Drug_Design_Praktikum/waehrer_HTS_screening/HTS_experiment/out/docking_results/vina_output/3elj/0784_docked.pdbqt
 OpenBabel03192217523D

 39 42  0  0  1  0  0  0  0  0999 V2000
   23.4890    9.8680   30.1180 C   0  0  1  0  0  3  0  0  0  0  0  0
   24.6050    9.4500   31.0900 C   0  0  2  0  0  0  0  0  0  0  0  0
   24.8760    7.9820   30.7320 C   0  0  0  0  0  2  0  0  0  0  0  0
   23.5980    7.1910   30.7390 C   0  0  2  0  0  0  0  0  0  0  0  0
   22.5860    7.9700   31.2450 O   0  0  0  0  0  0  0  0  0  0  0  0
   22.2870    9.1040   30.4930 C   0  0  0  0  0  2  0  0  0  0  0  0
   23.8100    6.0510   31.7270 C   0  0  0  0  0  2  0  0  0  0  0  0
   24.4980    4.9010   31.0370 C   0  0  0  0  0  2  0  0  0  0  0  0
   25.2140    5.3760   29.8410 N   0  0  0  0  0  0  0  0  0  0  0  0
   24.3800    5.8390   28.7710 C   0  0  0  0  0  2  0  0  0  0  0  0
   23.2260    6.5910   29.4300 C   0  0  0  0  0  2  0  0  0  0  0  0
   26.6060    5.4100   29.7660 C   0  0  0  0  0  0  0  0  0  0  0  0
   27.3330    5.0690   30.7780 O   0  0  0  0  0  0  0  0  0  0  0  0
   24.1760    9.6120   32.5140 C   0  0  0  0  0  1  0  0  0  0  0  0
   25.7620   10.1720   30.8930 O   0  0  0  0  0  0  0  0  0  0  0  0
   26.4840    9.7870   31.4510 H   0  0  0  0  0  0  0  0  0  0  0  0
   23.4090   11.2610   29.9430 N   0  0  0  0  0  0  0  0  0  0  0  0
   22.6800   12.0980   30.6850 C   0  0  0  0  0  3  0  0  0  0  0  0
   22.6560   13.4720   30.4460 C   0  0  0  0  0  0  0  0  0  0  0  0
   21.5850   14.5690   31.5580 Br  0  0  0  0  0  0  0  0  0  0  0  0
   23.4020   13.9990   29.4160 C   0  0  0  0  0  0  0  0  0  0  0  0
   24.1320   13.1440   28.6770 N   0  0  0  0  0  0  0  0  0  0  0  0
   23.3970   15.2500   29.1750 O   0  0  0  0  0  0  0  0  0  0  0  0
   24.1360   11.8250   28.9310 C   0  0  0  0  0  0  0  0  0  0  0  0
   24.7200   13.4990   27.8770 H   0  0  0  0  0  0  0  0  0  0  0  0
   24.8410   11.0770   28.2020 O   0  0  0  0  0  0  0  0  0  0  0  0
   27.3320    5.8230   28.5750 C   0  0  1  0  0  3  0  0  0  0  0  0
   28.2800    6.8660   28.8810 N   0  0  0  0  0  0  0  0  0  0  0  0
   28.1220    8.2430   28.7740 C   0  0  0  0  0  0  0  0  0  0  0  0
   27.0980    8.8270   28.3640 O   0  0  0  0  0  0  0  0  0  0  0  0
   29.2470    9.1830   29.1680 C   0  0  0  0  0  1  0  0  0  0  0  0
   29.2220    6.5130   29.2340 H   0  0  0  0  0  0  0  0  0  0  0  0
   28.0980    4.6280   27.9250 C   0  0  0  0  0  2  0  0  0  0  0  0
   28.7270    5.0610   26.6650 C   0  0  0  0  0  0  0  0  0  0  0  0
   28.2510    5.8330   25.7010 N   0  0  0  0  0  0  0  0  0  0  0  0
   29.1570    5.9920   24.6970 C   0  0  0  0  0  3  0  0  0  0  0  0
   30.2440    5.2850   25.0580 N   0  0  0  0  0  0  0  0  0  0  0  0
   30.0020    4.7090   26.2550 C   0  0  0  0  0  3  0  0  0  0  0  0
   31.1110    5.2230   24.4700 H   0  0  0  0  0  0  0  0  0  0  0  0
  1 17  1  1  0  0  0
  1  6  1  0  0  0  0
  1  2  1  0  0  0  0
  2 14  1  1  0  0  0
  3  4  1  0  0  0  0
  3  2  1  0  0  0  0
  4 11  1  6  0  0  0
  4  5  1  0  0  0  0
  4  7  1  0  0  0  0
  6  5  1  0  0  0  0
  8  7  1  0  0  0  0
  9  8  1  0  0  0  0
 10 11  1  0  0  0  0
 10  9  1  0  0  0  0
 12  9  1  0  0  0  0
 12 13  2  0  0  0  0
 15  2  1  0  0  0  0
 15 16  1  0  0  0  0
 17 18  1  0  0  0  0
 19 18  2  0  0  0  0
 19 20  1  0  0  0  0
 21 19  1  0  0  0  0
 22 24  1  0  0  0  0
 22 21  1  0  0  0  0
 23 21  2  0  0  0  0
 24 17  1  0  0  0  0
 25 22  1  0  0  0  0
 26 24  2  0  0  0  0
 27 33  1  1  0  0  0
 27 28  1  0  0  0  0
 27 12  1  0  0  0  0
 28 32  1  0  0  0  0
 29 28  1  0  0  0  0
 29 31  1  0  0  0  0
 30 29  2  0  0  0  0
 34 33  1  0  0  0  0
 35 34  1  0  0  0  0
 36 37  1  0  0  0  0
 36 35  2  0  0  0  0
 37 38  1  0  0  0  0
 38 34  2  0  0  0  0
 39 37  1  0  0  0  0
M  END
>  <Pose>
1

>  <Score>
-6.409

$$$$
