MODEL 1
REMARK VINA RESULT:    -6.409      0.000      0.000
REMARK INTER + INTRA:         -10.130
REMARK INTER:                  -8.469
REMARK INTRA:                  -1.661
REMARK UNBOUND:                -1.661
REMARK  6 active torsions:
REMARK  status: ('A' for Active; 'I' for Inactive)
REMARK    1  A    between atoms: N_4  and  C_10 
REMARK    2  A    between atoms: C_11  and  O_34 
REMARK       I    between atoms: N_18  and  C_21 
REMARK    3  A    between atoms: C_21  and  C_23 
REMARK    4  A    between atoms: C_23  and  N_24 
REMARK    5  A    between atoms: C_23  and  C_28 
REMARK       I    between atoms: N_24  and  C_25 
REMARK    6  A    between atoms: C_28  and  C_29 
ROOT
ATOM      1  C   UNK d   1      23.489   9.868  30.118  0.00  0.00     0.152 C 
ATOM      2  C   UNK d   1      24.605   9.450  31.090  0.00  0.00     0.080 C 
ATOM      3  C   UNK d   1      24.876   7.982  30.732  0.00  0.00     0.077 C 
ATOM      4  C   UNK d   1      23.598   7.191  30.739  0.00  0.00     0.067 C 
ATOM      5  O   UNK d   1      22.586   7.970  31.245  0.00  0.00    -0.378 OA
ATOM      6  C   UNK d   1      22.287   9.104  30.493  0.00  0.00     0.197 C 
ATOM      7  C   UNK d   1      23.810   6.051  31.727  0.00  0.00     0.058 C 
ATOM      8  C   UNK d   1      24.498   4.901  31.037  0.00  0.00     0.129 C 
ATOM      9  N   UNK d   1      25.214   5.376  29.841  0.00  0.00    -0.350 N 
ATOM     10  C   UNK d   1      24.380   5.839  28.771  0.00  0.00     0.129 C 
ATOM     11  C   UNK d   1      23.226   6.591  29.430  0.00  0.00     0.058 C 
ATOM     12  C   UNK d   1      26.606   5.410  29.766  0.00  0.00     0.243 C 
ATOM     13  O   UNK d   1      27.333   5.069  30.778  0.00  0.00    -0.271 OA
ATOM     14  C   UNK d   1      24.176   9.612  32.514  0.00  0.00     0.048 C 
ENDROOT
BRANCH   2  15
ATOM     15  O   UNK d   1      25.762  10.172  30.893  0.00  0.00    -0.388 OA
ATOM     16  H   UNK d   1      26.484   9.787  31.451  0.00  0.00     0.210 HD
ENDBRANCH   2  15
BRANCH   1  17
ATOM     17  N   UNK d   1      23.409  11.261  29.943  0.00  0.00    -0.298 N 
ATOM     18  C   UNK d   1      22.680  12.098  30.685  0.00  0.00     0.121 A 
ATOM     19  C   UNK d   1      22.656  13.472  30.446  0.00  0.00     0.094 A 
ATOM     20 Br   UNK d   1      21.585  14.569  31.558  0.00  0.00    -0.044 Br
ATOM     21  C   UNK d   1      23.402  13.999  29.416  0.00  0.00     0.268 A 
ATOM     22  N   UNK d   1      24.132  13.144  28.677  0.00  0.00    -0.274 N 
ATOM     23  O   UNK d   1      23.397  15.250  29.175  0.00  0.00    -0.267 OA
ATOM     24  C   UNK d   1      24.136  11.825  28.931  0.00  0.00     0.329 A 
ATOM     25  H   UNK d   1      24.720  13.499  27.877  0.00  0.00     0.173 HD
ATOM     26  O   UNK d   1      24.841  11.077  28.202  0.00  0.00    -0.246 OA
ENDBRANCH   1  17
BRANCH  12  27
ATOM     27  C   UNK d   1      27.332   5.823  28.575  0.00  0.00     0.182 C 
BRANCH  27  28
ATOM     28  N   UNK d   1      28.280   6.866  28.881  0.00  0.00    -0.348 N 
ATOM     29  C   UNK d   1      28.122   8.243  28.774  0.00  0.00     0.214 C 
ATOM     30  O   UNK d   1      27.098   8.827  28.364  0.00  0.00    -0.274 OA
ATOM     31  C   UNK d   1      29.247   9.183  29.168  0.00  0.00     0.117 C 
ATOM     32  H   UNK d   1      29.222   6.513  29.234  0.00  0.00     0.163 HD
ENDBRANCH  27  28
BRANCH  27  33
ATOM     33  C   UNK d   1      28.098   4.628  27.925  0.00  0.00     0.095 C 
BRANCH  33  34
ATOM     34  C   UNK d   1      28.727   5.061  26.665  0.00  0.00     0.053 A 
ATOM     35  N   UNK d   1      28.251   5.833  25.701  0.00  0.00    -0.247 NA
ATOM     36  C   UNK d   1      29.157   5.992  24.697  0.00  0.00     0.207 A 
ATOM     37  N   UNK d   1      30.244   5.285  25.058  0.00  0.00    -0.359 N 
ATOM     38  C   UNK d   1      30.002   4.709  26.255  0.00  0.00     0.116 A 
ATOM     39  H   UNK d   1      31.111   5.223  24.470  0.00  0.00     0.166 HD
ENDBRANCH  33  34
ENDBRANCH  27  33
ENDBRANCH  12  27
TORSDOF 6
ENDMDL
