/Users/jonathanwahrer/Desktop/Msc/3_Semester/Drug_Design_Praktikum/waehrer_HTS_screening/HTS_experiment/out/docking_results/vina_output/3elj/0786_docked.pdbqt
 OpenBabel03192217523D

 25 28  0  0  1  0  0  0  0  0999 V2000
   20.8460   13.1630   33.2860 N   0  0  0  0  0  0  0  0  0  0  0  0
   20.8810   14.4080   32.6400 C   0  0  0  0  0  0  0  0  0  0  0  0
   19.9110   14.7810   31.9470 O   0  0  0  0  0  0  0  0  0  0  0  0
   21.6580   12.8630   33.8590 H   0  0  0  0  0  0  0  0  0  0  0  0
   19.6810   12.3170   33.1440 C   0  0  0  0  0  2  0  0  0  0  0  0
   20.0690   10.9130   32.8540 C   0  0  0  0  0  0  0  0  0  0  0  0
   19.3950    9.7920   33.1720 N   0  0  0  0  0  0  0  0  0  0  0  0
   20.0790    8.7200   32.7360 C   0  0  0  0  0  0  0  0  0  0  0  0
   21.2020    9.1480   32.1320 N   0  0  0  0  0  0  0  0  0  0  0  0
   19.7970    7.3590   32.8220 C   0  0  0  0  0  3  0  0  0  0  0  0
   22.0550    8.2240   31.6080 C   0  0  0  0  0  3  0  0  0  0  0  0
   21.2060   10.4930   32.1980 C   0  0  0  0  0  3  0  0  0  0  0  0
   21.8060    6.8710   31.6770 C   0  0  0  0  0  0  0  0  0  0  0  0
   23.0080    5.5750   30.9380 Br  0  0  0  0  0  0  0  0  0  0  0  0
   20.6560    6.4270   32.2950 C   0  0  0  0  0  3  0  0  0  0  0  0
   22.0580   15.2870   32.7710 C   0  0  1  0  0  3  0  0  0  0  0  0
   23.3310   14.4830   32.6880 C   0  0  0  0  0  2  0  0  0  0  0  0
   23.3390   13.8370   31.3890 N   0  0  0  0  0  0  0  0  0  0  0  0
   22.8450   14.4770   30.3170 C   0  0  0  0  0  0  0  0  0  0  0  0
   23.7650   12.6430   30.9770 C   0  0  0  0  0  0  0  0  0  0  0  0
   22.9850   13.6430   29.2660 N   0  0  0  0  0  0  0  0  0  0  0  0
   22.2730   15.8320   30.3390 C   0  0  0  0  0  2  0  0  0  0  0  0
   23.5390   12.5360   29.6620 N   0  0  0  0  0  0  0  0  0  0  0  0
   22.0130   16.3530   31.7080 C   0  0  0  0  0  2  0  0  0  0  0  0
   24.3960   11.5490   31.7790 C   0  0  0  0  0  1  0  0  0  0  0  0
  1  4  1  0  0  0  0
  2  1  1  0  0  0  0
  3  2  2  0  0  0  0
  5  1  1  0  0  0  0
  6  5  1  0  0  0  0
  6  7  1  0  0  0  0
  8 10  1  0  0  0  0
  8  7  2  0  0  0  0
  9 12  1  0  0  0  0
  9  8  1  0  0  0  0
 11 13  2  0  0  0  0
 11  9  1  0  0  0  0
 12  6  2  0  0  0  0
 13 15  1  0  0  0  0
 14 13  1  0  0  0  0
 15 10  2  0  0  0  0
 16  2  1  6  0  0  0
 17 16  1  0  0  0  0
 18 17  1  0  0  0  0
 19 22  1  0  0  0  0
 19 18  1  0  0  0  0
 20 18  1  0  0  0  0
 20 25  1  0  0  0  0
 21 23  1  0  0  0  0
 21 19  2  0  0  0  0
 22 24  1  0  0  0  0
 23 20  2  0  0  0  0
 24 16  1  0  0  0  0
M  END
>  <Pose>
1

>  <Score>
-7.848

$$$$
