MODEL 1
REMARK VINA RESULT:    -7.793      0.000      0.000
REMARK INTER + INTRA:          -7.847
REMARK INTER:                  -8.248
REMARK INTRA:                   0.401
REMARK UNBOUND:                 0.401
REMARK  1 active torsions:
REMARK  status: ('A' for Active; 'I' for Inactive)
REMARK    1  A    between atoms: C_6  and  C_11 
REMARK       I    between atoms: C_11  and  N_13 
ROOT
ATOM      1  C   UNK d   1      20.443  10.889  32.809  0.00  0.00     0.274 C 
ATOM      2  O   UNK d   1      19.378  10.953  33.480  0.00  0.00    -0.266 OA
ATOM      3  N   UNK d   1      21.093  12.103  32.470  0.00  0.00    -0.343 N 
ATOM      4  C   UNK d   1      20.547  13.342  32.887  0.00  0.00     0.161 C 
ATOM      5  C   UNK d   1      20.894  14.481  32.002  0.00  0.00     0.241 C 
ATOM      6  N   UNK d   1      21.740  14.173  30.885  0.00  0.00     0.096 N 
ATOM      7  C   UNK d   1      22.870  13.355  31.283  0.00  0.00     0.292 C 
ATOM      8  C   UNK d   1      22.303  12.011  31.699  0.00  0.00     0.156 C 
ATOM      9  C   UNK d   1      22.094  15.459  30.365  0.00  0.00     0.273 C 
ATOM     10  C   UNK d   1      22.267  16.347  31.572  0.00  0.00     0.032 C 
ATOM     11  C   UNK d   1      21.684  15.559  32.724  0.00  0.00     0.039 C 
ENDROOT
BRANCH   1  12
ATOM     12  C   UNK d   1      20.963   9.572  32.414  0.00  0.00     0.148 A 
ATOM     13  N   UNK d   1      22.187   9.218  31.999  0.00  0.00    -0.161 NA
ATOM     14  N   UNK d   1      22.260   7.923  31.734  0.00  0.00    -0.225 N 
ATOM     15  C   UNK d   1      23.254   7.106  31.297  0.00  0.00     0.141 A 
ATOM     16  C   UNK d   1      21.062   7.355  31.967  0.00  0.00     0.152 A 
ATOM     17  C   UNK d   1      23.061   5.757  31.098  0.00  0.00     0.046 A 
ATOM     18 Br   UNK d   1      24.481   4.620  30.479  0.00  0.00    -0.048 Br
ATOM     19  C   UNK d   1      21.826   5.199  31.342  0.00  0.00     0.139 A 
ATOM     20  N   UNK d   1      20.861   6.025  31.772  0.00  0.00    -0.240 NA
ATOM     21  C   UNK d   1      20.240   8.379  32.393  0.00  0.00     0.091 A 
ENDBRANCH   1  12
TORSDOF 1
ENDMDL
