MODEL 1
REMARK VINA RESULT:    -8.422      0.000      0.000
REMARK INTER + INTRA:          -8.904
REMARK INTER:                  -9.407
REMARK INTRA:                   0.502
REMARK UNBOUND:                 0.502
REMARK  2 active torsions:
REMARK  status: ('A' for Active; 'I' for Inactive)
REMARK    1  A    between atoms: C_7  and  C_11 
REMARK       I    between atoms: C_11  and  N_13 
REMARK       I    between atoms: N_16  and  C_19 
REMARK    2  A    between atoms: C_19  and  C_21 
ROOT
ATOM      1  C   UNK d   1      24.557  11.946  29.321  0.00  0.00     0.259 C 
ATOM      2  O   UNK d   1      24.802  11.810  28.088  0.00  0.00    -0.267 OA
ATOM      3  N   UNK d   1      25.037  11.003  30.267  0.00  0.00    -0.345 N 
ATOM      4  C   UNK d   1      24.707  11.237  31.682  0.00  0.00     0.146 C 
ATOM      5  C   UNK d   1      24.743   9.841  32.304  0.00  0.00     0.145 C 
ATOM      6  N   UNK d   1      24.177   8.962  31.325  0.00  0.00    -0.354 N 
ATOM      7  C   UNK d   1      25.179   8.528  30.308  0.00  0.00     0.145 C 
ATOM      8  C   UNK d   1      25.824   9.846  29.870  0.00  0.00     0.146 C 
ATOM      9  C   UNK d   1      22.865   8.533  31.203  0.00  0.00     0.211 C 
ATOM     10  O   UNK d   1      22.606   7.692  30.245  0.00  0.00    -0.169 OA
ENDROOT
BRANCH   1  11
ATOM     11  C   UNK d   1      23.779  13.087  29.735  0.00  0.00     0.099 A 
ATOM     12  C   UNK d   1      22.962  13.230  30.832  0.00  0.00     0.160 A 
ATOM     13  N   UNK d   1      22.430  14.463  30.831  0.00  0.00    -0.178 NA
ATOM     14  N   UNK d   1      22.887  15.112  29.759  0.00  0.00    -0.225 N 
ATOM     15  C   UNK d   1      22.666  16.340  29.309  0.00  0.00     0.141 A 
ATOM     16  C   UNK d   1      23.711  14.305  29.068  0.00  0.00     0.167 A 
ATOM     17  C   UNK d   1      23.256  16.788  28.169  0.00  0.00     0.046 A 
ATOM     18 Br   UNK d   1      22.933  18.553  27.531  0.00  0.00    -0.048 Br
ATOM     19  C   UNK d   1      24.094  15.964  27.470  0.00  0.00     0.139 A 
ATOM     20  N   UNK d   1      24.302  14.732  27.941  0.00  0.00    -0.239 NA
ENDBRANCH   1  11
BRANCH   9  21
ATOM     21  C   UNK d   1      21.696   8.880  31.993  0.00  0.00     0.128 A 
ATOM     22  O   UNK d   1      20.822   7.992  32.487  0.00  0.00    -0.318 OA
ATOM     23  C   UNK d   1      19.874   8.563  33.148  0.00  0.00     0.142 A 
ATOM     24  C   UNK d   1      20.064   9.922  33.137  0.00  0.00     0.027 A 
ATOM     25  C   UNK d   1      21.223  10.104  32.400  0.00  0.00     0.043 A 
ENDBRANCH   9  21
TORSDOF 2
ENDMDL
