MODEL 1
REMARK VINA RESULT:    -9.735      0.000      0.000
REMARK INTER + INTRA:         -13.202
REMARK INTER:                 -12.581
REMARK INTRA:                  -0.621
REMARK UNBOUND:                -0.621
REMARK  5 active torsions:
REMARK  status: ('A' for Active; 'I' for Inactive)
REMARK    1  A    between atoms: C_7  and  C_11 
REMARK    2  A    between atoms: C_11  and  O_12 
REMARK    3  A    between atoms: O_12  and  C_13 
REMARK    4  A    between atoms: C_13  and  C_15 
REMARK    5  A    between atoms: C_15  and  N_16 
ROOT
ATOM      1  O   UNK d   1      23.823  11.581  30.378  0.00  0.00    -0.314 OA
ENDROOT
BRANCH   1   2
ATOM      2  C   UNK d   1      23.547  12.606  31.296  0.00  0.00     0.238 C 
BRANCH   2   3
ATOM      3  C   UNK d   1      23.238  13.911  30.658  0.00  0.00     0.066 A 
ATOM      4  N   UNK d   1      23.692  14.224  29.421  0.00  0.00    -0.233 NA
ATOM      5  C   UNK d   1      23.423  15.396  28.820  0.00  0.00     0.137 A 
ATOM      6  N   UNK d   1      22.679  16.350  29.407  0.00  0.00    -0.272 N 
ATOM      7  C   UNK d   1      23.908  15.683  27.541  0.00  0.00     0.052 A 
ATOM      8  C   UNK d   1      22.419  17.522  28.789  0.00  0.00     0.121 A 
ATOM      9  C   UNK d   1      22.205  16.083  30.642  0.00  0.00     0.255 A 
ATOM     10  C   UNK d   1      22.883  17.834  27.530  0.00  0.00     0.027 A 
ATOM     11 Br   UNK d   1      22.484  19.515  26.698  0.00  0.00    -0.050 Br
ATOM     12  C   UNK d   1      23.649  16.875  26.901  0.00  0.00     0.024 A 
ATOM     13  C   UNK d   1      22.473  14.876  31.280  0.00  0.00     0.104 A 
ATOM     14  O   UNK d   1      21.518  16.958  31.192  0.00  0.00    -0.268 OA
ENDBRANCH   2   3
ENDBRANCH   1   2
BRANCH   1  15
ATOM     15  C   UNK d   1      23.229  10.336  30.364  0.00  0.00     0.277 C 
ATOM     16  O   UNK d   1      22.659   9.937  29.328  0.00  0.00    -0.263 OA
BRANCH  15  17
ATOM     17  C   UNK d   1      23.289   9.506  31.589  0.00  0.00     0.246 C 
BRANCH  17  18
ATOM     18  N   UNK d   1      21.977   9.086  31.991  0.00  0.00    -0.271 N 
ATOM     19  C   UNK d   1      21.450   7.782  31.879  0.00  0.00     0.262 A 
ATOM     20  O   UNK d   1      21.987   6.741  31.421  0.00  0.00    -0.267 OA
ATOM     21  C   UNK d   1      20.070   7.795  32.412  0.00  0.00     0.048 A 
ATOM     22  C   UNK d   1      19.798   9.071  32.825  0.00  0.00     0.048 A 
ATOM     23  C   UNK d   1      19.125   6.791  32.532  0.00  0.00     0.018 A 
ATOM     24  C   UNK d   1      18.592   9.406  33.370  0.00  0.00     0.018 A 
ATOM     25  C   UNK d   1      20.981   9.897  32.570  0.00  0.00     0.262 A 
ATOM     26  C   UNK d   1      17.637   8.427  33.500  0.00  0.00     0.001 A 
ATOM     27  C   UNK d   1      17.911   7.139  33.083  0.00  0.00     0.001 A 
ATOM     28  O   UNK d   1      21.061  11.134  32.839  0.00  0.00    -0.267 OA
ENDBRANCH  17  18
ENDBRANCH  15  17
ENDBRANCH   1  15
TORSDOF 5
ENDMDL
