MODEL 1
REMARK VINA RESULT:    -8.897      0.000      0.000
REMARK INTER + INTRA:         -12.894
REMARK INTER:                 -12.018
REMARK INTRA:                  -0.876
REMARK UNBOUND:                -0.876
REMARK  6 active torsions:
REMARK  status: ('A' for Active; 'I' for Inactive)
REMARK    1  A    between atoms: C_16  and  N_17 
REMARK    2  A    between atoms: N_17  and  C_18 
REMARK    3  A    between atoms: C_19  and  C_24 
REMARK    4  A    between atoms: C_24  and  O_26 
REMARK    5  A    between atoms: O_26  and  C_27 
REMARK    6  A    between atoms: C_27  and  C_28 
ROOT
ATOM      1 Br   UNK d   1      25.416  12.169  28.297  0.00  0.00    -0.046 Br
ATOM      2  C   UNK d   1      24.044  11.352  29.326  0.00  0.00     0.072 A 
ATOM      3  C   UNK d   1      23.960  10.019  29.529  0.00  0.00     0.141 A 
ATOM      4  N   UNK d   1      23.050   9.446  30.322  0.00  0.00    -0.118 N 
ATOM      5  C   UNK d   1      22.174  10.230  30.950  0.00  0.00     0.716 A 
ATOM      6  N   UNK d   1      21.232   9.668  31.758  0.00  0.00    -0.063 NA
ATOM      7  C   UNK d   1      21.135   8.361  31.956  0.00  0.00     0.091 A 
ATOM      8  C   UNK d   1      22.028   7.529  31.319  0.00  0.00     0.062 A 
ATOM      9  C   UNK d   1      21.973   6.159  31.480  0.00  0.00     0.019 A 
ATOM     10  C   UNK d   1      21.019   5.543  32.291  0.00  0.00     0.001 A 
ATOM     11  C   UNK d   1      20.130   6.385  32.923  0.00  0.00     0.002 A 
ATOM     12  C   UNK d   1      20.181   7.759  32.765  0.00  0.00     0.033 A 
ATOM     13  C   UNK d   1      22.982   8.122  30.501  0.00  0.00     0.278 A 
ATOM     14  O   UNK d   1      23.799   7.378  29.916  0.00  0.00    -0.266 OA
ATOM     15  N   UNK d   1      22.237  11.569  30.763  0.00  0.00    -0.173 N 
ATOM     16  C   UNK d   1      23.106  12.209  29.993  0.00  0.00     0.140 A 
ATOM     17  H   UNK d   1      21.481  12.084  31.322  0.00  0.00     0.186 HD
ENDROOT
BRANCH  16  18
ATOM     18  N   UNK d   1      23.163  13.529  29.676  0.00  0.00    -0.340 N 
ATOM     19  H   UNK d   1      24.516  13.567  29.869  0.00  0.00     0.167 HD
BRANCH  18  20
ATOM     20  C   UNK d   1      23.219  14.830  29.364  0.00  0.00     0.050 A 
ATOM     21  C   UNK d   1      22.513  15.758  30.141  0.00  0.00     0.066 A 
ATOM     22  C   UNK d   1      22.355  17.037  29.721  0.00  0.00     0.020 A 
ATOM     23  C   UNK d   1      22.890  17.450  28.525  0.00  0.00     0.001 A 
ATOM     24  C   UNK d   1      23.600  16.589  27.718  0.00  0.00     0.002 A 
ATOM     25  C   UNK d   1      23.745  15.296  28.164  0.00  0.00     0.030 A 
BRANCH  21  26
ATOM     26  C   UNK d   1      22.047  15.436  31.496  0.00  0.00     0.295 C 
ATOM     27  O   UNK d   1      22.919  15.239  32.381  0.00  0.00    -0.259 OA
BRANCH  26  28
ATOM     28  O   UNK d   1      20.743  15.324  31.881  0.00  0.00    -0.317 OA
BRANCH  28  29
ATOM     29  C   UNK d   1      19.931  14.220  31.532  0.00  0.00     0.178 C 
BRANCH  29  30
ATOM     30  C   UNK d   1      19.872  13.219  32.690  0.00  0.00     0.022 C 
ATOM     31  C   UNK d   1      18.423  12.950  33.022  0.00  0.00     0.007 C 
ENDBRANCH  29  30
ENDBRANCH  28  29
ENDBRANCH  26  28
ENDBRANCH  21  26
ENDBRANCH  18  20
ENDBRANCH  16  18
TORSDOF 6
ENDMDL
