MODEL 1
REMARK VINA RESULT:    -9.246      0.000      0.000
REMARK INTER + INTRA:         -13.925
REMARK INTER:                 -13.030
REMARK INTRA:                  -0.894
REMARK UNBOUND:                -0.894
REMARK  7 active torsions:
REMARK  status: ('A' for Active; 'I' for Inactive)
REMARK    1  A    between atoms: C_5  and  C_8 
REMARK    2  A    between atoms: C_8  and  C_10 
REMARK    3  A    between atoms: C_10  and  N_11 
REMARK    4  A    between atoms: C_13  and  C_21 
REMARK    5  A    between atoms: C_21  and  N_22 
REMARK    6  A    between atoms: N_22  and  C_23 
REMARK    7  A    between atoms: C_26  and  O_29 
ROOT
ATOM      1  N   UNK d   1      21.838   6.809  31.344  0.00  0.00    -0.249 N 
ATOM      2  N   UNK d   1      22.658   7.825  31.195  0.00  0.00    -0.155 NA
ATOM      3  C   UNK d   1      22.272   8.857  31.959  0.00  0.00     0.145 A 
ATOM      4  N   UNK d   1      21.166   8.469  32.611  0.00  0.00    -0.321 N 
ATOM      5  C   UNK d   1      20.902   7.187  32.220  0.00  0.00     0.104 A 
ATOM      6  C   UNK d   1      19.787   6.361  32.678  0.00  0.00     0.078 C 
ATOM      7  C   UNK d   1      18.438   6.981  32.400  0.00  0.00     0.008 C 
ATOM      8  C   UNK d   1      18.160   8.160  33.307  0.00  0.00     0.002 C 
ATOM      9  C   UNK d   1      18.990   9.363  32.982  0.00  0.00     0.020 C 
ATOM     10  C   UNK d   1      20.399   9.262  33.551  0.00  0.00     0.132 C 
ENDROOT
BRANCH   3  11
ATOM     11  C   UNK d   1      22.911  10.174  32.085  0.00  0.00     0.200 C 
BRANCH  11  12
ATOM     12  N   UNK d   1      22.652  11.022  30.962  0.00  0.00    -0.383 N 
ATOM     13  H   UNK d   1      22.758  10.657  30.004  0.00  0.00     0.160 HD
BRANCH  12  14
ATOM     14  C   UNK d   1      22.245  12.380  31.092  0.00  0.00     0.028 A 
ATOM     15  C   UNK d   1      21.211  12.762  31.917  0.00  0.00     0.032 A 
ATOM     16  C   UNK d   1      20.832  14.074  32.038  0.00  0.00     0.039 A 
ATOM     17  C   UNK d   1      21.487  15.031  31.328  0.00  0.00     0.068 A 
ATOM     18  C   UNK d   1      22.522  14.653  30.502  0.00  0.00     0.039 A 
ATOM     19  C   UNK d   1      22.913  13.336  30.373  0.00  0.00     0.032 A 
BRANCH  17  20
ATOM     20  O   UNK d   1      21.128  16.354  31.429  0.00  0.00    -0.356 OA
ATOM     21  C   UNK d   1      22.065  17.392  31.573  0.00  0.00     0.210 C 
ENDBRANCH  17  20
ENDBRANCH  12  14
ENDBRANCH  11  12
ENDBRANCH   3  11
BRANCH   1  22
ATOM     22  C   UNK d   1      21.923   5.535  30.694  0.00  0.00     0.236 C 
BRANCH  22  23
ATOM     23  C   UNK d   1      23.330   5.066  30.577  0.00  0.00     0.179 C 
ATOM     24  O   UNK d   1      24.026   5.541  29.641  0.00  0.00    -0.290 OA
BRANCH  23  25
ATOM     25  C   UNK d   1      23.920   4.103  31.482  0.00  0.00     0.011 A 
ATOM     26  C   UNK d   1      23.235   3.609  32.568  0.00  0.00     0.016 A 
ATOM     27  C   UNK d   1      23.815   2.683  33.430  0.00  0.00     0.020 A 
ATOM     28  C   UNK d   1      25.107   2.239  33.204  0.00  0.00     0.011 A 
ATOM     29 Br   UNK d   1      25.901   0.958  34.401  0.00  0.00    -0.051 Br
ATOM     30  C   UNK d   1      25.798   2.726  32.121  0.00  0.00     0.020 A 
ATOM     31  C   UNK d   1      25.201   3.639  31.287  0.00  0.00     0.016 A 
ENDBRANCH  23  25
ENDBRANCH  22  23
ENDBRANCH   1  22
TORSDOF 7
ENDMDL
