/Users/jonathanwahrer/Desktop/Msc/3_Semester/Drug_Design_Praktikum/waehrer_HTS_screening/HTS_experiment/out/docking_results/vina_output/3elj/0827_docked.pdbqt
 OpenBabel03192217533D

 29 32  0  0  1  0  0  0  0  0999 V2000
   25.7500    5.0480   28.6090 C   0  0  2  0  0  0  0  0  0  0  0  0
   24.8050    5.3220   29.6890 N   0  0  0  0  0  4  0  0  0  0  0  0
   24.8720    4.3220   30.6280 C   0  0  0  0  0  0  0  0  0  0  0  0
   24.0180    3.9920   31.5650 C   0  0  0  0  0  3  0  0  0  0  0  0
   23.9910    2.9460   32.6280 C   0  0  0  0  0  2  0  0  0  0  0  0
   25.0990    1.9440   32.5320 C   0  0  0  0  0  2  0  0  0  0  0  0
   26.4550    2.6080   32.5700 C   0  0  0  0  0  2  0  0  0  0  0  0
   26.9700    2.8130   31.1590 C   0  0  0  0  0  2  0  0  0  0  0  0
   26.0590    3.5460   30.3420 N   0  0  0  0  0  0  0  0  0  0  0  0
   26.2310    3.5870   28.8840 C   0  0  0  0  0  2  0  0  0  0  0  0
   23.8480    5.0360   29.1400 H   0  0  0  0  0  0  0  0  0  0  0  0
   24.5690    6.6430   29.9650 C   0  0  0  0  0  0  0  0  0  0  0  0
   25.2040    7.3810   30.9190 C   0  0  0  0  0  3  0  0  0  0  0  0
   24.8010    8.6790   31.2750 C   0  0  0  0  0  3  0  0  0  0  0  0
   23.7270    9.2720   30.6650 C   0  0  0  0  0  0  0  0  0  0  0  0
   23.0770    8.5280   29.6910 C   0  0  0  0  0  3  0  0  0  0  0  0
   23.4750    7.2550   29.3450 C   0  0  0  0  0  3  0  0  0  0  0  0
   23.3080   10.5460   31.0100 O   0  0  0  0  0  0  0  0  0  0  0  0
   21.9700   10.9710   31.0730 C   0  0  0  0  0  2  0  0  0  0  0  0
   21.4070   10.3730   32.3760 C   0  0  0  0  0  1  0  0  0  0  0  0
   27.0020    5.8350   28.7920 C   0  0  0  0  0  0  0  0  0  0  0  0
   28.1110    5.3270   29.4270 C   0  0  0  0  0  3  0  0  0  0  0  0
   29.2520    6.0880   29.5680 C   0  0  0  0  0  3  0  0  0  0  0  0
   29.2970    7.3770   29.0710 C   0  0  0  0  0  0  0  0  0  0  0  0
   30.8730    8.4040   29.2870 Br  0  0  0  0  0  0  0  0  0  0  0  0
   28.1990    7.8970   28.4340 C   0  0  0  0  0  3  0  0  0  0  0  0
   27.0500    7.1050   28.3030 C   0  0  0  0  0  3  0  0  0  0  0  0
   25.1930    5.0630   27.3890 O   0  0  0  0  0  0  0  0  0  0  0  0
   24.2460    4.8950   27.2730 H   0  0  0  0  0  0  0  0  0  0  0  0
  1 28  1  6  0  0  0
  1 21  1  0  0  0  0
  1 10  1  0  0  0  0
  1  2  1  0  0  0  0
  2 12  1  0  0  0  0
  2  3  1  0  0  0  0
  3  4  2  0  0  0  0
  4  5  1  0  0  0  0
  6  7  1  0  0  0  0
  6  5  1  0  0  0  0
  8  7  1  0  0  0  0
  9  3  1  0  0  0  0
  9  8  1  0  0  0  0
 10  9  1  0  0  0  0
 11  2  1  0  0  0  0
 12 13  1  0  0  0  0
 13 14  2  0  0  0  0
 15 18  1  0  0  0  0
 15 14  1  0  0  0  0
 16 15  2  0  0  0  0
 17 16  1  0  0  0  0
 17 12  2  0  0  0  0
 18 19  1  0  0  0  0
 19 20  1  0  0  0  0
 21 22  1  0  0  0  0
 22 23  2  0  0  0  0
 24 25  1  0  0  0  0
 24 23  1  0  0  0  0
 26 24  2  0  0  0  0
 27 26  1  0  0  0  0
 27 21  2  0  0  0  0
 29 28  1  0  0  0  0
M  END
>  <Pose>
1

>  <Score>
-6.140

$$$$
