MODEL 1
REMARK VINA RESULT:    -6.140      0.000      0.000
REMARK INTER + INTRA:          -7.606
REMARK INTER:                  -7.755
REMARK INTRA:                   0.149
REMARK UNBOUND:                 0.149
REMARK  5 active torsions:
REMARK  status: ('A' for Active; 'I' for Inactive)
REMARK    1  A    between atoms: C_5  and  C_8 
REMARK    2  A    between atoms: C_8  and  O_27 
REMARK    3  A    between atoms: N_9  and  C_18 
REMARK    4  A    between atoms: C_21  and  O_24 
REMARK    5  A    between atoms: O_24  and  C_25 
ROOT
ATOM      1  C   UNK d   1      25.750   5.048  28.609  0.00  0.00     0.283 C 
ATOM      2  N   UNK d   1      24.805   5.322  29.689  0.00  0.00     0.042 N 
ATOM      3  C   UNK d   1      24.872   4.322  30.628  0.00  0.00     0.210 C 
ATOM      4  C   UNK d   1      24.018   3.992  31.565  0.00  0.00     0.030 C 
ATOM      5  C   UNK d   1      23.991   2.946  32.628  0.00  0.00     0.031 C 
ATOM      6  C   UNK d   1      25.099   1.944  32.532  0.00  0.00     0.005 C 
ATOM      7  C   UNK d   1      26.455   2.608  32.570  0.00  0.00     0.020 C 
ATOM      8  C   UNK d   1      26.970   2.813  31.159  0.00  0.00     0.124 C 
ATOM      9  N   UNK d   1      26.059   3.546  30.342  0.00  0.00    -0.356 N 
ATOM     10  C   UNK d   1      26.231   3.587  28.884  0.00  0.00     0.200 C 
ATOM     11  H   UNK d   1      23.848   5.036  29.140  0.00  0.00     0.299 HD
ENDROOT
BRANCH   2  12
ATOM     12  C   UNK d   1      24.569   6.643  29.965  0.00  0.00     0.146 A 
ATOM     13  C   UNK d   1      25.204   7.381  30.919  0.00  0.00     0.041 A 
ATOM     14  C   UNK d   1      24.801   8.679  31.275  0.00  0.00     0.039 A 
ATOM     15  C   UNK d   1      23.727   9.272  30.665  0.00  0.00     0.068 A 
ATOM     16  C   UNK d   1      23.077   8.528  29.691  0.00  0.00     0.039 A 
ATOM     17  C   UNK d   1      23.475   7.255  29.345  0.00  0.00     0.041 A 
BRANCH  15  18
ATOM     18  O   UNK d   1      23.308  10.546  31.010  0.00  0.00    -0.352 OA
BRANCH  18  19
ATOM     19  C   UNK d   1      21.970  10.971  31.073  0.00  0.00     0.171 C 
ATOM     20  C   UNK d   1      21.407  10.373  32.376  0.00  0.00     0.034 C 
ENDBRANCH  18  19
ENDBRANCH  15  18
ENDBRANCH   2  12
BRANCH   1  21
ATOM     21  C   UNK d   1      27.002   5.835  28.792  0.00  0.00     0.007 A 
ATOM     22  C   UNK d   1      28.111   5.327  29.427  0.00  0.00     0.013 A 
ATOM     23  C   UNK d   1      29.252   6.088  29.568  0.00  0.00     0.020 A 
ATOM     24  C   UNK d   1      29.297   7.377  29.071  0.00  0.00     0.011 A 
ATOM     25 Br   UNK d   1      30.873   8.404  29.287  0.00  0.00    -0.051 Br
ATOM     26  C   UNK d   1      28.199   7.897  28.434  0.00  0.00     0.020 A 
ATOM     27  C   UNK d   1      27.050   7.105  28.303  0.00  0.00     0.013 A 
ENDBRANCH   1  21
BRANCH   1  28
ATOM     28  O   UNK d   1      25.193   5.063  27.389  0.00  0.00    -0.359 OA
ATOM     29  H   UNK d   1      24.246   4.895  27.273  0.00  0.00     0.213 HD
ENDBRANCH   1  28
TORSDOF 5
ENDMDL
