/Users/jonathanwahrer/Desktop/Msc/3_Semester/Drug_Design_Praktikum/waehrer_HTS_screening/HTS_experiment/out/docking_results/vina_output/3elj/0833_docked.pdbqt
 OpenBabel03192217543D

 28 31  0  0  1  0  0  0  0  0999 V2000
   25.7770    5.2950   28.6630 C   0  0  1  0  0  0  0  0  0  0  0  0
   25.7930    4.8850   30.0600 N   0  0  0  0  0  0  0  0  0  0  0  0
   27.0040    4.4280   30.7320 C   0  0  0  0  0  2  0  0  0  0  0  0
   26.7390    3.7770   32.0390 C   0  0  0  0  0  2  0  0  0  0  0  0
   25.7020    2.6860   31.9850 C   0  0  0  0  0  2  0  0  0  0  0  0
   24.3960    3.3300   32.4110 C   0  0  0  0  0  2  0  0  0  0  0  0
   23.8910    4.3530   31.5420 C   0  0  0  0  0  3  0  0  0  0  0  0
   24.4890    5.0230   30.5310 C   0  0  0  0  0  0  0  0  0  0  0  0
   23.7920    6.0140   29.8120 N   0  0  0  0  0  4  0  0  0  0  0  0
   24.6490    6.2670   28.6910 C   0  0  0  0  0  2  0  0  0  0  0  0
   22.8550    5.7130   29.4560 H   0  0  0  0  0  0  0  0  0  0  0  0
   27.0720    5.8950   28.2840 C   0  0  0  0  0  0  0  0  0  0  0  0
   27.3290    7.2130   28.6710 C   0  0  0  0  0  3  0  0  0  0  0  0
   28.5450    7.7660   28.2670 C   0  0  0  0  0  3  0  0  0  0  0  0
   29.4370    7.0320   27.5190 C   0  0  0  0  0  0  0  0  0  0  0  0
   31.0940    7.8290   26.9860 Br  0  0  0  0  0  0  0  0  0  0  0  0
   29.1480    5.7280   27.1550 C   0  0  0  0  0  3  0  0  0  0  0  0
   27.9470    5.1610   27.5460 C   0  0  0  0  0  3  0  0  0  0  0  0
   25.5380    4.1750   27.9090 O   0  0  0  0  0  0  0  0  0  0  0  0
   26.1640    4.0480   27.1660 H   0  0  0  0  0  0  0  0  0  0  0  0
   23.6910    7.1390   30.6850 C   0  0  0  0  0  0  0  0  0  0  0  0
   22.4960    7.4420   31.3150 C   0  0  0  0  0  0  0  0  0  0  0  0
   22.4810    8.6000   32.0820 C   0  0  0  0  0  3  0  0  0  0  0  0
   23.5680    9.4400   32.2430 C   0  0  0  0  0  3  0  0  0  0  0  0
   24.7640    9.0890   31.5820 C   0  0  0  0  0  3  0  0  0  0  0  0
   24.7650    7.9620   30.8420 C   0  0  0  0  0  3  0  0  0  0  0  0
   21.4190    6.6230   31.1670 O   0  0  0  0  0  0  0  0  0  0  0  0
   20.6790    6.1710   32.2720 C   0  0  0  0  0  1  0  0  0  0  0  0
  1 19  1  6  0  0  0
  1 10  1  0  0  0  0
  1  2  1  0  0  0  0
  2  8  1  0  0  0  0
  2  3  1  0  0  0  0
  3  4  1  0  0  0  0
  5  4  1  0  0  0  0
  5  6  1  0  0  0  0
  7  6  1  0  0  0  0
  8  7  2  0  0  0  0
  9  8  1  0  0  0  0
  9 21  1  0  0  0  0
 10  9  1  0  0  0  0
 11  9  1  0  0  0  0
 12  1  1  0  0  0  0
 12 13  1  0  0  0  0
 14 13  2  0  0  0  0
 15 14  1  0  0  0  0
 16 15  1  0  0  0  0
 17 15  2  0  0  0  0
 17 18  1  0  0  0  0
 18 12  2  0  0  0  0
 20 19  1  0  0  0  0
 21 26  2  0  0  0  0
 21 22  1  0  0  0  0
 22 23  2  0  0  0  0
 23 24  1  0  0  0  0
 25 24  2  0  0  0  0
 26 25  1  0  0  0  0
 27 22  1  0  0  0  0
 27 28  1  0  0  0  0
M  END
>  <Pose>
1

>  <Score>
-6.366

$$$$
