MODEL 1
REMARK VINA RESULT:    -6.366      0.000      0.000
REMARK INTER + INTRA:          -8.437
REMARK INTER:                  -7.668
REMARK INTRA:                  -0.769
REMARK UNBOUND:                -0.769
REMARK  4 active torsions:
REMARK  status: ('A' for Active; 'I' for Inactive)
REMARK    1  A    between atoms: C_5  and  C_8 
REMARK    2  A    between atoms: C_8  and  O_26 
REMARK    3  A    between atoms: N_16  and  C_18 
REMARK    4  A    between atoms: C_19  and  O_24 
ROOT
ATOM      1  C   UNK d   1      25.777   5.295  28.663  0.00  0.00     0.189 C 
ATOM      2  N   UNK d   1      25.793   4.885  30.060  0.00  0.00    -0.324 N 
ATOM      3  C   UNK d   1      27.004   4.428  30.732  0.00  0.00     0.128 C 
ATOM      4  C   UNK d   1      26.739   3.777  32.039  0.00  0.00     0.020 C 
ATOM      5  C   UNK d   1      25.702   2.686  31.985  0.00  0.00     0.005 C 
ATOM      6  C   UNK d   1      24.396   3.330  32.411  0.00  0.00     0.031 C 
ATOM      7  C   UNK d   1      23.891   4.353  31.542  0.00  0.00     0.030 C 
ATOM      8  C   UNK d   1      24.489   5.023  30.531  0.00  0.00     0.208 C 
ATOM      9  N   UNK d   1      23.792   6.014  29.812  0.00  0.00     0.011 N 
ATOM     10  C   UNK d   1      24.649   6.267  28.691  0.00  0.00     0.316 C 
ATOM     11  H   UNK d   1      22.855   5.713  29.456  0.00  0.00     0.295 HD
ENDROOT
BRANCH   1  12
ATOM     12  C   UNK d   1      27.072   5.895  28.284  0.00  0.00    -0.001 A 
ATOM     13  C   UNK d   1      27.329   7.213  28.671  0.00  0.00     0.013 A 
ATOM     14  C   UNK d   1      28.545   7.766  28.267  0.00  0.00     0.020 A 
ATOM     15  C   UNK d   1      29.437   7.032  27.519  0.00  0.00     0.011 A 
ATOM     16 Br   UNK d   1      31.094   7.829  26.986  0.00  0.00    -0.051 Br
ATOM     17  C   UNK d   1      29.148   5.728  27.155  0.00  0.00     0.020 A 
ATOM     18  C   UNK d   1      27.947   5.161  27.546  0.00  0.00     0.013 A 
ENDBRANCH   1  12
BRANCH   1  19
ATOM     19  O   UNK d   1      25.538   4.175  27.909  0.00  0.00    -0.365 OA
ATOM     20  H   UNK d   1      26.164   4.048  27.166  0.00  0.00     0.213 HD
ENDBRANCH   1  19
BRANCH   9  21
ATOM     21  C   UNK d   1      23.691   7.139  30.685  0.00  0.00     0.175 A 
ATOM     22  C   UNK d   1      22.496   7.442  31.315  0.00  0.00     0.103 A 
ATOM     23  C   UNK d   1      22.481   8.600  32.082  0.00  0.00     0.039 A 
ATOM     24  C   UNK d   1      23.568   9.440  32.243  0.00  0.00     0.003 A 
ATOM     25  C   UNK d   1      24.764   9.089  31.582  0.00  0.00     0.002 A 
ATOM     26  C   UNK d   1      24.765   7.962  30.842  0.00  0.00     0.041 A 
BRANCH  22  27
ATOM     27  O   UNK d   1      21.419   6.623  31.167  0.00  0.00    -0.354 OA
ATOM     28  C   UNK d   1      20.679   6.171  32.272  0.00  0.00     0.210 C 
ENDBRANCH  22  27
ENDBRANCH   9  21
TORSDOF 4
ENDMDL
