MODEL 1
REMARK VINA RESULT:    -7.173      0.000      0.000
REMARK INTER + INTRA:          -9.109
REMARK INTER:                  -8.641
REMARK INTRA:                  -0.469
REMARK UNBOUND:                -0.469
REMARK  4 active torsions:
REMARK  status: ('A' for Active; 'I' for Inactive)
REMARK    1  A    between atoms: C_5  and  C_8 
REMARK    2  A    between atoms: C_8  and  O_26 
REMARK    3  A    between atoms: N_16  and  C_18 
REMARK    4  A    between atoms: C_21  and  O_24 
ROOT
ATOM      1  C   UNK d   1      23.600   8.080  30.368  0.00  0.00     0.189 C 
ATOM      2  N   UNK d   1      23.144   6.728  30.431  0.00  0.00    -0.324 N 
ATOM      3  C   UNK d   1      21.919   6.188  29.928  0.00  0.00     0.128 C 
ATOM      4  C   UNK d   1      21.158   5.281  30.816  0.00  0.00     0.020 C 
ATOM      5  C   UNK d   1      21.753   4.967  32.141  0.00  0.00     0.005 C 
ATOM      6  C   UNK d   1      22.953   4.027  32.026  0.00  0.00     0.031 C 
ATOM      7  C   UNK d   1      24.149   4.890  31.774  0.00  0.00     0.030 C 
ATOM      8  C   UNK d   1      24.225   6.027  31.102  0.00  0.00     0.208 C 
ATOM      9  N   UNK d   1      25.423   6.777  30.940  0.00  0.00     0.009 N 
ATOM     10  C   UNK d   1      24.925   8.106  31.137  0.00  0.00     0.316 C 
ATOM     11  H   UNK d   1      26.092   6.481  31.695  0.00  0.00     0.295 HD
ENDROOT
BRANCH   1  12
ATOM     12  C   UNK d   1      22.781   9.109  31.003  0.00  0.00    -0.001 A 
ATOM     13  C   UNK d   1      21.877   8.961  32.002  0.00  0.00     0.013 A 
ATOM     14  C   UNK d   1      21.163  10.035  32.520  0.00  0.00     0.020 A 
ATOM     15  C   UNK d   1      21.360  11.305  32.022  0.00  0.00     0.011 A 
ATOM     16 Br   UNK d   1      20.394  12.801  32.720  0.00  0.00    -0.051 Br
ATOM     17  C   UNK d   1      22.276  11.459  31.009  0.00  0.00     0.020 A 
ATOM     18  C   UNK d   1      22.987  10.407  30.490  0.00  0.00     0.013 A 
ENDBRANCH   1  12
BRANCH   1  19
ATOM     19  O   UNK d   1      23.805   8.514  29.044  0.00  0.00    -0.365 OA
ATOM     20  H   UNK d   1      24.074   9.465  29.126  0.00  0.00     0.213 HD
ENDBRANCH   1  19
BRANCH   9  21
ATOM     21  C   UNK d   1      25.936   6.553  29.652  0.00  0.00     0.142 A 
ATOM     22  C   UNK d   1      25.531   5.435  28.900  0.00  0.00     0.040 A 
ATOM     23  C   UNK d   1      26.015   5.186  27.644  0.00  0.00     0.039 A 
ATOM     24  C   UNK d   1      26.930   6.035  27.058  0.00  0.00     0.068 A 
ATOM     25  C   UNK d   1      27.340   7.132  27.771  0.00  0.00     0.039 A 
ATOM     26  C   UNK d   1      26.852   7.381  29.037  0.00  0.00     0.040 A 
BRANCH  24  27
ATOM     27  O   UNK d   1      27.422   5.771  25.765  0.00  0.00    -0.356 OA
ATOM     28  C   UNK d   1      28.078   6.780  25.045  0.00  0.00     0.210 C 
ENDBRANCH  24  27
ENDBRANCH   9  21
TORSDOF 4
ENDMDL
