MODEL 1
REMARK VINA RESULT:    -7.472      0.000      0.000
REMARK INTER + INTRA:          -8.975
REMARK INTER:                  -9.000
REMARK INTRA:                   0.025
REMARK UNBOUND:                 0.025
REMARK  4 active torsions:
REMARK  status: ('A' for Active; 'I' for Inactive)
REMARK    1  A    between atoms: C_5  and  C_8 
REMARK    2  A    between atoms: C_8  and  O_25 
REMARK    3  A    between atoms: N_15  and  C_17 
REMARK    4  A    between atoms: C_18  and  O_23 
ROOT
ATOM      1  C   UNK d   1      24.555   8.144  30.418  0.00  0.00     0.189 C 
ATOM      2  N   UNK d   1      25.667   7.961  29.510  0.00  0.00    -0.324 N 
ATOM      3  C   UNK d   1      26.818   8.716  29.060  0.00  0.00     0.128 C 
ATOM      4  C   UNK d   1      28.018   7.828  28.798  0.00  0.00     0.024 C 
ATOM      5  C   UNK d   1      27.633   6.812  27.776  0.00  0.00     0.032 C 
ATOM      6  C   UNK d   1      26.381   6.116  28.143  0.00  0.00     0.030 C 
ATOM      7  C   UNK d   1      25.471   6.663  28.954  0.00  0.00     0.208 C 
ATOM      8  N   UNK d   1      24.234   6.118  29.357  0.00  0.00     0.011 N 
ATOM      9  C   UNK d   1      23.480   7.319  29.771  0.00  0.00     0.316 C 
ATOM     10  H   UNK d   1      23.669   5.782  28.510  0.00  0.00     0.295 HD
ENDROOT
BRANCH   1  11
ATOM     11  C   UNK d   1      24.156   9.563  30.575  0.00  0.00    -0.001 A 
ATOM     12  C   UNK d   1      24.790  10.357  31.507  0.00  0.00     0.013 A 
ATOM     13  C   UNK d   1      24.466  11.700  31.696  0.00  0.00     0.020 A 
ATOM     14  C   UNK d   1      23.475  12.258  30.920  0.00  0.00     0.011 A 
ATOM     15 Br   UNK d   1      23.013  14.105  31.173  0.00  0.00    -0.051 Br
ATOM     16  C   UNK d   1      22.832  11.477  29.984  0.00  0.00     0.020 A 
ATOM     17  C   UNK d   1      23.165  10.147  29.809  0.00  0.00     0.013 A 
ENDBRANCH   1  11
BRANCH   1  18
ATOM     18  O   UNK d   1      24.801   7.617  31.682  0.00  0.00    -0.365 OA
ATOM     19  H   UNK d   1      23.924   7.531  32.128  0.00  0.00     0.213 HD
ENDBRANCH   1  18
BRANCH   8  20
ATOM     20  C   UNK d   1      24.259   5.166  30.371  0.00  0.00     0.175 A 
ATOM     21  C   UNK d   1      23.145   4.761  31.062  0.00  0.00     0.103 A 
ATOM     22  C   UNK d   1      23.246   3.813  32.083  0.00  0.00     0.039 A 
ATOM     23  C   UNK d   1      24.458   3.266  32.417  0.00  0.00     0.003 A 
ATOM     24  C   UNK d   1      25.582   3.665  31.727  0.00  0.00     0.002 A 
ATOM     25  C   UNK d   1      25.476   4.596  30.725  0.00  0.00     0.041 A 
BRANCH  21  26
ATOM     26  O   UNK d   1      21.886   5.257  30.791  0.00  0.00    -0.354 OA
ATOM     27  C   UNK d   1      21.024   5.635  31.812  0.00  0.00     0.210 C 
ENDBRANCH  21  26
ENDBRANCH   8  20
TORSDOF 4
ENDMDL
