/Users/jonathanwahrer/Desktop/Msc/3_Semester/Drug_Design_Praktikum/waehrer_HTS_screening/HTS_experiment/out/docking_results/vina_output/3elj/0836_docked.pdbqt
 OpenBabel03192217543D

 27 30  0  0  1  0  0  0  0  0999 V2000
   24.9920   10.6670   30.6440 C   0  0  2  0  0  0  0  0  0  0  0  0
   23.6610   10.1350   30.4880 N   0  0  0  0  0  0  0  0  0  0  0  0
   22.9340    9.4360   29.4380 C   0  0  0  0  0  2  0  0  0  0  0  0
   21.8850    8.5090   29.9160 C   0  0  0  0  0  2  0  0  0  0  0  0
   21.8000    8.3300   31.4120 C   0  0  0  0  0  2  0  0  0  0  0  0
   22.0940    9.5520   32.1560 C   0  0  0  0  0  3  0  0  0  0  0  0
   22.9880   10.4130   31.7070 C   0  0  0  0  0  0  0  0  0  0  0  0
   23.4710   11.6590   32.2000 N   0  0  0  0  0  4  0  0  0  0  0  0
   24.7870   11.7740   31.6530 C   0  0  0  0  0  2  0  0  0  0  0  0
   23.5130   11.5700   33.2520 H   0  0  0  0  0  0  0  0  0  0  0  0
   25.6190   11.1270   29.4070 C   0  0  0  0  0  0  0  0  0  0  0  0
   26.7590   10.5130   28.9330 C   0  0  0  0  0  3  0  0  0  0  0  0
   27.3930   10.9050   27.7720 C   0  0  0  0  0  3  0  0  0  0  0  0
   26.9040   11.9530   27.0150 C   0  0  0  0  0  0  0  0  0  0  0  0
   27.7650   12.5160   25.4080 Br  0  0  0  0  0  0  0  0  0  0  0  0
   25.7650   12.5790   27.4740 C   0  0  0  0  0  3  0  0  0  0  0  0
   25.1360   12.1800   28.6390 C   0  0  0  0  0  3  0  0  0  0  0  0
   25.7880    9.6360   31.1850 O   0  0  0  0  0  0  0  0  0  0  0  0
   25.9970    9.9150   32.1100 H   0  0  0  0  0  0  0  0  0  0  0  0
   22.5810   12.6640   31.8440 C   0  0  0  0  0  0  0  0  0  0  0  0
   23.0300   13.8210   31.2530 C   0  0  0  0  0  3  0  0  0  0  0  0
   22.1280   14.8370   30.8940 C   0  0  0  0  0  3  0  0  0  0  0  0
   20.7850   14.7160   31.1160 C   0  0  0  0  0  0  0  0  0  0  0  0
   20.3300   13.5300   31.7220 C   0  0  0  0  0  3  0  0  0  0  0  0
   21.2410   12.5510   32.0620 C   0  0  0  0  0  3  0  0  0  0  0  0
   19.8360   15.6820   30.7870 O   0  0  0  0  0  0  0  0  0  0  0  0
   18.4560   15.5160   30.7820 C   0  0  0  0  0  1  0  0  0  0  0  0
  1 18  1  1  0  0  0
  1  9  1  0  0  0  0
  2  1  1  0  0  0  0
  2  7  1  0  0  0  0
  3  4  1  0  0  0  0
  3  2  1  0  0  0  0
  4  5  1  0  0  0  0
  5  6  1  0  0  0  0
  7  6  2  0  0  0  0
  7  8  1  0  0  0  0
  8 10  1  0  0  0  0
  9  8  1  0  0  0  0
 11  1  1  0  0  0  0
 12 11  1  0  0  0  0
 13 12  2  0  0  0  0
 14 16  2  0  0  0  0
 14 13  1  0  0  0  0
 15 14  1  0  0  0  0
 16 17  1  0  0  0  0
 17 11  2  0  0  0  0
 18 19  1  0  0  0  0
 20 25  1  0  0  0  0
 20  8  1  0  0  0  0
 21 20  2  0  0  0  0
 22 23  2  0  0  0  0
 22 21  1  0  0  0  0
 23 24  1  0  0  0  0
 24 25  2  0  0  0  0
 26 23  1  0  0  0  0
 27 26  1  0  0  0  0
M  END
>  <Pose>
1

>  <Score>
-6.558

$$$$
