MODEL 1
REMARK VINA RESULT:    -9.288      0.000      0.000
REMARK INTER + INTRA:         -12.935
REMARK INTER:                 -12.546
REMARK INTRA:                  -0.389
REMARK UNBOUND:                -0.389
REMARK  6 active torsions:
REMARK  status: ('A' for Active; 'I' for Inactive)
REMARK    1  A    between atoms: C_5  and  N_8 
REMARK    2  A    between atoms: N_8  and  C_9 
REMARK    3  A    between atoms: C_9  and  C_10 
REMARK    4  A    between atoms: N_13  and  C_15 
REMARK    5  A    between atoms: C_16  and  C_18 
REMARK    6  A    between atoms: C_21  and  O_24 
ROOT
ATOM      1  C   UNK d   1      22.962   7.737  30.115  0.00  0.00     0.145 A 
ATOM      2  N   UNK d   1      23.642   6.579  30.143  0.00  0.00    -0.321 N 
ATOM      3  C   UNK d   1      22.943   5.703  30.888  0.00  0.00     0.104 A 
ATOM      4  N   UNK d   1      21.804   6.333  31.333  0.00  0.00    -0.250 N 
ATOM      5  N   UNK d   1      21.853   7.560  30.844  0.00  0.00    -0.155 NA
ATOM      6  C   UNK d   1      23.180   4.306  31.263  0.00  0.00     0.078 C 
ATOM      7  C   UNK d   1      24.627   3.934  31.447  0.00  0.00     0.008 C 
ATOM      8  C   UNK d   1      25.451   4.099  30.212  0.00  0.00     0.002 C 
ATOM      9  C   UNK d   1      25.892   5.544  30.161  0.00  0.00     0.020 C 
ATOM     10  C   UNK d   1      24.882   6.416  29.457  0.00  0.00     0.132 C 
ENDROOT
BRANCH   4  11
ATOM     11  C   UNK d   1      20.747   5.809  32.103  0.00  0.00     0.221 C 
ATOM     12  C   UNK d   1      19.933   6.720  32.863  0.00  0.00     0.114 C 
ATOM     13  O   UNK d   1      18.997   6.094  33.577  0.00  0.00    -0.194 OA
BRANCH  12  14
ATOM     14  C   UNK d   1      19.902   8.146  33.026  0.00  0.00    -0.002 A 
ATOM     15  C   UNK d   1      18.671   8.824  33.169  0.00  0.00     0.017 A 
ATOM     16  C   UNK d   1      18.583  10.183  33.321  0.00  0.00     0.037 A 
ATOM     17  C   UNK d   1      19.712  10.963  33.343  0.00  0.00     0.068 A 
ATOM     18  C   UNK d   1      20.925  10.346  33.208  0.00  0.00     0.037 A 
ATOM     19  C   UNK d   1      21.001   8.949  33.051  0.00  0.00     0.017 A 
BRANCH  17  20
ATOM     20  O   UNK d   1      19.620  12.345  33.499  0.00  0.00    -0.356 OA
ATOM     21  C   UNK d   1      18.624  13.112  32.870  0.00  0.00     0.210 C 
ENDBRANCH  17  20
ENDBRANCH  12  14
ENDBRANCH   4  11
BRANCH   1  22
ATOM     22  C   UNK d   1      23.296   9.029  29.434  0.00  0.00     0.200 C 
BRANCH  22  23
ATOM     23  N   UNK d   1      24.001   9.950  30.302  0.00  0.00    -0.383 N 
ATOM     24  H   UNK d   1      24.929   9.701  30.711  0.00  0.00     0.160 HD
BRANCH  23  25
ATOM     25  C   UNK d   1      23.480  11.239  30.650  0.00  0.00     0.028 A 
ATOM     26  C   UNK d   1      24.227  12.111  31.413  0.00  0.00     0.030 A 
ATOM     27  C   UNK d   1      23.727  13.343  31.740  0.00  0.00     0.021 A 
ATOM     28  C   UNK d   1      22.461  13.722  31.305  0.00  0.00     0.011 A 
ATOM     29 Br   UNK d   1      21.768  15.433  31.757  0.00  0.00    -0.051 Br
ATOM     30  C   UNK d   1      21.696  12.861  30.539  0.00  0.00     0.021 A 
ATOM     31  C   UNK d   1      22.228  11.631  30.228  0.00  0.00     0.030 A 
ENDBRANCH  23  25
ENDBRANCH  22  23
ENDBRANCH   1  22
TORSDOF 6
ENDMDL
