/Users/jonathanwahrer/Desktop/Msc/3_Semester/Drug_Design_Praktikum/waehrer_HTS_screening/HTS_experiment/out/docking_results/vina_output/3elj/0847_docked.pdbqt
 OpenBabel03192217543D

 31 34  0  0  1  0  0  0  0  0999 V2000
   22.9620    7.7370   30.1150 C   0  0  0  0  0  0  0  0  0  0  0  0
   23.6420    6.5790   30.1430 N   0  0  0  0  0  0  0  0  0  0  0  0
   22.9430    5.7030   30.8880 C   0  0  1  0  0  3  0  0  0  0  0  0
   21.8040    6.3330   31.3330 N   0  0  0  0  0  0  0  0  0  0  0  0
   21.8530    7.5600   30.8440 N   0  0  0  0  0  0  0  0  0  0  0  0
   23.1800    4.3060   31.2630 C   0  0  0  0  0  2  0  0  0  0  0  0
   24.6270    3.9340   31.4470 C   0  0  0  0  0  2  0  0  0  0  0  0
   25.4510    4.0990   30.2120 C   0  0  0  0  0  2  0  0  0  0  0  0
   25.8920    5.5440   30.1610 C   0  0  0  0  0  2  0  0  0  0  0  0
   24.8820    6.4160   29.4570 C   0  0  0  0  0  2  0  0  0  0  0  0
   20.7470    5.8090   32.1030 C   0  0  0  0  0  3  0  0  0  0  0  0
   19.9330    6.7200   32.8630 C   0  0  0  0  0  0  0  0  0  0  0  0
   18.9970    6.0940   33.5770 O   0  0  0  0  0  1  0  0  0  0  0  0
   19.9020    8.1460   33.0260 C   0  0  0  0  0  0  0  0  0  0  0  0
   18.6710    8.8240   33.1690 C   0  0  0  0  0  3  0  0  0  0  0  0
   18.5830   10.1830   33.3210 C   0  0  0  0  0  3  0  0  0  0  0  0
   19.7120   10.9630   33.3430 C   0  0  0  0  0  0  0  0  0  0  0  0
   20.9250   10.3460   33.2080 C   0  0  0  0  0  3  0  0  0  0  0  0
   21.0010    8.9490   33.0510 C   0  0  0  0  0  3  0  0  0  0  0  0
   19.6200   12.3450   33.4990 O   0  0  0  0  0  0  0  0  0  0  0  0
   18.6240   13.1120   32.8700 C   0  0  0  0  0  1  0  0  0  0  0  0
   23.2960    9.0290   29.4340 C   0  0  0  0  0  2  0  0  0  0  0  0
   24.0010    9.9500   30.3020 N   0  0  0  0  0  0  0  0  0  0  0  0
   24.9290    9.7010   30.7110 H   0  0  0  0  0  0  0  0  0  0  0  0
   23.4800   11.2390   30.6500 C   0  0  0  0  0  0  0  0  0  0  0  0
   24.2270   12.1110   31.4130 C   0  0  0  0  0  3  0  0  0  0  0  0
   23.7270   13.3430   31.7400 C   0  0  0  0  0  3  0  0  0  0  0  0
   22.4610   13.7220   31.3050 C   0  0  0  0  0  0  0  0  0  0  0  0
   21.7680   15.4330   31.7570 Br  0  0  0  0  0  0  0  0  0  0  0  0
   21.6960   12.8610   30.5390 C   0  0  0  0  0  3  0  0  0  0  0  0
   22.2280   11.6310   30.2280 C   0  0  0  0  0  3  0  0  0  0  0  0
  1  2  1  0  0  0  0
  1  5  2  0  0  0  0
  2  3  1  0  0  0  0
  3  6  1  6  0  0  0
  3  4  1  0  0  0  0
  4 11  1  0  0  0  0
  5  4  1  0  0  0  0
  6  7  1  0  0  0  0
  8  7  1  0  0  0  0
  9  8  1  0  0  0  0
 10  2  1  0  0  0  0
 10  9  1  0  0  0  0
 11 12  2  0  0  0  0
 12 14  1  0  0  0  0
 12 13  1  0  0  0  0
 14 19  2  0  0  0  0
 14 15  1  0  0  0  0
 15 16  2  0  0  0  0
 16 17  1  0  0  0  0
 17 20  1  0  0  0  0
 18 17  2  0  0  0  0
 19 18  1  0  0  0  0
 21 20  1  0  0  0  0
 22  1  1  0  0  0  0
 22 23  1  0  0  0  0
 23 25  1  0  0  0  0
 23 24  1  0  0  0  0
 25 26  1  0  0  0  0
 26 27  2  0  0  0  0
 28 27  1  0  0  0  0
 28 29  1  0  0  0  0
 30 28  2  0  0  0  0
 31 30  1  0  0  0  0
 31 25  2  0  0  0  0
M  END
>  <Pose>
1

>  <Score>
-9.288

$$$$
