MODEL 1
REMARK VINA RESULT:    -7.902      0.000      0.000
REMARK INTER + INTRA:          -8.479
REMARK INTER:                  -9.980
REMARK INTRA:                   1.501
REMARK UNBOUND:                 1.501
REMARK  5 active torsions:
REMARK  status: ('A' for Active; 'I' for Inactive)
REMARK    1  A    between atoms: C_5  and  N_8 
REMARK    2  A    between atoms: C_9  and  O_18 
REMARK    3  A    between atoms: C_9  and  C_19 
REMARK    4  A    between atoms: C_22  and  O_25 
REMARK    5  A    between atoms: O_25  and  C_26 
ROOT
ATOM      1  N   UNK d   1      22.760  11.527  30.146  0.00  0.00     0.042 N 
ATOM      2  C   UNK d   1      22.665  11.867  31.535  0.00  0.00     0.283 C 
ATOM      3  C   UNK d   1      23.947  11.217  32.052  0.00  0.00     0.200 C 
ATOM      4  N   UNK d   1      24.006   9.957  31.294  0.00  0.00    -0.356 N 
ATOM      5  C   UNK d   1      24.807   8.874  31.740  0.00  0.00     0.124 C 
ATOM      6  C   UNK d   1      24.721   7.635  30.900  0.00  0.00     0.020 C 
ATOM      7  C   UNK d   1      23.276   7.287  30.671  0.00  0.00     0.005 C 
ATOM      8  C   UNK d   1      22.959   7.809  29.262  0.00  0.00     0.031 C 
ATOM      9  C   UNK d   1      22.671   9.254  29.350  0.00  0.00     0.030 C 
ATOM     10  C   UNK d   1      23.128  10.158  30.187  0.00  0.00     0.210 C 
ATOM     11  H   UNK d   1      21.791  11.680  29.724  0.00  0.00     0.299 HD
ENDROOT
BRANCH   2  12
ATOM     12  O   UNK d   1      22.505  13.178  31.853  0.00  0.00    -0.359 OA
ATOM     13  H   UNK d   1      22.633  13.782  31.098  0.00  0.00     0.213 HD
ENDBRANCH   2  12
BRANCH   2  14
ATOM     14  C   UNK d   1      21.558  11.133  32.213  0.00  0.00     0.007 A 
ATOM     15  C   UNK d   1      21.549   9.795  32.474  0.00  0.00     0.015 A 
ATOM     16  C   UNK d   1      20.471   9.162  33.127  0.00  0.00     0.037 A 
ATOM     17  C   UNK d   1      19.373   9.881  33.532  0.00  0.00     0.068 A 
ATOM     18  C   UNK d   1      19.371  11.231  33.274  0.00  0.00     0.037 A 
ATOM     19  C   UNK d   1      20.424  11.845  32.635  0.00  0.00     0.015 A 
BRANCH  17  20
ATOM     20  O   UNK d   1      18.296   9.261  34.188  0.00  0.00    -0.352 OA
BRANCH  20  21
ATOM     21  C   UNK d   1      17.294   8.577  33.474  0.00  0.00     0.171 C 
ATOM     22  C   UNK d   1      17.833   7.422  32.691  0.00  0.00     0.034 C 
ENDBRANCH  20  21
ENDBRANCH  17  20
ENDBRANCH   2  14
BRANCH   1  23
ATOM     23  C   UNK d   1      23.619  12.261  29.357  0.00  0.00     0.146 A 
ATOM     24  C   UNK d   1      23.377  13.620  29.165  0.00  0.00     0.039 A 
ATOM     25  C   UNK d   1      24.216  14.421  28.405  0.00  0.00     0.021 A 
ATOM     26  C   UNK d   1      25.336  13.895  27.802  0.00  0.00     0.011 A 
ATOM     27 Br   UNK d   1      26.519  14.989  26.764  0.00  0.00    -0.051 Br
ATOM     28  C   UNK d   1      25.599  12.570  27.970  0.00  0.00     0.021 A 
ATOM     29  C   UNK d   1      24.739  11.790  28.739  0.00  0.00     0.039 A 
ENDBRANCH   1  23
TORSDOF 5
ENDMDL
