/Users/jonathanwahrer/Desktop/Msc/3_Semester/Drug_Design_Praktikum/waehrer_HTS_screening/HTS_experiment/out/docking_results/vina_output/3elj/0860_docked.pdbqt
 OpenBabel03192217553D

 29 32  0  0  1  0  0  0  0  0999 V2000
   19.5940   15.3050   30.9310 Br  0  0  0  0  0  0  0  0  0  0  0  0
   21.2170   14.3560   31.2970 C   0  0  0  0  0  0  0  0  0  0  0  0
   21.4500   13.0960   30.7820 C   0  0  0  0  0  3  0  0  0  0  0  0
   22.6180   12.4180   31.0470 C   0  0  0  0  0  0  0  0  0  0  0  0
   23.5400   13.0560   31.8510 C   0  0  0  0  0  0  0  0  0  0  0  0
   23.3130   14.3160   32.3690 C   0  0  0  0  0  3  0  0  0  0  0  0
   22.1410   14.9910   32.1000 C   0  0  0  0  0  0  0  0  0  0  0  0
   21.9070   16.3510   32.6640 C   0  0  0  0  0  1  0  0  0  0  0  0
   24.7140   12.3500   32.1050 O   0  0  0  0  0  0  0  0  0  0  0  0
   24.8700   10.9900   31.8760 C   0  0  0  0  0  2  0  0  0  0  0  0
   24.1020   10.4380   30.7230 C   0  0  2  0  0  0  0  0  0  0  0  0
   22.7870   11.0840   30.4620 C   0  0  2  0  0  3  0  0  0  0  0  0
   23.8230    9.0410   31.0720 N   0  0  0  0  0  4  0  0  0  0  0  0
   24.5520    8.1070   30.2850 C   0  0  0  0  0  2  0  0  0  0  0  0
   24.4400    6.7570   31.0100 C   0  0  0  0  0  2  0  0  0  0  0  0
   23.1000    6.4110   30.9820 O   0  0  0  0  0  0  0  0  0  0  0  0
   22.2810    7.3270   31.6320 C   0  0  0  0  0  2  0  0  0  0  0  0
   22.4280    8.7260   31.0150 C   0  0  0  0  0  2  0  0  0  0  0  0
   24.1290    8.9410   32.0660 H   0  0  0  0  0  0  0  0  0  0  0  0
   24.9130   10.4040   29.4430 C   0  0  0  0  0  2  0  0  0  0  0  0
   25.9730   11.3640   29.4030 N   0  0  0  0  0  4  0  0  0  0  0  0
   27.2670   10.7620   29.1370 C   0  0  0  0  0  2  0  0  0  0  0  0
   28.0580   11.5560   28.1090 C   0  0  0  0  0  2  0  0  0  0  0  0
   27.4370   11.5830   26.8720 O   0  0  0  0  0  0  0  0  0  0  0  0
   26.0520   11.6100   27.0010 C   0  0  0  0  0  2  0  0  0  0  0  0
   25.7470   12.3180   28.3050 C   0  0  0  0  0  2  0  0  0  0  0  0
   26.0790   11.9430   30.2500 H   0  0  0  0  0  0  0  0  0  0  0  0
   22.5570   11.2180   29.0720 O   0  0  0  0  0  0  0  0  0  0  0  0
   23.3920   11.2690   28.5610 H   0  0  0  0  0  0  0  0  0  0  0  0
  1  2  1  0  0  0  0
  2  7  1  0  0  0  0
  3  4  1  0  0  0  0
  3  2  2  0  0  0  0
  4  5  2  0  0  0  0
  5  9  1  0  0  0  0
  5  6  1  0  0  0  0
  7  6  2  0  0  0  0
  7  8  1  0  0  0  0
 10  9  1  0  0  0  0
 11 20  1  6  0  0  0
 11 13  1  0  0  0  0
 11 10  1  0  0  0  0
 12 28  1  6  0  0  0
 12 11  1  0  0  0  0
 12  4  1  0  0  0  0
 13 19  1  0  0  0  0
 14 15  1  0  0  0  0
 14 13  1  0  0  0  0
 16 15  1  0  0  0  0
 16 17  1  0  0  0  0
 18 13  1  0  0  0  0
 18 17  1  0  0  0  0
 21 20  1  0  0  0  0
 21 27  1  0  0  0  0
 22 21  1  0  0  0  0
 23 22  1  0  0  0  0
 24 25  1  0  0  0  0
 24 23  1  0  0  0  0
 25 26  1  0  0  0  0
 26 21  1  0  0  0  0
 29 28  1  0  0  0  0
M  END
>  <Pose>
1

>  <Score>
-6.300

$$$$
