/Users/jonathanwahrer/Desktop/Msc/3_Semester/Drug_Design_Praktikum/waehrer_HTS_screening/HTS_experiment/out/docking_results/vina_output/3elj/0872_docked.pdbqt
 OpenBabel03192217563D

 32 35  0  0  0  0  0  0  0  0999 V2000
   23.8990   11.9500   29.3050 N   0  0  0  0  0  0  0  0  0  0  0  0
   22.7690   12.4900   29.7250 N   0  0  0  0  0  0  0  0  0  0  0  0
   22.7850   13.7410   29.2990 N   0  0  0  0  0  0  0  0  0  0  0  0
   23.9150   14.0050   28.6110 C   0  0  0  0  0  0  0  0  0  0  0  0
   24.6150   12.8590   28.6220 C   0  0  0  0  0  0  0  0  0  0  0  0
   25.7610   13.1450   27.9180 C   0  0  0  0  0  0  0  0  0  0  0  0
   26.6910   12.3240   27.6990 O   0  0  0  0  0  0  0  0  0  0  0  0
   25.7770   14.4220   27.4840 N   0  0  0  0  0  0  0  0  0  0  0  0
   24.6260   14.9660   27.9130 C   0  0  0  0  0  0  0  0  0  0  0  0
   24.2640   16.1540   27.7090 O   0  0  0  0  0  0  0  0  0  0  0  0
   21.9980   12.0280   30.2890 H   0  0  0  0  0  0  0  0  0  0  0  0
   21.9980   14.4140   29.4920 H   0  0  0  0  0  0  0  0  0  0  0  0
   24.2670   10.5750   29.5630 C   0  0  0  0  0  2  0  0  0  0  0  0
   23.0260    9.7970   29.9550 C   0  0  0  0  0  0  0  0  0  0  0  0
   22.9100    9.3120   31.2550 N   0  0  0  0  0  0  0  0  0  0  0  0
   23.7340    9.5330   31.9120 H   0  0  0  0  0  0  0  0  0  0  0  0
   22.1730    9.6360   29.0770 O   0  0  0  0  0  0  0  0  0  0  0  0
   21.8200    8.5790   31.7490 C   0  0  0  0  0  0  0  0  0  0  0  0
   20.7820    9.2740   32.3910 C   0  0  0  0  0  0  0  0  0  0  0  0
   20.8980   10.6270   32.4930 F   0  0  0  0  0  0  0  0  0  0  0  0
   19.6990    8.5950   32.8880 C   0  0  0  0  0  3  0  0  0  0  0  0
   19.6080    7.2240   32.7700 C   0  0  0  0  0  0  0  0  0  0  0  0
   20.6040    6.5060   32.1480 C   0  0  0  0  0  3  0  0  0  0  0  0
   18.5230    6.5920   33.2740 F   0  0  0  0  0  0  0  0  0  0  0  0
   21.7070    7.2270   31.6440 C   0  0  0  0  0  3  0  0  0  0  0  0
   26.8310   15.0350   26.7210 C   0  0  0  0  0  0  0  0  0  0  0  0
   26.6880   15.2450   25.3630 C   0  0  0  0  0  3  0  0  0  0  0  0
   27.6710   15.8290   24.5910 C   0  0  0  0  0  3  0  0  0  0  0  0
   28.8340   16.2070   25.2330 C   0  0  0  0  0  0  0  0  0  0  0  0
   29.0340   16.0210   26.5910 C   0  0  0  0  0  3  0  0  0  0  0  0
   30.1900   17.0170   24.1390 Br  0  0  0  0  0  0  0  0  0  0  0  0
   28.0100   15.4310   27.3050 C   0  0  0  0  0  3  0  0  0  0  0  0
  1 13  1  0  0  0  0
  1  2  1  0  0  0  0
  2 11  1  0  0  0  0
  3 12  1  0  0  0  0
  3  2  1  0  0  0  0
  4  5  2  0  0  0  0
  4  3  1  0  0  0  0
  5  1  1  0  0  0  0
  6  5  1  0  0  0  0
  7  6  2  0  0  0  0
  8  9  1  0  0  0  0
  8  6  1  0  0  0  0
  9  4  1  0  0  0  0
 10  9  2  0  0  0  0
 13 14  1  0  0  0  0
 14 15  1  0  0  0  0
 15 18  1  0  0  0  0
 15 16  1  0  0  0  0
 17 14  2  0  0  0  0
 18 19  1  0  0  0  0
 19 20  1  0  0  0  0
 19 21  2  0  0  0  0
 22 21  1  0  0  0  0
 22 24  1  0  0  0  0
 23 22  2  0  0  0  0
 25 18  2  0  0  0  0
 25 23  1  0  0  0  0
 26 32  1  0  0  0  0
 26  8  1  0  0  0  0
 27 26  2  0  0  0  0
 28 29  2  0  0  0  0
 28 27  1  0  0  0  0
 29 30  1  0  0  0  0
 30 32  2  0  0  0  0
 31 29  1  0  0  0  0
M  END
>  <Pose>
1

>  <Score>
-8.913

$$$$
