/Users/jonathanwahrer/Desktop/Msc/3_Semester/Drug_Design_Praktikum/waehrer_HTS_screening/HTS_experiment/out/docking_results/vina_output/3elj/0873_docked.pdbqt
 OpenBabel03192217563D

 32 35  0  0  1  0  0  0  0  0999 V2000
   22.6650   11.2200   32.2290 C   0  0  2  0  0  3  0  0  0  0  0  0
   22.6610   12.3220   31.2800 N   0  0  0  0  0  0  0  0  0  0  0  0
   22.1620   11.6740   30.0900 C   0  0  0  0  0  0  0  0  0  0  0  0
   21.4700   12.1660   29.1600 O   0  0  0  0  0  0  0  0  0  0  0  0
   22.5990   10.2500   30.1050 C   0  0  0  0  0  0  0  0  0  0  0  0
   22.4220    9.3210   29.3190 O   0  0  0  0  0  0  0  0  0  0  0  0
   23.3670   10.1780   31.3830 C   0  0  0  0  0  0  0  0  0  0  0  0
   24.3770    9.3890   31.6530 C   0  0  0  0  0  0  0  0  0  0  0  0
   24.9770    9.4520   32.9270 O   0  0  0  0  0  1  0  0  0  0  0  0
   23.0090   13.6760   31.3440 C   0  0  0  0  0  2  0  0  0  0  0  0
   22.0010   14.7300   31.0580 C   0  0  0  0  0  2  0  0  0  0  0  0
   22.2490   15.4740   29.8560 N   0  0  0  0  0  4  0  0  0  0  0  0
   23.5480   15.1020   29.3350 C   0  0  0  0  0  2  0  0  0  0  0  0
   23.8050   15.7760   27.9990 C   0  0  0  0  0  2  0  0  0  0  0  0
   23.7490   17.1460   28.1670 O   0  0  0  0  0  0  0  0  0  0  0  0
   22.5220   17.5230   28.7060 C   0  0  0  0  0  2  0  0  0  0  0  0
   22.3590   16.9250   30.1100 C   0  0  0  0  0  2  0  0  0  0  0  0
   21.4850   15.4160   29.1520 H   0  0  0  0  0  0  0  0  0  0  0  0
   21.3310   10.7020   32.5760 C   0  0  0  0  0  0  0  0  0  0  0  0
   20.3080   11.5060   33.0340 C   0  0  0  0  0  0  0  0  0  0  0  0
   20.4520   12.8150   33.1680 F   0  0  0  0  0  0  0  0  0  0  0  0
   19.0640   10.9710   33.3820 C   0  0  0  0  0  3  0  0  0  0  0  0
   18.8160    9.6410   33.2790 C   0  0  0  0  0  3  0  0  0  0  0  0
   19.8040    8.8130   32.8290 C   0  0  0  0  0  3  0  0  0  0  0  0
   21.0310    9.3650   32.4920 C   0  0  0  0  0  3  0  0  0  0  0  0
   24.9040    8.4500   30.6740 C   0  0  0  0  0  0  0  0  0  0  0  0
   24.3930    7.1710   30.6340 C   0  0  0  0  0  3  0  0  0  0  0  0
   24.8660    6.2180   29.7470 C   0  0  0  0  0  3  0  0  0  0  0  0
   25.8780    6.5420   28.8690 C   0  0  0  0  0  0  0  0  0  0  0  0
   26.3980    7.8000   28.8920 C   0  0  0  0  0  3  0  0  0  0  0  0
   26.5570    5.2370   27.6230 Br  0  0  0  0  0  0  0  0  0  0  0  0
   25.9090    8.7580   29.7970 C   0  0  0  0  0  3  0  0  0  0  0  0
  1 19  1  6  0  0  0
  2 10  1  0  0  0  0
  2  1  1  0  0  0  0
  3  5  1  0  0  0  0
  3  2  1  0  0  0  0
  4  3  2  0  0  0  0
  5  7  1  0  0  0  0
  6  5  2  0  0  0  0
  7  8  2  0  0  0  0
  7  1  1  0  0  0  0
  8  9  1  0  0  0  0
 11 10  1  0  0  0  0
 12 17  1  0  0  0  0
 12 11  1  0  0  0  0
 13 12  1  0  0  0  0
 14 15  1  0  0  0  0
 14 13  1  0  0  0  0
 15 16  1  0  0  0  0
 16 17  1  0  0  0  0
 18 12  1  0  0  0  0
 19 20  1  0  0  0  0
 20 21  1  0  0  0  0
 20 22  2  0  0  0  0
 23 22  1  0  0  0  0
 24 23  2  0  0  0  0
 25 19  2  0  0  0  0
 25 24  1  0  0  0  0
 26  8  1  0  0  0  0
 27 26  1  0  0  0  0
 28 27  2  0  0  0  0
 29 30  2  0  0  0  0
 29 28  1  0  0  0  0
 30 32  1  0  0  0  0
 31 29  1  0  0  0  0
 32 26  2  0  0  0  0
M  END
>  <Pose>
1

>  <Score>
-8.574

$$$$
