MODEL 1
REMARK VINA RESULT:    -9.167      0.000      0.000
REMARK INTER + INTRA:         -11.259
REMARK INTER:                 -11.311
REMARK INTRA:                   0.051
REMARK UNBOUND:                 0.051
REMARK  4 active torsions:
REMARK  status: ('A' for Active; 'I' for Inactive)
REMARK    1  A    between atoms: C_5  and  N_8 
REMARK    2  A    between atoms: N_15  and  C_16 
REMARK    3  A    between atoms: C_16  and  C_17 
REMARK       I    between atoms: C_17  and  N_19 
REMARK    4  A    between atoms: N_19  and  C_20 
ROOT
ATOM      1  N   UNK d   1      21.987   7.996  31.588  0.00  0.00    -0.241 N 
ATOM      2  C   UNK d   1      22.621   6.909  31.115  0.00  0.00     0.286 A 
ATOM      3  O   UNK d   1      22.075   5.772  31.124  0.00  0.00    -0.265 OA
ATOM      4  C   UNK d   1      23.886   7.205  30.645  0.00  0.00     0.155 A 
ATOM      5  C   UNK d   1      24.024   8.514  30.840  0.00  0.00     0.152 A 
ATOM      6  N   UNK d   1      25.241   8.845  30.400  0.00  0.00    -0.279 N 
ATOM      7  N   UNK d   1      25.833   7.756  29.947  0.00  0.00    -0.239 N 
ATOM      8  N   UNK d   1      25.019   6.714  30.083  0.00  0.00    -0.261 N 
ATOM      9  C   UNK d   1      22.873   9.010  31.414  0.00  0.00     0.286 A 
ATOM     10  O   UNK d   1      22.601  10.196  31.754  0.00  0.00    -0.265 OA
ATOM     11  H   UNK d   1      25.627   9.829  30.428  0.00  0.00     0.189 HD
ATOM     12  H   UNK d   1      26.779   7.699  29.545  0.00  0.00     0.208 HD
ENDROOT
BRANCH   8  13
ATOM     13  C   UNK d   1      25.234   5.341  29.728  0.00  0.00     0.254 C 
BRANCH  13  14
ATOM     14  C   UNK d   1      25.489   4.428  30.847  0.00  0.00     0.242 C 
ATOM     15  O   UNK d   1      26.633   4.417  31.326  0.00  0.00    -0.271 OA
ATOM     16  N   UNK d   1      24.472   3.610  31.346  0.00  0.00    -0.326 N 
ATOM     17  H   UNK d   1      23.496   3.675  30.879  0.00  0.00     0.169 HD
BRANCH  16  18
ATOM     18  C   UNK d   1      24.517   2.674  32.406  0.00  0.00     0.034 A 
ATOM     19  C   UNK d   1      25.340   1.573  32.373  0.00  0.00     0.031 A 
ATOM     20  C   UNK d   1      25.411   0.627  33.399  0.00  0.00     0.021 A 
ATOM     21  C   UNK d   1      24.600   0.840  34.485  0.00  0.00     0.011 A 
ATOM     22  C   UNK d   1      23.769   1.931  34.543  0.00  0.00     0.021 A 
ATOM     23 Br   UNK d   1      24.648  -0.425  35.939  0.00  0.00    -0.051 Br
ATOM     24  C   UNK d   1      23.718   2.844  33.523  0.00  0.00     0.031 A 
ENDBRANCH  16  18
ENDBRANCH  13  14
ENDBRANCH   8  13
BRANCH   1  25
ATOM     25  C   UNK d   1      20.682   8.088  32.157  0.00  0.00     0.046 A 
ATOM     26  C   UNK d   1      19.711   7.122  32.025  0.00  0.00     0.033 A 
ATOM     27  C   UNK d   1      18.445   7.269  32.598  0.00  0.00     0.044 A 
ATOM     28  C   UNK d   1      18.139   8.392  33.313  0.00  0.00     0.116 A 
ATOM     29  F   UNK d   1      16.898   8.526  33.869  0.00  0.00    -0.206 F 
ATOM     30  C   UNK d   1      19.096   9.370  33.458  0.00  0.00     0.044 A 
ATOM     31  C   UNK d   1      20.339   9.215  32.888  0.00  0.00     0.033 A 
ENDBRANCH   1  25
TORSDOF 4
ENDMDL
