MODEL 1
REMARK VINA RESULT:    -6.451      0.000      0.000
REMARK INTER + INTRA:          -7.006
REMARK INTER:                  -6.828
REMARK INTRA:                  -0.177
REMARK UNBOUND:                -0.177
REMARK  1 active torsions:
REMARK  status: ('A' for Active; 'I' for Inactive)
REMARK    1  A    between atoms: C_4  and  C_9 
ROOT
ATOM      1  C   UNK d   1      25.694   4.566  28.641  0.00  0.00     0.222 C 
ATOM      2  N   UNK d   1      25.564   3.317  29.357  0.00  0.00    -0.358 N 
ATOM      3  C   UNK d   1      26.289   3.124  30.576  0.00  0.00     0.088 A 
ATOM      4  S   UNK d   1      26.032   2.112  31.967  0.00  0.00    -0.074 SA
ATOM      5  C   UNK d   1      27.391   2.553  32.887  0.00  0.00     0.018 A 
ATOM      6  C   UNK d   1      28.003   3.466  32.100  0.00  0.00    -0.023 A 
ATOM      7  C   UNK d   1      27.445   3.764  30.915  0.00  0.00     0.073 A 
ATOM      8  C   UNK d   1      27.874   4.709  29.845  0.00  0.00     0.256 C 
ATOM      9  O   UNK d   1      28.919   5.393  29.964  0.00  0.00    -0.267 OA
ATOM     10  N   UNK d   1      27.117   4.862  28.663  0.00  0.00    -0.331 N 
ATOM     11  C   UNK d   1      29.285   4.046  32.688  0.00  0.00     0.068 C 
ATOM     12  C   UNK d   1      29.813   3.082  33.700  0.00  0.00     0.239 C 
ATOM     13  N   UNK d   1      28.784   3.008  34.749  0.00  0.00    -0.070 N 
ATOM     14  C   UNK d   1      27.817   2.069  34.220  0.00  0.00     0.281 C 
ATOM     15  C   UNK d   1      29.346   2.573  36.006  0.00  0.00     0.270 C 
ATOM     16  H   UNK d   1      24.960   2.530  29.031  0.00  0.00     0.162 HD
ATOM     17  H   UNK d   1      27.567   5.193  27.772  0.00  0.00     0.165 HD
ATOM     18  H   UNK d   1      28.312   3.934  34.822  0.00  0.00     0.279 HD
ENDROOT
BRANCH   1  19
ATOM     19  C   UNK d   1      24.939   5.582  29.420  0.00  0.00     0.023 A 
ATOM     20  C   UNK d   1      25.250   6.920  29.445  0.00  0.00     0.134 A 
ATOM     21  C   UNK d   1      24.515   7.833  30.203  0.00  0.00     0.044 A 
ATOM     22  O   UNK d   1      26.315   7.380  28.703  0.00  0.00    -0.190 OA
ATOM     23  I   UNK d   1      25.045   9.868  30.199  0.00  0.00    -0.042 I 
ATOM     24  C   UNK d   1      23.453   7.430  30.952  0.00  0.00     0.040 A 
ATOM     25  C   UNK d   1      23.124   6.095  30.941  0.00  0.00     0.013 A 
ATOM     26  C   UNK d   1      23.841   5.192  30.200  0.00  0.00     0.033 A 
ATOM     27 Br   UNK d   1      21.639   5.528  31.988  0.00  0.00    -0.051 Br
ENDBRANCH   1  19
TORSDOF 1
ENDMDL
