/Users/jonathanwahrer/Desktop/Msc/3_Semester/Drug_Design_Praktikum/waehrer_HTS_screening/HTS_experiment/out/docking_results/vina_output/3elj/0892_docked.pdbqt
 OpenBabel03192217573D

 27 30  0  0  1  0  0  0  0  0999 V2000
   25.6940    4.5660   28.6410 C   0  0  2  0  0  3  0  0  0  0  0  0
   25.5640    3.3170   29.3570 N   0  0  0  0  0  0  0  0  0  0  0  0
   26.2890    3.1240   30.5760 C   0  0  0  0  0  0  0  0  0  0  0  0
   26.0320    2.1120   31.9670 S   0  0  0  0  0  0  0  0  0  0  0  0
   27.3910    2.5530   32.8870 C   0  0  0  0  0  0  0  0  0  0  0  0
   28.0030    3.4660   32.1000 C   0  0  0  0  0  0  0  0  0  0  0  0
   27.4450    3.7640   30.9150 C   0  0  0  0  0  0  0  0  0  0  0  0
   27.8740    4.7090   29.8450 C   0  0  0  0  0  0  0  0  0  0  0  0
   28.9190    5.3930   29.9640 O   0  0  0  0  0  0  0  0  0  0  0  0
   27.1170    4.8620   28.6630 N   0  0  0  0  0  0  0  0  0  0  0  0
   29.2850    4.0460   32.6880 C   0  0  0  0  0  2  0  0  0  0  0  0
   29.8130    3.0820   33.7000 C   0  0  0  0  0  2  0  0  0  0  0  0
   28.7840    3.0080   34.7490 N   0  0  0  0  0  4  0  0  0  0  0  0
   27.8170    2.0690   34.2200 C   0  0  0  0  0  2  0  0  0  0  0  0
   29.3460    2.5730   36.0060 C   0  0  0  0  0  1  0  0  0  0  0  0
   24.9600    2.5300   29.0310 H   0  0  0  0  0  0  0  0  0  0  0  0
   27.5670    5.1930   27.7720 H   0  0  0  0  0  0  0  0  0  0  0  0
   28.3120    3.9340   34.8220 H   0  0  0  0  0  0  0  0  0  0  0  0
   24.9390    5.5820   29.4200 C   0  0  0  0  0  0  0  0  0  0  0  0
   25.2500    6.9200   29.4450 C   0  0  0  0  0  0  0  0  0  0  0  0
   24.5150    7.8330   30.2030 C   0  0  0  0  0  0  0  0  0  0  0  0
   26.3150    7.3800   28.7030 O   0  0  0  0  0  1  0  0  0  0  0  0
   25.0450    9.8680   30.1990 I   0  0  0  0  0  0  0  0  0  0  0  0
   23.4530    7.4300   30.9520 C   0  0  0  0  0  3  0  0  0  0  0  0
   23.1240    6.0950   30.9410 C   0  0  0  0  0  0  0  0  0  0  0  0
   23.8410    5.1920   30.2000 C   0  0  0  0  0  3  0  0  0  0  0  0
   21.6390    5.5280   31.9880 Br  0  0  0  0  0  0  0  0  0  0  0  0
  1 10  1  0  0  0  0
  1  2  1  0  0  0  0
  1 19  1  1  0  0  0
  2  3  1  0  0  0  0
  3  7  2  0  0  0  0
  3  4  1  0  0  0  0
  4  5  1  0  0  0  0
  5 14  1  0  0  0  0
  6 11  1  0  0  0  0
  6  5  2  0  0  0  0
  7  6  1  0  0  0  0
  8  9  2  0  0  0  0
  8  7  1  0  0  0  0
 10  8  1  0  0  0  0
 11 12  1  0  0  0  0
 12 13  1  0  0  0  0
 13 18  1  0  0  0  0
 13 15  1  0  0  0  0
 14 13  1  0  0  0  0
 16  2  1  0  0  0  0
 17 10  1  0  0  0  0
 19 20  2  0  0  0  0
 19 26  1  0  0  0  0
 20 21  1  0  0  0  0
 21 24  2  0  0  0  0
 22 20  1  0  0  0  0
 23 21  1  0  0  0  0
 25 24  1  0  0  0  0
 25 27  1  0  0  0  0
 26 25  2  0  0  0  0
M  END
>  <Pose>
1

>  <Score>
-6.451

$$$$
