MODEL 1
REMARK VINA RESULT:    -8.223      0.000      0.000
REMARK INTER + INTRA:          -9.647
REMARK INTER:                  -9.184
REMARK INTRA:                  -0.463
REMARK UNBOUND:                -0.463
REMARK  2 active torsions:
REMARK  status: ('A' for Active; 'I' for Inactive)
REMARK    1  A    between atoms: C_4  and  O_23 
REMARK    2  A    between atoms: C_6  and  C_8 
ROOT
ATOM      1  C   UNK d   1      21.834   5.680  30.870  0.00  0.00     0.219 C 
ATOM      2  N   UNK d   1      22.388   4.835  31.928  0.00  0.00    -0.358 N 
ATOM      3  C   UNK d   1      23.619   4.096  31.724  0.00  0.00     0.088 A 
ATOM      4  S   UNK d   1      24.368   2.814  32.590  0.00  0.00    -0.074 SA
ATOM      5  C   UNK d   1      25.746   2.608  31.625  0.00  0.00     0.018 A 
ATOM      6  C   UNK d   1      25.592   3.549  30.643  0.00  0.00    -0.023 A 
ATOM      7  C   UNK d   1      24.483   4.319  30.701  0.00  0.00     0.073 A 
ATOM      8  C   UNK d   1      24.086   5.406  29.760  0.00  0.00     0.256 C 
ATOM      9  O   UNK d   1      24.804   5.715  28.762  0.00  0.00    -0.267 OA
ATOM     10  N   UNK d   1      22.884   6.105  29.985  0.00  0.00    -0.332 N 
ATOM     11  C   UNK d   1      26.749   3.529  29.651  0.00  0.00     0.068 C 
ATOM     12  C   UNK d   1      28.051   3.568  30.406  0.00  0.00     0.239 C 
ATOM     13  N   UNK d   1      28.098   2.693  31.530  0.00  0.00    -0.070 N 
ATOM     14  C   UNK d   1      26.985   1.750  31.555  0.00  0.00     0.281 C 
ATOM     15  C   UNK d   1      27.930   3.524  32.733  0.00  0.00     0.270 C 
ATOM     16  H   UNK d   1      21.924   4.737  32.849  0.00  0.00     0.162 HD
ATOM     17  H   UNK d   1      22.724   7.013  29.474  0.00  0.00     0.165 HD
ATOM     18  H   UNK d   1      29.007   2.168  31.623  0.00  0.00     0.279 HD
ENDROOT
BRANCH   1  19
ATOM     19  C   UNK d   1      21.310   6.894  31.553  0.00  0.00    -0.012 A 
ATOM     20  C   UNK d   1      22.139   8.006  31.639  0.00  0.00     0.050 A 
ATOM     21  C   UNK d   1      21.768   9.171  32.239  0.00  0.00     0.106 A 
ATOM     22  C   UNK d   1      20.489   9.234  32.792  0.00  0.00     0.157 A 
ATOM     23  C   UNK d   1      19.646   8.144  32.720  0.00  0.00     0.046 A 
ATOM     24  O   UNK d   1      20.076  10.399  33.410  0.00  0.00    -0.188 OA
ATOM     25  I   UNK d   1      17.715   8.261  33.562  0.00  0.00    -0.041 I 
ATOM     26  C   UNK d   1      20.060   6.975  32.101  0.00  0.00     0.032 A 
BRANCH  21  27
ATOM     27  O   UNK d   1      22.573  10.298  32.341  0.00  0.00    -0.353 OA
ATOM     28  C   UNK d   1      23.935  10.191  31.971  0.00  0.00     0.210 C 
ENDBRANCH  21  27
ENDBRANCH   1  19
TORSDOF 2
ENDMDL
