/Users/jonathanwahrer/Desktop/Msc/3_Semester/Drug_Design_Praktikum/waehrer_HTS_screening/HTS_experiment/out/docking_results/vina_output/3elj/0906_docked.pdbqt
 OpenBabel03192217573D

 27 30  0  0  1  0  0  0  0  0999 V2000
   20.6740   12.3420   32.3430 C   0  0  1  0  0  3  0  0  0  0  0  0
   19.4690   12.8990   32.3790 N   0  0  0  0  0  0  0  0  0  0  0  0
   19.1400   14.0930   31.8580 C   0  0  0  0  0  0  0  0  0  0  0  0
   18.0560   14.8710   31.7510 N   0  0  0  0  0  2  0  0  0  0  0  0
   18.3460   15.9690   31.1150 O   0  0  0  0  0  0  0  0  0  0  0  0
   19.6060   15.9600   30.7840 N   0  0  0  0  0  0  0  0  0  0  0  0
   20.1530   14.8160   31.2190 C   0  0  0  0  0  0  0  0  0  0  0  0
   21.3720   14.3110   31.1550 N   0  0  0  0  0  0  0  0  0  0  0  0
   21.6510   13.1190   31.6890 C   0  0  0  0  0  0  0  0  0  0  0  0
   22.9350   12.8960   31.4610 N   0  0  0  0  0  0  0  0  0  0  0  0
   23.4560   13.9370   30.7900 N   0  0  0  0  0  0  0  0  0  0  0  0
   22.4900   14.8440   30.5850 C   0  0  0  0  0  0  0  0  0  0  0  0
   21.0320   11.0920   32.8870 N   0  0  0  0  0  0  0  0  0  0  0  0
   21.9780   11.0280   33.4040 H   0  0  0  0  0  0  0  0  0  0  0  0
   20.3050    9.8850   32.8460 C   0  0  0  0  0  0  0  0  0  0  0  0
   20.8940    8.7570   32.2330 C   0  0  0  0  0  0  0  0  0  0  0  0
   22.8370    8.9130   31.4200 I   0  0  0  0  0  0  0  0  0  0  0  0
   20.2130    7.5670   32.1690 C   0  0  0  0  0  3  0  0  0  0  0  0
   18.9330    7.4680   32.7090 C   0  0  0  0  0  3  0  0  0  0  0  0
   18.3870    8.5760   33.2940 C   0  0  0  0  0  3  0  0  0  0  0  0
   19.0510    9.8020   33.3810 C   0  0  0  0  0  3  0  0  0  0  0  0
   22.5590   16.1570   29.8900 C   0  0  0  0  0  2  0  0  0  0  0  0
   23.3450   16.1120   28.6340 C   0  0  0  0  0  0  0  0  0  0  0  0
   23.6860   15.0460   28.0810 O   0  0  0  0  0  0  0  0  0  0  0  0
   23.7180   17.2910   28.0510 O   0  0  0  0  0  0  0  0  0  0  0  0
   22.8530   18.2820   27.6250 C   0  0  0  0  0  2  0  0  0  0  0  0
   23.4030   19.2670   26.6650 C   0  0  0  0  0  1  0  0  0  0  0  0
  1  2  1  0  0  0  0
  1 13  1  1  0  0  0
  3  2  2  0  0  0  0
  4  3  1  0  0  0  0
  5  4  1  0  0  0  0
  6  5  1  0  0  0  0
  6  7  2  0  0  0  0
  7  3  1  0  0  0  0
  8  7  1  0  0  0  0
  8  9  1  0  0  0  0
  9  1  1  0  0  0  0
 10  9  2  0  0  0  0
 11 10  1  0  0  0  0
 12 11  2  0  0  0  0
 12  8  1  0  0  0  0
 13 14  1  0  0  0  0
 15 13  1  0  0  0  0
 15 21  1  0  0  0  0
 16 15  2  0  0  0  0
 17 16  1  0  0  0  0
 18 16  1  0  0  0  0
 18 19  2  0  0  0  0
 19 20  1  0  0  0  0
 20 21  2  0  0  0  0
 22 12  1  0  0  0  0
 23 22  1  0  0  0  0
 24 23  2  0  0  0  0
 25 23  1  0  0  0  0
 26 25  1  0  0  0  0
 27 26  1  0  0  0  0
M  END
>  <Pose>
1

>  <Score>
-8.824

$$$$
