MODEL 1
REMARK VINA RESULT:    -7.559      0.000      0.000
REMARK INTER + INTRA:          -7.746
REMARK INTER:                  -8.442
REMARK INTRA:                   0.697
REMARK UNBOUND:                 0.697
REMARK  2 active torsions:
REMARK  status: ('A' for Active; 'I' for Inactive)
REMARK    1  A    between atoms: C_3  and  N_8 
REMARK    2  A    between atoms: N_15  and  C_16 
ROOT
ATOM      1  N   UNK d   1      24.949   6.197  29.602  0.00  0.00    -0.240 N 
ATOM      2  C   UNK d   1      23.745   6.290  30.192  0.00  0.00     0.286 A 
ATOM      3  O   UNK d   1      22.865   5.378  30.206  0.00  0.00    -0.265 OA
ATOM      4  C   UNK d   1      23.572   7.520  30.794  0.00  0.00     0.160 A 
ATOM      5  C   UNK d   1      24.692   8.186  30.565  0.00  0.00     0.152 A 
ATOM      6  N   UNK d   1      24.509   9.388  31.161  0.00  0.00    -0.278 N 
ATOM      7  N   UNK d   1      23.319   9.447  31.731  0.00  0.00    -0.234 N 
ATOM      8  N   UNK d   1      22.723   8.303  31.516  0.00  0.00    -0.234 N 
ATOM      9  C   UNK d   1      25.548   7.379  29.832  0.00  0.00     0.286 A 
ATOM     10  O   UNK d   1      26.712   7.727  29.447  0.00  0.00    -0.265 OA
ATOM     11  H   UNK d   1      25.196  10.171  31.181  0.00  0.00     0.189 HD
ATOM     12  H   UNK d   1      22.925  10.255  32.254  0.00  0.00     0.209 HD
ENDROOT
BRANCH   1  13
ATOM     13  C   UNK d   1      25.508   5.099  28.879  0.00  0.00     0.062 A 
ATOM     14  C   UNK d   1      25.873   3.928  29.512  0.00  0.00     0.034 A 
ATOM     15  I   UNK d   1      25.570   3.820  31.604  0.00  0.00    -0.042 I 
ATOM     16  C   UNK d   1      26.415   2.855  28.834  0.00  0.00     0.020 A 
ATOM     17  C   UNK d   1      26.616   2.913  27.471  0.00  0.00     0.001 A 
ATOM     18  C   UNK d   1      26.256   4.078  26.827  0.00  0.00     0.002 A 
ATOM     19  C   UNK d   1      25.713   5.149  27.515  0.00  0.00     0.031 A 
ENDBRANCH   1  13
BRANCH   8  20
ATOM     20  C   UNK d   1      21.428   7.891  31.933  0.00  0.00     0.058 A 
ATOM     21  C   UNK d   1      21.106   6.566  32.121  0.00  0.00     0.031 A 
ATOM     22  C   UNK d   1      19.834   6.197  32.528  0.00  0.00     0.002 A 
ATOM     23  C   UNK d   1      18.845   7.130  32.761  0.00  0.00     0.000 A 
ATOM     24  C   UNK d   1      19.165   8.457  32.574  0.00  0.00     0.002 A 
ATOM     25  C   UNK d   1      20.423   8.832  32.169  0.00  0.00     0.031 A 
ENDBRANCH   8  20
TORSDOF 2
ENDMDL
