/Users/jonathanwahrer/Desktop/Msc/3_Semester/Drug_Design_Praktikum/waehrer_HTS_screening/HTS_experiment/out/docking_results/vina_output/3elj/0924_docked.pdbqt
 OpenBabel03192217573D

 29 32  0  0  0  0  0  0  0  0999 V2000
   23.4950    9.2100   31.2990 C   0  0  0  0  0  0  0  0  0  0  0  0
   23.5440   10.5510   31.2240 N   0  0  0  0  0  4  0  0  0  0  0  0
   22.5100   11.3060   31.6160 C   0  0  0  0  0  0  0  0  0  0  0  0
   21.4310   10.6590   32.0840 N   0  0  0  0  0  0  0  0  0  0  0  0
   21.3440    9.3160   32.1750 C   0  0  0  0  0  0  0  0  0  0  0  0
   22.4050    8.5930   31.7710 N   0  0  0  0  0  2  0  0  0  0  0  0
   24.6250    8.4140   30.8690 N   0  0  0  0  0  0  0  0  0  0  0  0
   25.4490    8.2990   31.5000 H   0  0  0  0  0  0  0  0  0  0  0  0
   24.6100    7.8500   29.6370 N   0  0  0  0  0  0  0  0  0  0  0  0
   24.4390    6.6220   29.4210 C   0  0  0  0  0  3  0  0  0  0  0  0
   24.2300    5.5700   30.3770 C   0  0  0  0  0  0  0  0  0  0  0  0
   23.0550    5.2030   30.9650 C   0  0  0  0  0  3  0  0  0  0  0  0
   22.9560    4.1550   31.8920 C   0  0  0  0  0  3  0  0  0  0  0  0
   24.0660    3.4510   32.2420 C   0  0  0  0  0  0  0  0  0  0  0  0
   24.0200    1.8720   33.6140 I   0  0  0  0  0  0  0  0  0  0  0  0
   25.2660    3.8000   31.6640 C   0  0  0  0  0  3  0  0  0  0  0  0
   25.3580    4.8280   30.7570 C   0  0  0  0  0  3  0  0  0  0  0  0
   22.5400   12.7320   31.5450 N   0  0  0  0  0  0  0  0  0  0  0  0
   21.5060   13.5670   32.0780 C   0  0  0  0  0  2  0  0  0  0  0  0
   21.8050   15.0050   31.6490 C   0  0  0  0  0  2  0  0  0  0  0  0
   22.0680   15.0860   30.2910 O   0  0  0  0  0  0  0  0  0  0  0  0
   23.2120   14.4260   29.9150 C   0  0  0  0  0  2  0  0  0  0  0  0
   23.6700   13.3810   30.9010 C   0  0  0  0  0  2  0  0  0  0  0  0
   20.1630    8.7110   32.6810 N   0  0  0  0  0  0  0  0  0  0  0  0
   20.0250    7.2730   32.6460 C   0  0  0  0  0  2  0  0  0  0  0  0
   18.5360    7.0140   32.3800 C   0  0  0  0  0  2  0  0  0  0  0  0
   17.8400    7.4570   33.4740 O   0  0  0  0  0  0  0  0  0  0  0  0
   17.9330    8.7920   33.7550 C   0  0  0  0  0  3  0  0  0  0  0  0
   19.1180    9.5100   33.2200 C   0  0  0  0  0  3  0  0  0  0  0  0
  1  6  1  0  0  0  0
  2  1  2  0  0  0  0
  2  3  2  0  0  0  0
  3  4  1  0  0  0  0
  4  5  2  0  0  0  0
  5 24  1  0  0  0  0
  6  5  1  0  0  0  0
  7  1  1  0  0  0  0
  7  8  1  0  0  0  0
  9  7  1  0  0  0  0
 10  9  2  0  0  0  0
 10 11  1  0  0  0  0
 11 17  2  0  0  0  0
 11 12  1  0  0  0  0
 12 13  2  0  0  0  0
 13 14  1  0  0  0  0
 14 15  1  0  0  0  0
 16 14  2  0  0  0  0
 17 16  1  0  0  0  0
 18  3  1  0  0  0  0
 18 19  1  0  0  0  0
 20 19  1  0  0  0  0
 21 20  1  0  0  0  0
 22 21  1  0  0  0  0
 22 23  1  0  0  0  0
 23 18  1  0  0  0  0
 24 29  1  0  0  0  0
 25 24  1  0  0  0  0
 26 25  1  0  0  0  0
 26 27  1  0  0  0  0
 27 28  1  0  0  0  0
 29 28  2  0  0  0  0
M  END
>  <Pose>
1

>  <Score>
-8.843

$$$$
