MODEL 1
REMARK VINA RESULT:    -7.099      0.000      0.000
REMARK INTER + INTRA:          -6.974
REMARK INTER:                  -8.344
REMARK INTRA:                   1.370
REMARK UNBOUND:                 1.370
REMARK  3 active torsions:
REMARK  status: ('A' for Active; 'I' for Inactive)
REMARK    1  A    between atoms: C_5  and  N_8 
REMARK    2  A    between atoms: C_10  and  C_16 
REMARK    3  A    between atoms: C_22  and  O_29 
ROOT
ATOM      1  N   UNK d   1      24.989  11.671  28.941  0.00  0.00    -0.241 N 
ATOM      2  C   UNK d   1      26.032  11.042  28.373  0.00  0.00     0.204 A 
ATOM      3  C   UNK d   1      26.931  11.690  27.554  0.00  0.00     0.100 A 
ATOM      4  C   UNK d   1      26.699  13.036  27.349  0.00  0.00     0.262 A 
ATOM      5  O   UNK d   1      27.432  13.774  26.624  0.00  0.00    -0.267 OA
ATOM      6  N   UNK d   1      25.640  13.689  27.922  0.00  0.00    -0.274 N 
ATOM      7  C   UNK d   1      24.809  12.981  28.707  0.00  0.00     0.336 A 
ATOM      8  O   UNK d   1      23.824  13.537  29.255  0.00  0.00    -0.246 OA
ATOM      9  O   UNK d   1      26.230   9.705  28.603  0.00  0.00    -0.171 OA
ATOM     10  H   UNK d   1      25.470  14.700  27.765  0.00  0.00     0.173 HD
ENDROOT
BRANCH   3  11
ATOM     11  C   UNK d   1      28.069  11.078  26.893  0.00  0.00     0.267 C 
ATOM     12  N   UNK d   1      29.235  11.881  26.711  0.00  0.00    -0.062 N 
ATOM     13  C   UNK d   1      29.877  12.292  27.930  0.00  0.00     0.240 C 
ATOM     14  C   UNK d   1      30.218  10.986  26.045  0.00  0.00     0.270 C 
ATOM     15  H   UNK d   1      29.166  12.649  26.022  0.00  0.00     0.280 HD
ATOM     16  C   UNK d   1      29.334  11.592  29.158  0.00  0.00     0.067 C 
ATOM     17  C   UNK d   1      29.188  10.123  28.843  0.00  0.00    -0.042 A 
ATOM     18  C   UNK d   1      28.548   9.870  27.656  0.00  0.00     0.020 A 
ATOM     19  C   UNK d   1      29.665   9.125  29.628  0.00  0.00     0.047 A 
ATOM     20  C   UNK d   1      28.372   8.579  27.220  0.00  0.00     0.113 A 
ATOM     21  C   UNK d   1      28.863   7.563  28.027  0.00  0.00     0.139 A 
ATOM     22  C   UNK d   1      29.507   7.800  29.224  0.00  0.00     0.108 A 
ATOM     23  O   UNK d   1      28.854   6.166  27.886  0.00  0.00    -0.320 OA
ATOM     24  O   UNK d   1      29.868   6.581  29.777  0.00  0.00    -0.323 OA
ATOM     25  C   UNK d   1      29.132   5.535  29.123  0.00  0.00     0.352 C 
BRANCH  20  26
ATOM     26  O   UNK d   1      27.735   8.337  26.036  0.00  0.00    -0.352 OA
ATOM     27  C   UNK d   1      28.301   7.853  24.860  0.00  0.00     0.210 C 
ENDBRANCH  20  26
ENDBRANCH   3  11
BRANCH   1  28
ATOM     28  C   UNK d   1      24.075  10.982  29.780  0.00  0.00     0.046 A 
ATOM     29  C   UNK d   1      22.975  10.302  29.283  0.00  0.00     0.031 A 
ATOM     30  C   UNK d   1      22.095   9.639  30.087  0.00  0.00     0.020 A 
ATOM     31  C   UNK d   1      22.277   9.623  31.466  0.00  0.00     0.006 A 
ATOM     32  I   UNK d   1      20.916   8.599  32.692  0.00  0.00    -0.045 I 
ATOM     33  C   UNK d   1      23.368  10.296  31.963  0.00  0.00     0.020 A 
ATOM     34  C   UNK d   1      24.263  10.970  31.158  0.00  0.00     0.031 A 
ENDBRANCH   1  28
TORSDOF 3
ENDMDL
