/Users/jonathanwahrer/Desktop/Msc/3_Semester/Drug_Design_Praktikum/waehrer_HTS_screening/HTS_experiment/out/docking_results/vina_output/3elj/0935_docked.pdbqt
 OpenBabel03192217583D

 34 38  0  0  1  0  0  0  0  0999 V2000
   24.9890   11.6710   28.9410 N   0  0  0  0  0  0  0  0  0  0  0  0
   26.0320   11.0420   28.3730 C   0  0  0  0  0  0  0  0  0  0  0  0
   26.9310   11.6900   27.5540 C   0  0  2  0  0  3  0  0  0  0  0  0
   26.6990   13.0360   27.3490 C   0  0  0  0  0  0  0  0  0  0  0  0
   27.4320   13.7740   26.6240 O   0  0  0  0  0  0  0  0  0  0  0  0
   25.6400   13.6890   27.9220 N   0  0  0  0  0  0  0  0  0  0  0  0
   24.8090   12.9810   28.7070 C   0  0  0  0  0  0  0  0  0  0  0  0
   23.8240   13.5370   29.2550 O   0  0  0  0  0  0  0  0  0  0  0  0
   26.2300    9.7050   28.6030 O   0  0  0  0  0  0  0  0  0  0  0  0
   25.4700   14.7000   27.7650 H   0  0  0  0  0  0  0  0  0  0  0  0
   28.0690   11.0780   26.8930 C   0  0  1  0  0  3  0  0  0  0  0  0
   29.2350   11.8810   26.7110 N   0  0  0  0  0  4  0  0  0  0  0  0
   29.8770   12.2920   27.9300 C   0  0  0  0  0  2  0  0  0  0  0  0
   30.2180   10.9860   26.0450 C   0  0  0  0  0  1  0  0  0  0  0  0
   29.1660   12.6490   26.0220 H   0  0  0  0  0  0  0  0  0  0  0  0
   29.3340   11.5920   29.1580 C   0  0  0  0  0  2  0  0  0  0  0  0
   29.1880   10.1230   28.8430 C   0  0  0  0  0  0  0  0  0  0  0  0
   28.5480    9.8700   27.6560 C   0  0  0  0  0  0  0  0  0  0  0  0
   29.6650    9.1250   29.6280 C   0  0  0  0  0  3  0  0  0  0  0  0
   28.3720    8.5790   27.2200 C   0  0  0  0  0  0  0  0  0  0  0  0
   28.8630    7.5630   28.0270 C   0  0  0  0  0  0  0  0  0  0  0  0
   29.5070    7.8000   29.2240 C   0  0  0  0  0  0  0  0  0  0  0  0
   28.8540    6.1660   27.8860 O   0  0  0  0  0  0  0  0  0  0  0  0
   29.8680    6.5810   29.7770 O   0  0  0  0  0  0  0  0  0  0  0  0
   29.1320    5.5350   29.1230 C   0  0  0  0  0  2  0  0  0  0  0  0
   27.7350    8.3370   26.0360 O   0  0  0  0  0  0  0  0  0  0  0  0
   28.3010    7.8530   24.8600 C   0  0  0  0  0  1  0  0  0  0  0  0
   24.0750   10.9820   29.7800 C   0  0  0  0  0  0  0  0  0  0  0  0
   22.9750   10.3020   29.2830 C   0  0  0  0  0  3  0  0  0  0  0  0
   22.0950    9.6390   30.0870 C   0  0  0  0  0  3  0  0  0  0  0  0
   22.2770    9.6230   31.4660 C   0  0  0  0  0  0  0  0  0  0  0  0
   20.9160    8.5990   32.6920 I   0  0  0  0  0  0  0  0  0  0  0  0
   23.3680   10.2960   31.9630 C   0  0  0  0  0  3  0  0  0  0  0  0
   24.2630   10.9700   31.1580 C   0  0  0  0  0  3  0  0  0  0  0  0
  1 28  1  0  0  0  0
  2  9  2  0  0  0  0
  2  1  1  0  0  0  0
  3  4  1  6  0  0  0
  3  2  1  0  0  0  0
  4  6  1  0  0  0  0
  5  4  2  0  0  0  0
  6  7  1  0  0  0  0
  7  1  1  0  0  0  0
  7  8  2  0  0  0  0
 10  6  1  0  0  0  0
 11  3  1  0  0  0  0
 11 18  1  1  0  0  0
 12 11  1  0  0  0  0
 12 13  1  0  0  0  0
 13 16  1  0  0  0  0
 14 12  1  0  0  0  0
 15 12  1  0  0  0  0
 17 16  1  0  0  0  0
 17 19  1  0  0  0  0
 18 17  2  0  0  0  0
 20 18  1  0  0  0  0
 20 21  2  0  0  0  0
 21 22  1  0  0  0  0
 22 19  2  0  0  0  0
 22 24  1  0  0  0  0
 23 21  1  0  0  0  0
 23 25  1  0  0  0  0
 25 24  1  0  0  0  0
 26 20  1  0  0  0  0
 27 26  1  0  0  0  0
 28 34  1  0  0  0  0
 29 28  2  0  0  0  0
 29 30  1  0  0  0  0
 30 31  2  0  0  0  0
 31 33  1  0  0  0  0
 31 32  1  0  0  0  0
 34 33  2  0  0  0  0
M  END
>  <Pose>
1

>  <Score>
-7.099

$$$$
