MODEL 1
REMARK VINA RESULT:    -7.956      0.000      0.000
REMARK INTER + INTRA:         -10.071
REMARK INTER:                  -9.351
REMARK INTRA:                  -0.720
REMARK UNBOUND:                -0.720
REMARK  3 active torsions:
REMARK  status: ('A' for Active; 'I' for Inactive)
REMARK    1  A    between atoms: C_6  and  C_7 
REMARK       I    between atoms: C_7  and  N_9 
REMARK    2  A    between atoms: N_9  and  C_10 
REMARK    3  A    between atoms: C_16  and  N_19 
ROOT
ATOM      1  C   UNK d   1      23.083  10.646  30.349  0.00  0.00     0.069 A 
ATOM      2  C   UNK d   1      23.664  11.774  29.760  0.00  0.00     0.146 A 
ATOM      3  N   UNK d   1      24.543  11.898  28.751  0.00  0.00    -0.101 NA
ATOM      4  O   UNK d   1      24.784  13.163  28.568  0.00  0.00    -0.106 OA
ATOM      5  N   UNK d   1      24.104  13.877  29.410  0.00  0.00    -0.101 NA
ATOM      6  C   UNK d   1      23.382  13.045  30.185  0.00  0.00     0.146 A 
ATOM      7  C   UNK d   1      22.499  13.241  31.225  0.00  0.00     0.064 A 
ATOM      8  C   UNK d   1      21.933  12.128  31.795  0.00  0.00     0.034 A 
ATOM      9  C   UNK d   1      22.216  10.824  31.369  0.00  0.00     0.034 A 
ENDROOT
BRANCH   1  10
ATOM     10  N   UNK d   1      23.448   9.383  29.829  0.00  0.00    -0.319 N 
ATOM     11  C   UNK d   1      24.491   8.571  30.252  0.00  0.00     0.278 C 
ATOM     12  O   UNK d   1      25.246   8.952  31.212  0.00  0.00    -0.265 OA
ATOM     13  H   UNK d   1      22.879   8.996  29.012  0.00  0.00     0.169 HD
BRANCH  11  14
ATOM     14  C   UNK d   1      24.825   7.257  29.672  0.00  0.00     0.162 A 
ATOM     15  C   UNK d   1      24.260   6.036  29.800  0.00  0.00     0.059 A 
ATOM     16  I   UNK d   1      22.635   5.473  30.978  0.00  0.00    -0.040 I 
ATOM     17  C   UNK d   1      24.983   5.158  28.993  0.00  0.00     0.132 A 
ATOM     18  N   UNK d   1      25.960   5.842  28.396  0.00  0.00    -0.283 N 
ATOM     19  N   UNK d   1      25.871   7.081  28.795  0.00  0.00    -0.166 NA
ATOM     20  C   UNK d   1      26.940   5.267  27.465  0.00  0.00     0.179 C 
ENDBRANCH  11  14
ENDBRANCH   1  10
BRANCH   7  21
ATOM     21  N   UNK d   1      22.219  14.564  31.650  0.00  0.00    -0.375 N 
ATOM     22  C   UNK d   1      22.931  15.145  32.770  0.00  0.00     0.149 C 
ATOM     23  C   UNK d   1      22.497  16.559  32.939  0.00  0.00     0.187 C 
ATOM     24  O   UNK d   1      22.508  17.300  31.774  0.00  0.00    -0.388 OA
ATOM     25  C   UNK d   1      21.758  16.795  30.760  0.00  0.00     0.187 C 
ATOM     26  C   UNK d   1      21.228  15.405  31.008  0.00  0.00     0.149 C 
ENDBRANCH   7  21
TORSDOF 3
ENDMDL
