MODEL 1
REMARK VINA RESULT:    -8.608      0.000      0.000
REMARK INTER + INTRA:         -11.911
REMARK INTER:                 -11.124
REMARK INTRA:                  -0.787
REMARK UNBOUND:                -0.787
REMARK  6 active torsions:
REMARK  status: ('A' for Active; 'I' for Inactive)
REMARK    1  A    between atoms: N_5  and  C_7 
REMARK    2  A    between atoms: C_9  and  C_13 
REMARK    3  A    between atoms: C_10  and  O_12 
REMARK    4  A    between atoms: C_13  and  O_14 
REMARK    5  A    between atoms: C_18  and  N_19 
REMARK       I    between atoms: N_19  and  C_20 
REMARK    6  A    between atoms: C_20  and  C_22 
ROOT
ATOM      1  I   UNK d   1      22.758   5.232  31.050  0.00  0.00    -0.042 I 
ATOM      2  C   UNK d   1      24.389   6.172  30.102  0.00  0.00     0.040 A 
ATOM      3  C   UNK d   1      24.761   7.477  30.238  0.00  0.00     0.074 A 
ATOM      4  C   UNK d   1      25.883   7.608  29.418  0.00  0.00     0.148 A 
ATOM      5  N   UNK d   1      26.190   6.459  28.813  0.00  0.00    -0.312 N 
ATOM      6  C   UNK d   1      25.280   5.576  29.226  0.00  0.00     0.114 A 
ATOM      7  N   UNK d   1      26.471   8.814  29.357  0.00  0.00    -0.223 NA
ATOM      8  C   UNK d   1      25.995   9.855  30.058  0.00  0.00     0.237 A 
ATOM      9  N   UNK d   1      24.920   9.726  30.841  0.00  0.00    -0.223 NA
ATOM     10  C   UNK d   1      24.259   8.533  30.963  0.00  0.00     0.147 A 
ENDROOT
BRANCH   5  11
ATOM     11  C   UNK d   1      27.260   6.182  27.903  0.00  0.00     0.232 C 
ATOM     12  O   UNK d   1      27.368   7.105  26.870  0.00  0.00    -0.356 OA
ATOM     13  C   UNK d   1      28.364   6.547  26.073  0.00  0.00     0.176 C 
ATOM     14  C   UNK d   1      28.121   5.056  26.045  0.00  0.00     0.153 C 
ATOM     15  C   UNK d   1      27.030   4.893  27.110  0.00  0.00     0.088 C 
BRANCH  13  16
ATOM     16  C   UNK d   1      28.209   7.036  24.626  0.00  0.00     0.198 C 
BRANCH  16  17
ATOM     17  O   UNK d   1      28.290   5.932  23.767  0.00  0.00    -0.398 OA
ATOM     18  H   UNK d   1      28.877   6.139  22.974  0.00  0.00     0.209 HD
ENDBRANCH  16  17
ENDBRANCH  13  16
BRANCH  14  19
ATOM     19  O   UNK d   1      29.227   4.343  26.509  0.00  0.00    -0.393 OA
ATOM     20  H   UNK d   1      28.884   3.794  27.280  0.00  0.00     0.210 HD
ENDBRANCH  14  19
ENDBRANCH   5  11
BRANCH  10  21
ATOM     21  N   UNK d   1      23.119   8.454  31.812  0.00  0.00    -0.306 N 
ATOM     22  C   UNK d   1      21.881   8.981  31.343  0.00  0.00     0.257 C 
ATOM     23  O   UNK d   1      21.870   9.490  30.193  0.00  0.00    -0.267 OA
ATOM     24  H   UNK d   1      23.101   8.046  32.751  0.00  0.00     0.170 HD
BRANCH  22  25
ATOM     25  C   UNK d   1      20.657   8.968  32.095  0.00  0.00     0.032 A 
ATOM     26  C   UNK d   1      19.798   7.905  32.036  0.00  0.00     0.017 A 
ATOM     27  C   UNK d   1      18.606   7.875  32.763  0.00  0.00     0.001 A 
ATOM     28  C   UNK d   1      18.281   8.934  33.559  0.00  0.00     0.000 A 
ATOM     29  C   UNK d   1      19.122  10.013  33.638  0.00  0.00     0.001 A 
ATOM     30  C   UNK d   1      20.311  10.022  32.901  0.00  0.00     0.017 A 
ENDBRANCH  22  25
ENDBRANCH  10  21
TORSDOF 6
ENDMDL
