MODEL 1
REMARK VINA RESULT:    -9.818      0.000      0.000
REMARK INTER + INTRA:         -11.916
REMARK INTER:                 -11.540
REMARK INTRA:                  -0.376
REMARK UNBOUND:                -0.376
REMARK  3 active torsions:
REMARK  status: ('A' for Active; 'I' for Inactive)
REMARK    1  A    between atoms: C_7  and  C_8 
REMARK    2  A    between atoms: C_9  and  C_10 
REMARK    3  A    between atoms: C_16  and  C_19 
ROOT
ATOM      1  C   UNK d   1      21.077  10.875  32.374  0.00  0.00     0.065 A 
ATOM      2  N   UNK d   1      20.116  10.961  33.262  0.00  0.00    -0.359 N 
ATOM      3  C   UNK d   1      19.539  12.171  33.528  0.00  0.00     0.093 A 
ATOM      4  C   UNK d   1      19.899  13.333  32.917  0.00  0.00     0.049 A 
ATOM      5  C   UNK d   1      20.904  13.282  31.976  0.00  0.00     0.068 A 
ATOM      6  N   UNK d   1      21.521  14.218  31.175  0.00  0.00    -0.333 N 
ATOM      7  C   UNK d   1      22.446  13.624  30.439  0.00  0.00     0.141 A 
ATOM      8  N   UNK d   1      22.407  12.307  30.780  0.00  0.00    -0.226 NA
ATOM      9  C   UNK d   1      21.478  12.072  31.714  0.00  0.00     0.113 A 
ATOM     10  C   UNK d   1      21.106  15.591  31.217  0.00  0.00     0.158 C 
ATOM     11  C   UNK d   1      19.580   9.810  33.927  0.00  0.00     0.156 C 
ENDROOT
BRANCH   1  12
ATOM     12  C   UNK d   1      21.860   9.697  32.049  0.00  0.00     0.033 C 
ATOM     13  C   UNK d   1      21.831   8.888  31.049  0.00  0.00     0.015 C 
BRANCH  13  14
ATOM     14  C   UNK d   1      22.616   7.721  30.718  0.00  0.00    -0.016 A 
ATOM     15  C   UNK d   1      22.319   6.432  31.013  0.00  0.00     0.024 A 
ATOM     16 Br   UNK d   1      20.807   6.008  32.093  0.00  0.00    -0.050 Br
ATOM     17  C   UNK d   1      23.133   5.354  30.582  0.00  0.00     0.059 A 
ATOM     18  C   UNK d   1      24.262   5.584  29.844  0.00  0.00     0.106 A 
ATOM     19  C   UNK d   1      24.590   6.885  29.531  0.00  0.00     0.105 A 
ATOM     20  O   UNK d   1      25.252   4.774  29.279  0.00  0.00    -0.323 OA
ATOM     21  C   UNK d   1      23.793   7.924  29.954  0.00  0.00     0.052 A 
ATOM     22  O   UNK d   1      25.777   6.841  28.780  0.00  0.00    -0.323 OA
ATOM     23  C   UNK d   1      25.845   5.541  28.232  0.00  0.00     0.352 C 
ENDBRANCH  13  14
ENDBRANCH   1  12
BRANCH   7  24
ATOM     24  C   UNK d   1      23.342  14.200  29.429  0.00  0.00     0.010 A 
ATOM     25  C   UNK d   1      23.229  15.442  28.899  0.00  0.00     0.015 A 
ATOM     26  C   UNK d   1      24.134  15.876  27.912  0.00  0.00     0.001 A 
ATOM     27  C   UNK d   1      25.140  15.043  27.479  0.00  0.00     0.000 A 
ATOM     28  C   UNK d   1      25.279  13.766  28.006  0.00  0.00     0.001 A 
ATOM     29  C   UNK d   1      24.386  13.388  28.954  0.00  0.00     0.015 A 
ENDBRANCH   7  24
TORSDOF 3
ENDMDL
