/Users/jonathanwahrer/Desktop/Msc/3_Semester/Drug_Design_Praktikum/waehrer_HTS_screening/HTS_experiment/out/docking_results/vina_output/3elj/0961_docked.pdbqt
 OpenBabel03192217583D

 29 33  0  0  1  0  0  0  0  0999 V2000
   21.0770   10.8750   32.3740 C   0  0  1  0  0  3  0  0  0  0  0  0
   20.1160   10.9610   33.2620 N   0  0  0  0  0  0  0  0  0  0  0  0
   19.5390   12.1710   33.5280 C   0  0  0  0  0  3  0  0  0  0  0  0
   19.8990   13.3330   32.9170 C   0  0  0  0  0  3  0  0  0  0  0  0
   20.9040   13.2820   31.9760 C   0  0  0  0  0  0  0  0  0  0  0  0
   21.5210   14.2180   31.1750 N   0  0  0  0  0  0  0  0  0  0  0  0
   22.4460   13.6240   30.4390 C   0  0  0  0  0  0  0  0  0  0  0  0
   22.4070   12.3070   30.7800 N   0  0  0  0  0  0  0  0  0  0  0  0
   21.4780   12.0720   31.7140 C   0  0  0  0  0  0  0  0  0  0  0  0
   21.1060   15.5910   31.2170 C   0  0  0  0  0  1  0  0  0  0  0  0
   19.5800    9.8100   33.9270 C   0  0  0  0  0  1  0  0  0  0  0  0
   21.8600    9.6970   32.0490 C   0  0  0  0  0  3  0  0  0  0  0  0
   21.8310    8.8880   31.0490 C   0  0  0  0  0  3  0  0  0  0  0  0
   22.6160    7.7210   30.7180 C   0  0  0  0  0  0  0  0  0  0  0  0
   22.3190    6.4320   31.0130 C   0  0  0  0  0  0  0  0  0  0  0  0
   20.8070    6.0080   32.0930 Br  0  0  0  0  0  0  0  0  0  0  0  0
   23.1330    5.3540   30.5820 C   0  0  0  0  0  3  0  0  0  0  0  0
   24.2620    5.5840   29.8440 C   0  0  0  0  0  0  0  0  0  0  0  0
   24.5900    6.8850   29.5310 C   0  0  0  0  0  0  0  0  0  0  0  0
   25.2520    4.7740   29.2790 O   0  0  0  0  0  0  0  0  0  0  0  0
   23.7930    7.9240   29.9540 C   0  0  0  0  0  3  0  0  0  0  0  0
   25.7770    6.8410   28.7800 O   0  0  0  0  0  0  0  0  0  0  0  0
   25.8450    5.5410   28.2320 C   0  0  0  0  0  2  0  0  0  0  0  0
   23.3420   14.2000   29.4290 C   0  0  0  0  0  0  0  0  0  0  0  0
   23.2290   15.4420   28.8990 C   0  0  0  0  0  3  0  0  0  0  0  0
   24.1340   15.8760   27.9120 C   0  0  0  0  0  3  0  0  0  0  0  0
   25.1400   15.0430   27.4790 C   0  0  0  0  0  3  0  0  0  0  0  0
   25.2790   13.7660   28.0060 C   0  0  0  0  0  3  0  0  0  0  0  0
   24.3860   13.3880   28.9540 C   0  0  0  0  0  3  0  0  0  0  0  0
  1 12  1  1  0  0  0
  1  2  1  0  0  0  0
  2  3  1  0  0  0  0
  2 11  1  0  0  0  0
  4  3  2  0  0  0  0
  5  4  1  0  0  0  0
  6 10  1  0  0  0  0
  6  5  1  0  0  0  0
  7  8  2  0  0  0  0
  7  6  1  0  0  0  0
  8  9  1  0  0  0  0
  9  5  2  0  0  0  0
  9  1  1  0  0  0  0
 13 12  2  0  0  0  0
 14 15  1  0  0  0  0
 14 13  1  0  0  0  0
 15 16  1  0  0  0  0
 17 15  2  0  0  0  0
 18 17  1  0  0  0  0
 19 18  2  0  0  0  0
 19 21  1  0  0  0  0
 20 18  1  0  0  0  0
 21 14  2  0  0  0  0
 22 19  1  0  0  0  0
 23 22  1  0  0  0  0
 23 20  1  0  0  0  0
 24  7  1  0  0  0  0
 25 24  2  0  0  0  0
 26 25  1  0  0  0  0
 27 26  2  0  0  0  0
 27 28  1  0  0  0  0
 28 29  2  0  0  0  0
 29 24  1  0  0  0  0
M  END
>  <Pose>
1

>  <Score>
-9.818

$$$$
