MODEL 1
REMARK VINA RESULT:    -6.229      0.000      0.000
REMARK INTER + INTRA:          -7.868
REMARK INTER:                  -6.957
REMARK INTRA:                  -0.911
REMARK UNBOUND:                -0.911
REMARK  2 active torsions:
REMARK  status: ('A' for Active; 'I' for Inactive)
REMARK    1  A    between atoms: C_10  and  C_21 
REMARK    2  A    between atoms: C_26  and  C_27 
ROOT
ATOM      1 Br   UNK d   1      23.886   6.339  30.448  0.00  0.00    -0.045 Br
ATOM      2  C   UNK d   1      24.843   7.968  30.238  0.00  0.00     0.083 A 
ATOM      3  C   UNK d   1      25.951   8.102  29.405  0.00  0.00     0.107 A 
ATOM      4  C   UNK d   1      26.615   9.311  29.287  0.00  0.00     0.013 A 
ATOM      5  C   UNK d   1      26.183  10.410  30.001  0.00  0.00     0.037 A 
ATOM      6  C   UNK d   1      25.096  10.288  30.821  0.00  0.00     0.049 A 
ATOM      7  C   UNK d   1      24.443   9.086  30.933  0.00  0.00     0.144 A 
ATOM      8  O   UNK d   1      23.332   9.039  31.796  0.00  0.00    -0.189 OA
ATOM      9 Br   UNK d   1      24.546  11.855  31.784  0.00  0.00    -0.048 Br
ATOM     10  C   UNK d   1      27.714   9.470  28.470  0.00  0.00     0.003 A 
ATOM     11  C   UNK d   1      28.139   8.368  27.759  0.00  0.00     0.013 A 
ATOM     12  C   UNK d   1      27.376   7.127  27.946  0.00  0.00     0.108 A 
ATOM     13  C   UNK d   1      27.820   6.020  27.221  0.00  0.00     0.097 A 
ATOM     14  C   UNK d   1      28.911   6.118  26.388  0.00  0.00     0.209 A 
ATOM     15  O   UNK d   1      29.273   5.094  25.755  0.00  0.00    -0.285 OA
ATOM     16  C   UNK d   1      29.613   7.309  26.233  0.00  0.00     0.063 A 
ATOM     17  C   UNK d   1      29.234   8.430  26.912  0.00  0.00     0.038 A 
ATOM     18 Br   UNK d   1      31.117   7.355  25.055  0.00  0.00    -0.047 Br
ATOM     19 Br   UNK d   1      26.869   4.362  27.418  0.00  0.00    -0.044 Br
ATOM     20  O   UNK d   1      26.336   7.042  28.741  0.00  0.00    -0.306 OA
ENDROOT
BRANCH  10  21
ATOM     21  C   UNK d   1      28.419  10.748  28.353  0.00  0.00     0.016 A 
ATOM     22  C   UNK d   1      29.538  11.008  29.123  0.00  0.00     0.046 A 
ATOM     23  C   UNK d   1      30.216  12.205  29.036  0.00  0.00     0.026 A 
ATOM     24 Cl   UNK d   1      30.107   9.768  30.246  0.00  0.00    -0.083 Cl
ATOM     25  C   UNK d   1      29.757  13.160  28.152  0.00  0.00     0.026 A 
ATOM     26  C   UNK d   1      28.660  12.945  27.375  0.00  0.00     0.052 A 
ATOM     27  C   UNK d   1      27.994  11.743  27.477  0.00  0.00     0.075 A 
ATOM     28 Cl   UNK d   1      28.145  14.215  26.277  0.00  0.00    -0.083 Cl
BRANCH  27  29
ATOM     29  C   UNK d   1      26.827  11.510  26.661  0.00  0.00     0.212 C 
ATOM     30  O   UNK d   1      26.897  10.968  25.523  0.00  0.00    -0.644 OA
ATOM     31  O   UNK d   1      25.564  11.883  27.114  0.00  0.00    -0.644 OA
ENDBRANCH  27  29
ENDBRANCH  10  21
TORSDOF 2
ENDMDL
