/Users/jonathanwahrer/Desktop/Msc/3_Semester/Drug_Design_Praktikum/waehrer_HTS_screening/HTS_experiment/out/docking_results/vina_output/3elj/0969_docked.pdbqt
 OpenBabel03192217593D

 31 34  0  0  1  0  0  0  0  0999 V2000
   23.8860    6.3390   30.4480 Br  0  0  0  0  0  0  0  0  0  0  0  0
   24.8430    7.9680   30.2380 C   0  0  0  0  0  0  0  0  0  0  0  0
   25.9510    8.1020   29.4050 C   0  0  2  0  0  3  0  0  0  0  0  0
   26.6150    9.3110   29.2870 C   0  0  0  0  0  0  0  0  0  0  0  0
   26.1830   10.4100   30.0010 C   0  0  0  0  0  3  0  0  0  0  0  0
   25.0960   10.2880   30.8210 C   0  0  0  0  0  0  0  0  0  0  0  0
   24.4430    9.0860   30.9330 C   0  0  0  0  0  0  0  0  0  0  0  0
   23.3320    9.0390   31.7960 O   0  0  0  0  0  1  0  0  0  0  0  0
   24.5460   11.8550   31.7840 Br  0  0  0  0  0  0  0  0  0  0  0  0
   27.7140    9.4700   28.4700 C   0  0  0  0  0  0  0  0  0  0  0  0
   28.1390    8.3680   27.7590 C   0  0  0  0  0  0  0  0  0  0  0  0
   27.3760    7.1270   27.9460 C   0  0  0  0  0  0  0  0  0  0  0  0
   27.8200    6.0200   27.2210 C   0  0  1  0  0  3  0  0  0  0  0  0
   28.9110    6.1180   26.3880 C   0  0  0  0  0  0  0  0  0  0  0  0
   29.2730    5.0940   25.7550 O   0  0  0  0  0  0  0  0  0  0  0  0
   29.6130    7.3090   26.2330 C   0  0  0  0  0  0  0  0  0  0  0  0
   29.2340    8.4300   26.9120 C   0  0  0  0  0  3  0  0  0  0  0  0
   31.1170    7.3550   25.0550 Br  0  0  0  0  0  0  0  0  0  0  0  0
   26.8690    4.3620   27.4180 Br  0  0  0  0  0  0  0  0  0  0  0  0
   26.3360    7.0420   28.7410 O   0  0  0  0  0  0  0  0  0  0  0  0
   28.4190   10.7480   28.3530 C   0  0  0  0  0  0  0  0  0  0  0  0
   29.5380   11.0080   29.1230 C   0  0  0  0  0  0  0  0  0  0  0  0
   30.2160   12.2050   29.0360 C   0  0  0  0  0  3  0  0  0  0  0  0
   30.1070    9.7680   30.2460 Cl  0  0  0  0  0  0  0  0  0  0  0  0
   29.7570   13.1600   28.1520 C   0  0  0  0  0  3  0  0  0  0  0  0
   28.6600   12.9450   27.3750 C   0  0  0  0  0  0  0  0  0  0  0  0
   27.9940   11.7430   27.4770 C   0  0  0  0  0  0  0  0  0  0  0  0
   28.1450   14.2150   26.2770 Cl  0  0  0  0  0  0  0  0  0  0  0  0
   26.8270   11.5100   26.6610 C   0  0  0  0  0  0  0  0  0  0  0  0
   26.8970   10.9680   25.5230 O   0  0  0  0  0  0  0  0  0  0  0  0
   25.5640   11.8830   27.1140 O   0  0  0  0  0  1  0  0  0  0  0  0
  2  1  1  0  0  0  0
  2  7  2  0  0  0  0
  3 20  1  6  0  0  0
  3  2  1  0  0  0  0
  4  3  1  0  0  0  0
  4  5  1  0  0  0  0
  5  6  2  0  0  0  0
  6  7  1  0  0  0  0
  6  9  1  0  0  0  0
  7  8  1  0  0  0  0
 10  4  2  0  0  0  0
 11 12  2  0  0  0  0
 11 10  1  0  0  0  0
 12 20  1  0  0  0  0
 13 19  1  1  0  0  0
 13 12  1  0  0  0  0
 14 13  1  0  0  0  0
 15 14  2  0  0  0  0
 16 14  1  0  0  0  0
 16 17  2  0  0  0  0
 17 11  1  0  0  0  0
 18 16  1  0  0  0  0
 21 10  1  0  0  0  0
 21 22  1  0  0  0  0
 22 24  1  0  0  0  0
 23 22  2  0  0  0  0
 25 23  1  0  0  0  0
 26 27  1  0  0  0  0
 26 25  2  0  0  0  0
 27 21  2  0  0  0  0
 28 26  1  0  0  0  0
 29 31  1  0  0  0  0
 29 27  1  0  0  0  0
 30 29  2  0  0  0  0
M  END
>  <Pose>
1

>  <Score>
-6.229

$$$$
