MODEL 1
REMARK VINA RESULT:    -7.854      0.000      0.000
REMARK INTER + INTRA:          -7.854
REMARK INTER:                  -7.854
REMARK INTRA:                   0.000
REMARK UNBOUND:                 0.000
REMARK  0 active torsions:
REMARK  status: ('A' for Active; 'I' for Inactive)
ROOT
ATOM      1 Br   UNK d   1      23.751  16.305  27.958  0.00  0.00    -0.045 Br
ATOM      2  C   UNK d   1      23.303  14.968  29.243  0.00  0.00     0.083 A 
ATOM      3  C   UNK d   1      23.999  13.746  29.304  0.00  0.00     0.106 A 
ATOM      4  C   UNK d   1      23.709  12.765  30.206  0.00  0.00     0.023 A 
ATOM      5  C   UNK d   1      22.668  13.004  31.106  0.00  0.00     0.036 A 
ATOM      6  C   UNK d   1      21.995  14.188  31.047  0.00  0.00     0.049 A 
ATOM      7  C   UNK d   1      22.283  15.184  30.137  0.00  0.00     0.144 A 
ATOM      8  O   UNK d   1      21.546  16.380  30.134  0.00  0.00    -0.189 OA
ATOM      9 Br   UNK d   1      20.572  14.522  32.273  0.00  0.00    -0.048 Br
ATOM     10  C   UNK d   1      24.448  11.510  30.245  0.00  0.00     0.159 A 
ATOM     11  O   UNK d   1      25.094  11.457  31.515  0.00  0.00    -0.291 OA
ATOM     12  C   UNK d   1      24.685  10.383  32.256  0.00  0.00     0.295 A 
ATOM     13  O   UNK d   1      25.090  10.095  33.406  0.00  0.00    -0.259 OA
ATOM     14  C   UNK d   1      23.715   9.681  31.439  0.00  0.00     0.049 A 
ATOM     15  C   UNK d   1      23.546  10.323  30.233  0.00  0.00     0.003 A 
ATOM     16  C   UNK d   1      22.669   9.795  29.344  0.00  0.00     0.012 A 
ATOM     17  C   UNK d   1      21.974   8.646  29.661  0.00  0.00     0.001 A 
ATOM     18  C   UNK d   1      22.140   8.001  30.868  0.00  0.00     0.001 A 
ATOM     19  C   UNK d   1      23.023   8.522  31.776  0.00  0.00     0.018 A 
ATOM     20  C   UNK d   1      25.502  11.416  29.240  0.00  0.00     0.023 A 
ATOM     21  C   UNK d   1      25.745  12.435  28.361  0.00  0.00     0.106 A 
ATOM     22  C   UNK d   1      26.768  12.326  27.397  0.00  0.00     0.083 A 
ATOM     23  C   UNK d   1      27.520  11.176  27.356  0.00  0.00     0.144 A 
ATOM     24  C   UNK d   1      27.280  10.138  28.245  0.00  0.00     0.049 A 
ATOM     25  C   UNK d   1      26.286  10.250  29.176  0.00  0.00     0.036 A 
ATOM     26 Br   UNK d   1      28.313   8.538  28.200  0.00  0.00    -0.048 Br
ATOM     27  O   UNK d   1      28.523  11.082  26.404  0.00  0.00    -0.189 OA
ATOM     28 Br   UNK d   1      27.078  13.773  26.184  0.00  0.00    -0.045 Br
ATOM     29  O   UNK d   1      25.018  13.617  28.357  0.00  0.00    -0.306 OA
ENDROOT
TORSDOF 0
ENDMDL
