/Users/jonathanwahrer/Desktop/Msc/3_Semester/Drug_Design_Praktikum/waehrer_HTS_screening/HTS_experiment/out/docking_results/vina_output/3elj/0971_docked.pdbqt
 OpenBabel03192217593D

 29 33  0  0  1  0  0  0  0  0999 V2000
   23.7510   16.3050   27.9580 Br  0  0  0  0  0  0  0  0  0  0  0  0
   23.3030   14.9680   29.2430 C   0  0  0  0  0  0  0  0  0  0  0  0
   23.9990   13.7460   29.3040 C   0  0  0  0  0  0  0  0  0  0  0  0
   23.7090   12.7650   30.2060 C   0  0  0  0  0  0  0  0  0  0  0  0
   22.6680   13.0040   31.1060 C   0  0  0  0  0  3  0  0  0  0  0  0
   21.9950   14.1880   31.0470 C   0  0  0  0  0  0  0  0  0  0  0  0
   22.2830   15.1840   30.1370 C   0  0  0  0  0  0  0  0  0  0  0  0
   21.5460   16.3800   30.1340 O   0  0  0  0  0  1  0  0  0  0  0  0
   20.5720   14.5220   32.2730 Br  0  0  0  0  0  0  0  0  0  0  0  0
   24.4480   11.5100   30.2450 C   0  0  1  0  0  0  0  0  0  0  0  0
   25.0940   11.4570   31.5150 O   0  0  0  0  0  0  0  0  0  0  0  0
   24.6850   10.3830   32.2560 C   0  0  0  0  0  0  0  0  0  0  0  0
   25.0900   10.0950   33.4060 O   0  0  0  0  0  0  0  0  0  0  0  0
   23.7150    9.6810   31.4390 C   0  0  0  0  0  0  0  0  0  0  0  0
   23.5460   10.3230   30.2330 C   0  0  0  0  0  0  0  0  0  0  0  0
   22.6690    9.7950   29.3440 C   0  0  0  0  0  3  0  0  0  0  0  0
   21.9740    8.6460   29.6610 C   0  0  0  0  0  3  0  0  0  0  0  0
   22.1400    8.0010   30.8680 C   0  0  0  0  0  3  0  0  0  0  0  0
   23.0230    8.5220   31.7760 C   0  0  0  0  0  3  0  0  0  0  0  0
   25.5020   11.4160   29.2400 C   0  0  0  0  0  0  0  0  0  0  0  0
   25.7450   12.4350   28.3610 C   0  0  0  0  0  0  0  0  0  0  0  0
   26.7680   12.3260   27.3970 C   0  0  0  0  0  0  0  0  0  0  0  0
   27.5200   11.1760   27.3560 C   0  0  0  0  0  0  0  0  0  0  0  0
   27.2800   10.1380   28.2450 C   0  0  0  0  0  0  0  0  0  0  0  0
   26.2860   10.2500   29.1760 C   0  0  0  0  0  3  0  0  0  0  0  0
   28.3130    8.5380   28.2000 Br  0  0  0  0  0  0  0  0  0  0  0  0
   28.5230   11.0820   26.4040 O   0  0  0  0  0  1  0  0  0  0  0  0
   27.0780   13.7730   26.1840 Br  0  0  0  0  0  0  0  0  0  0  0  0
   25.0180   13.6170   28.3570 O   0  0  0  0  0  0  0  0  0  0  0  0
  1  2  1  0  0  0  0
  2  3  2  0  0  0  0
  2  7  1  0  0  0  0
  3  4  1  0  0  0  0
  4 10  1  0  0  0  0
  4  5  2  0  0  0  0
  6  5  1  0  0  0  0
  6  9  1  0  0  0  0
  7  6  2  0  0  0  0
  8  7  1  0  0  0  0
 10 20  1  6  0  0  0
 10 11  1  0  0  0  0
 11 12  1  0  0  0  0
 12 13  2  0  0  0  0
 14 19  1  0  0  0  0
 14 12  1  0  0  0  0
 15 10  1  0  0  0  0
 15 14  2  0  0  0  0
 16 17  2  0  0  0  0
 16 15  1  0  0  0  0
 17 18  1  0  0  0  0
 18 19  2  0  0  0  0
 21 20  2  0  0  0  0
 22 21  1  0  0  0  0
 23 22  2  0  0  0  0
 23 24  1  0  0  0  0
 24 25  2  0  0  0  0
 25 20  1  0  0  0  0
 26 24  1  0  0  0  0
 27 23  1  0  0  0  0
 28 22  1  0  0  0  0
 29 21  1  0  0  0  0
 29  3  1  0  0  0  0
M  END
>  <Pose>
1

>  <Score>
-7.854

$$$$
