MODEL 1
REMARK VINA RESULT:    -6.320      0.000      0.000
REMARK INTER + INTRA:          -6.320
REMARK INTER:                  -6.320
REMARK INTRA:                   0.000
REMARK UNBOUND:                 0.000
REMARK  0 active torsions:
REMARK  status: ('A' for Active; 'I' for Inactive)
ROOT
ATOM      1  I   UNK d   1      27.750   4.488  27.279  0.00  0.00    -0.038 I 
ATOM      2  C   UNK d   1      28.391   6.418  26.708  0.00  0.00     0.078 A 
ATOM      3  C   UNK d   1      27.829   7.498  27.381  0.00  0.00     0.105 A 
ATOM      4  C   UNK d   1      28.221   8.750  27.037  0.00  0.00     0.023 A 
ATOM      5  C   UNK d   1      29.169   8.911  26.022  0.00  0.00     0.035 A 
ATOM      6  C   UNK d   1      29.730   7.847  25.350  0.00  0.00     0.045 A 
ATOM      7  C   UNK d   1      29.327   6.576  25.707  0.00  0.00     0.143 A 
ATOM      8  O   UNK d   1      29.878   5.491  25.043  0.00  0.00    -0.189 OA
ATOM      9  I   UNK d   1      31.165   8.145  23.818  0.00  0.00    -0.042 I 
ATOM     10  C   UNK d   1      27.700   9.945  27.674  0.00  0.00     0.161 A 
ATOM     11  O   UNK d   1      27.059  10.808  26.723  0.00  0.00    -0.291 OA
ATOM     12  C   UNK d   1      27.624  12.056  26.695  0.00  0.00     0.297 A 
ATOM     13  O   UNK d   1      27.323  13.062  25.989  0.00  0.00    -0.259 OA
ATOM     14  C   UNK d   1      28.699  12.039  27.675  0.00  0.00     0.074 A 
ATOM     15  C   UNK d   1      28.747  10.805  28.250  0.00  0.00     0.028 A 
ATOM     16  C   UNK d   1      29.697  10.520  29.231  0.00  0.00     0.068 A 
ATOM     17  C   UNK d   1      30.604  11.474  29.641  0.00  0.00     0.080 A 
ATOM     18  C   UNK d   1      30.553  12.734  29.052  0.00  0.00     0.080 A 
ATOM     19  C   UNK d   1      29.620  13.018  28.087  0.00  0.00     0.074 A 
ATOM     20 Cl   UNK d   1      29.571  14.582  27.368  0.00  0.00    -0.081 Cl
ATOM     21 Cl   UNK d   1      31.670  13.983  29.526  0.00  0.00    -0.081 Cl
ATOM     22 Cl   UNK d   1      31.780  11.082  30.874  0.00  0.00    -0.081 Cl
ATOM     23 Cl   UNK d   1      29.701   8.931  29.920  0.00  0.00    -0.082 Cl
ATOM     24  C   UNK d   1      26.703   9.625  28.731  0.00  0.00     0.023 A 
ATOM     25  C   UNK d   1      26.335   8.362  29.050  0.00  0.00     0.105 A 
ATOM     26  C   UNK d   1      25.390   8.204  30.061  0.00  0.00     0.078 A 
ATOM     27  C   UNK d   1      24.829   9.266  30.733  0.00  0.00     0.143 A 
ATOM     28  C   UNK d   1      25.229  10.540  30.381  0.00  0.00     0.045 A 
ATOM     29  C   UNK d   1      26.156  10.733  29.390  0.00  0.00     0.035 A 
ATOM     30  I   UNK d   1      24.388  12.186  31.392  0.00  0.00    -0.042 I 
ATOM     31  O   UNK d   1      23.899   9.110  31.729  0.00  0.00    -0.189 OA
ATOM     32  I   UNK d   1      24.811   6.250  30.565  0.00  0.00    -0.038 I 
ATOM     33  O   UNK d   1      26.878   7.271  28.395  0.00  0.00    -0.307 OA
ENDROOT
TORSDOF 0
ENDMDL
