MODEL 1
REMARK VINA RESULT:    -6.880      0.000      0.000
REMARK INTER + INTRA:          -6.880
REMARK INTER:                  -6.880
REMARK INTRA:                   0.000
REMARK UNBOUND:                 0.000
REMARK  0 active torsions:
REMARK  status: ('A' for Active; 'I' for Inactive)
ROOT
ATOM      1  I   UNK d   1      23.246   6.977  30.057  0.00  0.00    -0.038 I 
ATOM      2  C   UNK d   1      24.331   8.796  30.013  0.00  0.00     0.078 A 
ATOM      3  C   UNK d   1      25.627   8.732  29.472  0.00  0.00     0.105 A 
ATOM      4  C   UNK d   1      26.344   9.886  29.432  0.00  0.00     0.023 A 
ATOM      5  C   UNK d   1      25.769  11.071  29.925  0.00  0.00     0.035 A 
ATOM      6  C   UNK d   1      24.505  11.131  30.451  0.00  0.00     0.045 A 
ATOM      7  C   UNK d   1      23.778   9.961  30.491  0.00  0.00     0.143 A 
ATOM      8  O   UNK d   1      22.495   9.986  31.018  0.00  0.00    -0.189 OA
ATOM      9  I   UNK d   1      23.699  12.952  31.176  0.00  0.00    -0.042 I 
ATOM     10  C   UNK d   1      27.706   9.922  28.886  0.00  0.00     0.159 A 
ATOM     11  O   UNK d   1      28.622  10.502  29.796  0.00  0.00    -0.291 OA
ATOM     12  C   UNK d   1      29.216  11.629  29.294  0.00  0.00     0.295 A 
ATOM     13  O   UNK d   1      30.070  12.381  29.835  0.00  0.00    -0.259 OA
ATOM     14  C   UNK d   1      28.677  11.838  27.957  0.00  0.00     0.049 A 
ATOM     15  C   UNK d   1      27.789  10.842  27.709  0.00  0.00     0.003 A 
ATOM     16  C   UNK d   1      27.134  10.830  26.472  0.00  0.00     0.012 A 
ATOM     17  C   UNK d   1      27.393  11.809  25.541  0.00  0.00     0.001 A 
ATOM     18  C   UNK d   1      28.294  12.822  25.792  0.00  0.00     0.001 A 
ATOM     19  C   UNK d   1      28.943  12.844  27.002  0.00  0.00     0.018 A 
ATOM     20  C   UNK d   1      28.178   8.611  28.408  0.00  0.00     0.023 A 
ATOM     21  C   UNK d   1      27.414   7.497  28.475  0.00  0.00     0.105 A 
ATOM     22  C   UNK d   1      27.925   6.292  28.006  0.00  0.00     0.078 A 
ATOM     23  C   UNK d   1      29.184   6.225  27.479  0.00  0.00     0.143 A 
ATOM     24  C   UNK d   1      29.988   7.338  27.395  0.00  0.00     0.045 A 
ATOM     25  C   UNK d   1      29.464   8.511  27.864  0.00  0.00     0.035 A 
ATOM     26  I   UNK d   1      31.936   7.229  26.579  0.00  0.00    -0.042 I 
ATOM     27  O   UNK d   1      29.669   5.009  27.016  0.00  0.00    -0.189 OA
ATOM     28  I   UNK d   1      26.717   4.545  28.115  0.00  0.00    -0.038 I 
ATOM     29  O   UNK d   1      26.114   7.508  29.007  0.00  0.00    -0.307 OA
ENDROOT
TORSDOF 0
ENDMDL
