MODEL 1
REMARK VINA RESULT:    -8.146      0.000      0.000
REMARK INTER + INTRA:          -9.086
REMARK INTER:                  -9.098
REMARK INTRA:                   0.012
REMARK UNBOUND:                 0.012
REMARK  2 active torsions:
REMARK  status: ('A' for Active; 'I' for Inactive)
REMARK    1  A    between atoms: C_9  and  C_19 
REMARK    2  A    between atoms: C_20  and  C_25 
ROOT
ATOM      1  I   UNK d   1      20.137   7.240  32.437  0.00  0.00    -0.038 I 
ATOM      2  C   UNK d   1      20.213   9.325  32.730  0.00  0.00     0.077 A 
ATOM      3  C   UNK d   1      21.223  10.112  32.213  0.00  0.00     0.106 A 
ATOM      4  C   UNK d   1      21.276  11.476  32.404  0.00  0.00     0.011 A 
ATOM      5  C   UNK d   1      20.265  12.057  33.146  0.00  0.00     0.018 A 
ATOM      6  C   UNK d   1      19.247  11.275  33.669  0.00  0.00     0.042 A 
ATOM      7  C   UNK d   1      19.201   9.900  33.474  0.00  0.00     0.126 A 
ATOM      8  O   UNK d   1      18.155   9.162  34.021  0.00  0.00    -0.191 OA
ATOM      9  C   UNK d   1      22.276  12.280  31.894  0.00  0.00     0.001 A 
ATOM     10  C   UNK d   1      23.260  11.626  31.158  0.00  0.00     0.011 A 
ATOM     11  C   UNK d   1      23.168  10.180  30.979  0.00  0.00     0.107 A 
ATOM     12  C   UNK d   1      24.172   9.590  30.239  0.00  0.00     0.091 A 
ATOM     13  C   UNK d   1      25.215  10.303  29.688  0.00  0.00     0.191 A 
ATOM     14  O   UNK d   1      26.128   9.743  29.011  0.00  0.00    -0.287 OA
ATOM     15  C   UNK d   1      25.303  11.671  29.857  0.00  0.00     0.057 A 
ATOM     16  C   UNK d   1      24.313  12.291  30.592  0.00  0.00     0.019 A 
ATOM     17  I   UNK d   1      24.125   7.512  29.927  0.00  0.00    -0.037 I 
ATOM     18  O   UNK d   1      22.164   9.530  31.515  0.00  0.00    -0.306 OA
ENDROOT
BRANCH   9  19
ATOM     19  C   UNK d   1      22.336  13.724  32.094  0.00  0.00    -0.007 A 
ATOM     20  C   UNK d   1      21.465  14.529  31.367  0.00  0.00     0.051 A 
ATOM     21  C   UNK d   1      21.484  15.890  31.520  0.00  0.00     0.019 A 
ATOM     22  C   UNK d   1      22.374  16.463  32.401  0.00  0.00     0.001 A 
ATOM     23  C   UNK d   1      23.247  15.688  33.133  0.00  0.00     0.001 A 
ATOM     24  C   UNK d   1      23.210  14.322  32.963  0.00  0.00     0.013 A 
BRANCH  20  25
ATOM     25  C   UNK d   1      20.517  13.932  30.430  0.00  0.00     0.210 C 
ATOM     26  O   UNK d   1      20.872  13.214  29.469  0.00  0.00    -0.644 OA
ATOM     27  O   UNK d   1      19.154  14.147  30.574  0.00  0.00    -0.644 OA
ENDBRANCH  20  25
ENDBRANCH   9  19
TORSDOF 2
ENDMDL
