/Users/jonathanwahrer/Desktop/Msc/3_Semester/Drug_Design_Praktikum/waehrer_HTS_screening/HTS_experiment/out/docking_results/vina_output/3elj/0980_docked.pdbqt
 OpenBabel03192217593D

 27 30  0  0  1  0  0  0  0  0999 V2000
   20.1370    7.2400   32.4370 I   0  0  0  0  0  0  0  0  0  0  0  0
   20.2130    9.3250   32.7300 C   0  0  0  0  0  0  0  0  0  0  0  0
   21.2230   10.1120   32.2130 C   0  0  1  0  0  3  0  0  0  0  0  0
   21.2760   11.4760   32.4040 C   0  0  0  0  0  0  0  0  0  0  0  0
   20.2650   12.0570   33.1460 C   0  0  0  0  0  3  0  0  0  0  0  0
   19.2470   11.2750   33.6690 C   0  0  0  0  0  3  0  0  0  0  0  0
   19.2010    9.9000   33.4740 C   0  0  0  0  0  0  0  0  0  0  0  0
   18.1550    9.1620   34.0210 O   0  0  0  0  0  1  0  0  0  0  0  0
   22.2760   12.2800   31.8940 C   0  0  0  0  0  0  0  0  0  0  0  0
   23.2600   11.6260   31.1580 C   0  0  0  0  0  0  0  0  0  0  0  0
   23.1680   10.1800   30.9790 C   0  0  0  0  0  0  0  0  0  0  0  0
   24.1720    9.5900   30.2390 C   0  0  2  0  0  3  0  0  0  0  0  0
   25.2150   10.3030   29.6880 C   0  0  0  0  0  0  0  0  0  0  0  0
   26.1280    9.7430   29.0110 O   0  0  0  0  0  0  0  0  0  0  0  0
   25.3030   11.6710   29.8570 C   0  0  0  0  0  3  0  0  0  0  0  0
   24.3130   12.2910   30.5920 C   0  0  0  0  0  3  0  0  0  0  0  0
   24.1250    7.5120   29.9270 I   0  0  0  0  0  0  0  0  0  0  0  0
   22.1640    9.5300   31.5150 O   0  0  0  0  0  0  0  0  0  0  0  0
   22.3360   13.7240   32.0940 C   0  0  0  0  0  0  0  0  0  0  0  0
   21.4650   14.5290   31.3670 C   0  0  0  0  0  0  0  0  0  0  0  0
   21.4840   15.8900   31.5200 C   0  0  0  0  0  3  0  0  0  0  0  0
   22.3740   16.4630   32.4010 C   0  0  0  0  0  3  0  0  0  0  0  0
   23.2470   15.6880   33.1330 C   0  0  0  0  0  3  0  0  0  0  0  0
   23.2100   14.3220   32.9630 C   0  0  0  0  0  3  0  0  0  0  0  0
   20.5170   13.9320   30.4300 C   0  0  0  0  0  0  0  0  0  0  0  0
   20.8720   13.2140   29.4690 O   0  0  0  0  0  0  0  0  0  0  0  0
   19.1540   14.1470   30.5740 O   0  0  0  0  0  1  0  0  0  0  0  0
  1  2  1  0  0  0  0
  2  7  2  0  0  0  0
  3 18  1  1  0  0  0
  3  4  1  0  0  0  0
  3  2  1  0  0  0  0
  4  5  1  0  0  0  0
  5  6  2  0  0  0  0
  7  6  1  0  0  0  0
  7  8  1  0  0  0  0
  9 19  1  0  0  0  0
  9  4  2  0  0  0  0
 10  9  1  0  0  0  0
 11 10  2  0  0  0  0
 11 18  1  0  0  0  0
 12 17  1  6  0  0  0
 12 11  1  0  0  0  0
 13 15  1  0  0  0  0
 13 12  1  0  0  0  0
 14 13  2  0  0  0  0
 15 16  2  0  0  0  0
 16 10  1  0  0  0  0
 19 24  1  0  0  0  0
 20 21  1  0  0  0  0
 20 19  2  0  0  0  0
 21 22  2  0  0  0  0
 22 23  1  0  0  0  0
 24 23  2  0  0  0  0
 25 27  1  0  0  0  0
 25 20  1  0  0  0  0
 26 25  2  0  0  0  0
M  END
>  <Pose>
1

>  <Score>
-8.146

$$$$
