/Users/jonathanwahrer/Desktop/Msc/3_Semester/Drug_Design_Praktikum/waehrer_HTS_screening/HTS_experiment/out/docking_results/vina_output/3elj/0983_docked.pdbqt
 OpenBabel03192217593D

 34 37  0  0  0  0  0  0  0  0999 V2000
   22.5950    9.5860   30.2760 C   0  0  0  0  0  0  0  0  0  0  0  0
   21.6080    9.3360   31.2390 C   0  0  0  0  0  0  0  0  0  0  0  0
   21.4250   10.5440   31.8750 C   0  0  0  0  0  0  0  0  0  0  0  0
   22.2490   11.4460   31.3250 N   0  0  0  0  0  0  0  0  0  0  0  0
   22.9970   10.8940   30.3210 C   0  0  0  0  0  0  0  0  0  0  0  0
   20.4880   10.6180   32.9030 C   0  0  0  0  0  0  0  0  0  0  0  0
   19.7800    9.5010   33.2510 C   0  0  0  0  0  3  0  0  0  0  0  0
   19.9630    8.2720   32.6080 C   0  0  0  0  0  0  0  0  0  0  0  0
   20.9040    8.2020   31.5770 C   0  0  0  0  0  3  0  0  0  0  0  0
   18.9480    6.7580   33.1380 Br  0  0  0  0  0  0  0  0  0  0  0  0
   20.2150   12.2650   33.7970 Br  0  0  0  0  0  0  0  0  0  0  0  0
   22.3250   12.4620   31.6150 H   0  0  0  0  0  0  0  0  0  0  0  0
   23.9580   11.6150   29.4940 C   0  0  0  0  0  0  0  0  0  0  0  0
   25.1340   11.0650   29.0830 N   0  0  0  0  0  0  0  0  0  0  0  0
   25.8380   11.9430   28.3500 C   0  0  0  0  0  0  0  0  0  0  0  0
   25.4720   10.1000   29.2890 H   0  0  0  0  0  0  0  0  0  0  0  0
   25.1280   13.1200   28.2600 C   0  0  0  0  0  0  0  0  0  0  0  0
   27.0650   11.9000   27.7050 C   0  0  0  0  0  0  0  0  0  0  0  0
   23.9580   12.8770   28.9890 C   0  0  0  0  0  0  0  0  0  0  0  0
   25.6010   14.2130   27.5630 C   0  0  0  0  0  3  0  0  0  0  0  0
   26.8290   14.1600   26.9230 C   0  0  0  0  0  0  0  0  0  0  0  0
   27.5550   12.9830   27.0040 C   0  0  0  0  0  3  0  0  0  0  0  0
   27.5070   15.6670   25.9510 Br  0  0  0  0  0  0  0  0  0  0  0  0
   28.1170   10.3110   27.7770 Br  0  0  0  0  0  0  0  0  0  0  0  0
   22.9720   13.8340   29.1450 O   0  0  0  0  0  0  0  0  0  0  0  0
   22.6600   14.5880   30.6420 S   0  0  0  0  0  0  0  0  0  0  0  0
   23.6560   14.1560   31.6790 O   0  0  0  0  0  1  0  0  0  0  0  0
   21.2930   14.2440   31.1630 O   0  0  0  0  0  1  0  0  0  0  0  0
   22.6800   16.2730   30.4400 O   0  0  0  0  0  1  0  0  0  0  0  0
   23.0690    8.6030   29.4150 O   0  0  0  0  0  0  0  0  0  0  0  0
   24.3670    7.5790   29.8650 S   0  0  0  0  0  0  0  0  0  0  0  0
   25.6290    8.2640   29.4180 O   0  0  0  0  0  1  0  0  0  0  0  0
   24.4120    7.3930   31.3610 O   0  0  0  0  0  1  0  0  0  0  0  0
   24.2750    6.0990   29.0740 O   0  0  0  0  0  1  0  0  0  0  0  0
  1  5  2  0  0  0  0
  1  2  1  0  0  0  0
  2  9  2  0  0  0  0
  2  3  1  0  0  0  0
  3  6  2  0  0  0  0
  4 12  1  0  0  0  0
  4  3  1  0  0  0  0
  5  4  1  0  0  0  0
  6  7  1  0  0  0  0
  6 11  1  0  0  0  0
  8 10  1  0  0  0  0
  8  7  2  0  0  0  0
  9  8  1  0  0  0  0
 13  5  1  0  0  0  0
 14 16  1  0  0  0  0
 14 13  1  0  0  0  0
 15 14  1  0  0  0  0
 17 15  1  0  0  0  0
 17 19  1  0  0  0  0
 18 24  1  0  0  0  0
 18 15  2  0  0  0  0
 19 25  1  0  0  0  0
 19 13  2  0  0  0  0
 20 17  2  0  0  0  0
 21 22  2  0  0  0  0
 21 20  1  0  0  0  0
 22 18  1  0  0  0  0
 23 21  1  0  0  0  0
 25 26  1  0  0  0  0
 26 28  1  0  0  0  0
 26 27  1  0  0  0  0
 29 26  1  0  0  0  0
 30 31  1  0  0  0  0
 30  1  1  0  0  0  0
 31 33  1  0  0  0  0
 32 31  1  0  0  0  0
 34 31  1  0  0  0  0
M  END
>  <Pose>
1

>  <Score>
-8.891

$$$$
