MODEL 1
REMARK VINA RESULT:    -8.783      0.000      0.000
REMARK INTER + INTRA:          -9.861
REMARK INTER:                 -10.067
REMARK INTRA:                   0.206
REMARK UNBOUND:                 0.206
REMARK  4 active torsions:
REMARK  status: ('A' for Active; 'I' for Inactive)
REMARK    1  A    between atoms: C_7  and  N_10 
REMARK    2  A    between atoms: C_8  and  O_9 
REMARK    3  A    between atoms: C_13  and  N_21 
REMARK    4  A    between atoms: C_15  and  O_20 
ROOT
ATOM      1  N   UNK d   1      22.463   9.534  31.516  0.00  0.00    -0.277 N 
ATOM      2  C   UNK d   1      21.462   8.711  31.850  0.00  0.00     0.186 A 
ATOM      3  N   UNK d   1      20.205   8.952  32.312  0.00  0.00    -0.042 NA
ATOM      4  C   UNK d   1      19.333   7.988  32.594  0.00  0.00     0.724 A 
ATOM      5  N   UNK d   1      19.712   6.709  32.415  0.00  0.00    -0.036 NA
ATOM      6  C   UNK d   1      20.943   6.399  31.959  0.00  0.00     0.214 A 
ATOM      7  C   UNK d   1      21.848   7.398  31.666  0.00  0.00     0.159 A 
ATOM      8  N   UNK d   1      23.109   7.446  31.212  0.00  0.00    -0.216 NA
ATOM      9  C   UNK d   1      23.479   8.745  31.123  0.00  0.00     0.182 A 
ATOM     10 Br   UNK d   1      25.181   9.394  30.530  0.00  0.00    -0.008 Br
ENDROOT
BRANCH   1  11
ATOM     11  C   UNK d   1      22.371  10.971  31.599  0.00  0.00     0.263 C 
ATOM     12  O   UNK d   1      21.254  11.385  32.323  0.00  0.00    -0.353 OA
ATOM     13  C   UNK d   1      21.326  12.748  32.177  0.00  0.00     0.180 C 
ATOM     14  C   UNK d   1      21.409  12.892  30.652  0.00  0.00     0.198 C 
ATOM     15  C   UNK d   1      20.142  13.504  32.649  0.00  0.00     0.216 C 
ATOM     16  O   UNK d   1      22.216  14.003  30.419  0.00  0.00    -0.279 OA
ATOM     17  C   UNK d   1      22.078  11.599  30.238  0.00  0.00     0.199 C 
ATOM     18  P   UNK d   1      21.782  15.165  31.591  0.00  0.00     0.408 P 
ATOM     19  O   UNK d   1      22.888  15.349  32.607  0.00  0.00    -0.624 OA
ATOM     20  O   UNK d   1      20.299  14.844  32.281  0.00  0.00    -0.287 OA
ATOM     21  O   UNK d   1      21.667  16.649  30.747  0.00  0.00    -0.624 OA
BRANCH  17  22
ATOM     22  O   UNK d   1      23.211  11.788  29.487  0.00  0.00    -0.388 OA
ATOM     23  H   UNK d   1      23.461  12.766  29.483  0.00  0.00     0.210 HD
ENDBRANCH  17  22
ENDBRANCH   1  11
BRANCH   4  24
ATOM     24  N   UNK d   1      18.027   8.291  33.077  0.00  0.00    -0.231 N 
ATOM     25  H   UNK d   1      17.720   9.284  32.996  0.00  0.00     0.174 HD
ATOM     26  H   UNK d   1      17.397   7.562  33.495  0.00  0.00     0.174 HD
ENDBRANCH   4  24
BRANCH   6  27
ATOM     27  O   UNK d   1      21.339   5.078  31.771  0.00  0.00    -0.343 OA
ATOM     28  H   UNK d   1      22.256   4.944  31.320  0.00  0.00     0.219 HD
ENDBRANCH   6  27
TORSDOF 4
ENDMDL
