MODEL 1
REMARK VINA RESULT:    -9.255      0.000      0.000
REMARK INTER + INTRA:         -11.540
REMARK INTER:                 -10.608
REMARK INTRA:                  -0.933
REMARK UNBOUND:                -0.933
REMARK  3 active torsions:
REMARK  status: ('A' for Active; 'I' for Inactive)
REMARK    1  A    between atoms: C_7  and  N_10 
REMARK    2  A    between atoms: C_8  and  O_9 
REMARK    3  A    between atoms: C_21  and  C_23 
ROOT
ATOM      1  N   UNK d   1      26.299   5.349  29.834  0.00  0.00    -0.279 N 
ATOM      2  C   UNK d   1      25.192   6.063  30.158  0.00  0.00     0.162 A 
ATOM      3  C   UNK d   1      25.211   7.295  29.539  0.00  0.00     0.173 A 
ATOM      4  N   UNK d   1      26.357   7.316  28.829  0.00  0.00    -0.214 NA
ATOM      5  C   UNK d   1      27.004   6.147  29.012  0.00  0.00     0.182 A 
ATOM      6 Br   UNK d   1      28.677   5.621  28.249  0.00  0.00    -0.008 Br
ATOM      7  C   UNK d   1      24.166   8.175  29.744  0.00  0.00     0.298 A 
ATOM      8  O   UNK d   1      24.172   9.295  29.188  0.00  0.00    -0.264 OA
ATOM      9  N   UNK d   1      23.113   7.871  30.536  0.00  0.00    -0.115 N 
ATOM     10  C   UNK d   1      23.116   6.664  31.130  0.00  0.00     0.716 A 
ATOM     11  N   UNK d   1      21.981   6.609  31.849  0.00  0.00    -0.062 NA
ATOM     12  C   UNK d   1      21.260   7.738  31.732  0.00  0.00     0.102 A 
ATOM     13  C   UNK d   1      21.987   8.551  30.888  0.00  0.00     0.152 A 
ATOM     14  N   UNK d   1      24.137   5.782  30.941  0.00  0.00    -0.171 N 
ATOM     15  H   UNK d   1      24.134   4.845  31.403  0.00  0.00     0.186 HD
ENDROOT
BRANCH   1  16
ATOM     16  C   UNK d   1      26.659   4.004  30.276  0.00  0.00     0.263 C 
ATOM     17  O   UNK d   1      25.528   3.283  30.653  0.00  0.00    -0.353 OA
ATOM     18  C   UNK d   1      25.915   2.323  31.546  0.00  0.00     0.180 C 
ATOM     19  C   UNK d   1      27.016   3.000  32.367  0.00  0.00     0.197 C 
ATOM     20  C   UNK d   1      24.838   1.927  32.528  0.00  0.00     0.214 C 
ATOM     21  O   UNK d   1      27.906   1.990  32.721  0.00  0.00    -0.292 OA
ATOM     22  C   UNK d   1      27.606   4.006  31.426  0.00  0.00     0.199 C 
ATOM     23  P   UNK d   1      26.964   0.662  33.207  0.00  0.00     0.422 P 
ATOM     24  S   UNK d   1      27.612   0.067  34.705  0.00  0.00     0.009 SA
ATOM     25  O   UNK d   1      25.365   1.116  33.508  0.00  0.00    -0.300 OA
ATOM     26  O   UNK d   1      26.938  -0.545  32.025  0.00  0.00    -0.240 OA
BRANCH  22  27
ATOM     27  O   UNK d   1      28.890   3.611  31.028  0.00  0.00    -0.388 OA
ATOM     28  H   UNK d   1      29.339   3.075  31.712  0.00  0.00     0.210 HD
ENDBRANCH  22  27
ENDBRANCH   1  16
BRANCH  12  29
ATOM     29  C   UNK d   1      19.971   8.048  32.367  0.00  0.00    -0.005 A 
ATOM     30  C   UNK d   1      19.797   9.236  33.039  0.00  0.00     0.014 A 
ATOM     31  C   UNK d   1      18.590   9.557  33.648  0.00  0.00     0.001 A 
ATOM     32  C   UNK d   1      17.551   8.659  33.572  0.00  0.00     0.000 A 
ATOM     33  C   UNK d   1      17.686   7.451  32.906  0.00  0.00     0.001 A 
ATOM     34  C   UNK d   1      18.904   7.186  32.319  0.00  0.00     0.014 A 
ENDBRANCH  12  29
TORSDOF 3
ENDMDL
