/Users/jonathanwahrer/Desktop/Msc/3_Semester/Drug_Design_Praktikum/waehrer_HTS_screening/HTS_experiment/out/docking_results/vina_output/3elj/0993_docked.pdbqt
 OpenBabel03192218003D

 26 29  0  0  1  0  0  0  0  0999 V2000
   24.7750   11.8860   29.3750 P   0  0  2  0  0  0  0  0  0  0  0  0
   23.5380   13.1170   29.3460 S   0  0  0  0  0  1  0  0  0  0  0  0
   24.0820   10.3680   29.0140 O   0  0  0  0  0  0  0  0  0  0  0  0
   23.3470    9.9960   30.1120 C   0  0  2  0  0  3  0  0  0  0  0  0
   24.2970    9.8390   31.3070 C   0  0  2  0  0  3  0  0  0  0  0  0
   23.4700    9.1430   32.1870 O   0  0  0  0  0  0  0  0  0  0  0  0
   22.9230    8.1180   31.4520 C   0  0  2  0  0  3  0  0  0  0  0  0
   22.8150    8.5780   30.0200 C   0  0  2  0  0  3  0  0  0  0  0  0
   24.7280   11.1710   31.8370 C   0  0  0  0  0  2  0  0  0  0  0  0
   25.5020   11.7950   30.8760 O   0  0  0  0  0  0  0  0  0  0  0  0
   25.8900   12.2440   28.1840 O   0  0  0  0  0  0  0  0  0  0  0  0
   21.5890    7.7560   31.8940 N   0  0  0  0  0  0  0  0  0  0  0  0
   20.7050    8.6300   32.4380 C   0  0  0  0  0  0  0  0  0  0  0  0
   20.7870    9.9580   32.7070 N   0  0  0  0  0  0  0  0  0  0  0  0
   19.5430    7.9490   32.7390 C   0  0  0  0  0  0  0  0  0  0  0  0
   19.7540   10.6220   33.2620 C   0  0  0  0  0  3  0  0  0  0  0  0
   18.6100    9.9580   33.5600 N   0  0  0  0  0  0  0  0  0  0  0  0
   18.4900    8.6420   33.3090 C   0  0  0  0  0  0  0  0  0  0  0  0
   19.7240    6.6660   32.3780 N   0  0  0  0  0  0  0  0  0  0  0  0
   20.9710    6.5640   31.8660 C   0  0  0  0  0  0  0  0  0  0  0  0
   21.8140    4.9820   31.1770 Br  0  0  0  0  0  0  0  0  0  0  0  0
   17.2760    7.9550   33.6290 N   0  0  0  0  0  0  0  0  0  0  0  0
   16.4540    8.0580   32.9740 H   0  0  0  0  0  0  0  0  0  0  0  0
   17.1760    7.3630   34.4770 H   0  0  0  0  0  0  0  0  0  0  0  0
   23.7570    7.8470   29.2840 O   0  0  0  0  0  0  0  0  0  0  0  0
   23.4330    6.9680   29.0110 H   0  0  0  0  0  0  0  0  0  0  0  0
  1 11  2  6  0  0  0
  1 10  1  0  0  0  0
  2  1  1  0  0  0  0
  3  1  1  0  0  0  0
  4  3  1  6  0  0  0
  4  5  1  0  0  0  0
  5  9  1  1  0  0  0
  5  6  1  0  0  0  0
  7 12  1  1  0  0  0
  7  6  1  0  0  0  0
  8 25  1  6  0  0  0
  8  4  1  0  0  0  0
  8  7  1  0  0  0  0
 10  9  1  0  0  0  0
 12 13  1  0  0  0  0
 13 14  2  0  0  0  0
 13 15  1  0  0  0  0
 14 16  1  0  0  0  0
 15 18  2  0  0  0  0
 16 17  2  0  0  0  0
 18 17  1  0  0  0  0
 18 22  1  0  0  0  0
 19 15  1  0  0  0  0
 20 12  1  0  0  0  0
 20 19  2  0  0  0  0
 21 20  1  0  0  0  0
 22 24  1  0  0  0  0
 23 22  1  0  0  0  0
 26 25  1  0  0  0  0
M  END
>  <Pose>
1

>  <Score>
-8.491

$$$$
