MODEL 1
REMARK VINA RESULT:    -8.491      0.000      0.000
REMARK INTER + INTRA:          -9.758
REMARK INTER:                  -9.484
REMARK INTRA:                  -0.275
REMARK UNBOUND:                -0.275
REMARK  3 active torsions:
REMARK  status: ('A' for Active; 'I' for Inactive)
REMARK    1  A    between atoms: C_7  and  N_10 
REMARK    2  A    between atoms: C_8  and  O_9 
REMARK    3  A    between atoms: C_15  and  N_20 
ROOT
ATOM      1  P   UNK d   1      24.775  11.886  29.375  0.00  0.00     0.422 P 
ATOM      2  S   UNK d   1      23.538  13.117  29.346  0.00  0.00     0.009 SA
ATOM      3  O   UNK d   1      24.082  10.368  29.014  0.00  0.00    -0.292 OA
ATOM      4  C   UNK d   1      23.347   9.996  30.112  0.00  0.00     0.197 C 
ATOM      5  C   UNK d   1      24.297   9.839  31.307  0.00  0.00     0.180 C 
ATOM      6  O   UNK d   1      23.470   9.143  32.187  0.00  0.00    -0.353 OA
ATOM      7  C   UNK d   1      22.923   8.118  31.452  0.00  0.00     0.263 C 
ATOM      8  C   UNK d   1      22.815   8.578  30.020  0.00  0.00     0.199 C 
ATOM      9  C   UNK d   1      24.728  11.171  31.837  0.00  0.00     0.214 C 
ATOM     10  O   UNK d   1      25.502  11.795  30.876  0.00  0.00    -0.300 OA
ATOM     11  O   UNK d   1      25.890  12.244  28.184  0.00  0.00    -0.240 OA
ENDROOT
BRANCH   7  12
ATOM     12  N   UNK d   1      21.589   7.756  31.894  0.00  0.00    -0.278 N 
ATOM     13  C   UNK d   1      20.705   8.630  32.438  0.00  0.00     0.168 A 
ATOM     14  N   UNK d   1      20.787   9.958  32.707  0.00  0.00    -0.221 NA
ATOM     15  C   UNK d   1      19.543   7.949  32.739  0.00  0.00     0.151 A 
ATOM     16  C   UNK d   1      19.754  10.622  33.262  0.00  0.00     0.237 A 
ATOM     17  N   UNK d   1      18.610   9.958  33.560  0.00  0.00    -0.222 NA
ATOM     18  C   UNK d   1      18.490   8.642  33.309  0.00  0.00     0.155 A 
ATOM     19  N   UNK d   1      19.724   6.666  32.378  0.00  0.00    -0.216 NA
ATOM     20  C   UNK d   1      20.971   6.564  31.866  0.00  0.00     0.182 A 
ATOM     21 Br   UNK d   1      21.814   4.982  31.177  0.00  0.00    -0.008 Br
BRANCH  18  22
ATOM     22  N   UNK d   1      17.276   7.955  33.629  0.00  0.00    -0.382 N 
ATOM     23  H   UNK d   1      16.454   8.058  32.974  0.00  0.00     0.157 HD
ATOM     24  H   UNK d   1      17.176   7.363  34.477  0.00  0.00     0.157 HD
ENDBRANCH  18  22
ENDBRANCH   7  12
BRANCH   8  25
ATOM     25  O   UNK d   1      23.757   7.847  29.284  0.00  0.00    -0.388 OA
ATOM     26  H   UNK d   1      23.433   6.968  29.011  0.00  0.00     0.210 HD
ENDBRANCH   8  25
TORSDOF 3
ENDMDL
