/Users/jonathanwahrer/Desktop/Msc/3_Semester/Drug_Design_Praktikum/waehrer_HTS_screening/HTS_experiment/out/docking_results/vina_output/3elj/0999_docked.pdbqt
 OpenBabel03192218003D

 35 39  0  0  1  0  0  0  0  0999 V2000
   27.8850    9.0810   28.3460 N   0  0  0  0  0  0  0  0  0  0  0  0
   27.4050   10.3610   27.9740 C   0  0  0  0  0  0  0  0  0  0  0  0
   27.8990   10.9100   26.9530 O   0  0  0  0  0  0  0  0  0  0  0  0
   27.4580    8.6430   29.2010 H   0  0  0  0  0  0  0  0  0  0  0  0
   28.9030    8.4610   27.5610 C   0  0  1  0  0  3  0  0  0  0  0  0
   29.4570    7.1750   28.0120 C   0  0  1  0  0  0  0  0  0  0  0  0
   29.8030    6.8610   29.7420 S   0  0  0  0  0  0  0  0  0  0  0  0
   28.1740    6.6260   27.7050 N   0  0  0  0  0  0  0  0  0  0  0  0
   29.4590    5.0640   29.7320 C   0  0  0  0  0  2  0  0  0  0  0  0
   27.9830    4.9290   29.3320 C   0  0  0  0  0  0  0  0  0  0  0  0
   27.4140    5.6430   28.4130 C   0  0  0  0  0  0  0  0  0  0  0  0
   28.2190    7.5070   26.5960 C   0  0  1  0  0  0  0  0  0  0  0  0
   27.9230    7.6380   25.4030 O   0  0  0  0  0  1  0  0  0  0  0  0
   27.3470    3.9110   30.1300 C   0  0  0  0  0  2  0  0  0  0  0  0
   26.7070    4.1670   31.2960 O   0  0  0  0  0  0  0  0  0  0  0  0
   25.4730    3.6020   31.6380 C   0  0  0  0  0  0  0  0  0  0  0  0
   25.4910    2.4690   32.1550 O   0  0  0  0  0  0  0  0  0  0  0  0
   24.2490    4.3900   31.3600 C   0  0  0  0  0  1  0  0  0  0  0  0
   25.9820    5.5180   28.0110 C   0  0  0  0  0  0  0  0  0  0  0  0
   25.5260    4.7600   27.1820 O   0  0  0  0  0  0  0  0  0  0  0  0
   25.0340    6.3480   28.6370 O   0  0  0  0  0  1  0  0  0  0  0  0
   26.3610   11.0530   28.7360 C   0  0  0  0  0  0  0  0  0  0  0  0
   26.0670   10.9690   29.9950 O   0  0  0  0  0  0  0  0  0  0  0  0
   25.0750   11.7320   30.3240 C   0  0  0  0  0  0  0  0  0  0  0  0
   24.6590   12.3950   29.1630 C   0  0  0  0  0  3  0  0  0  0  0  0
   25.4860   11.9510   28.1670 C   0  0  0  0  0  3  0  0  0  0  0  0
   24.4440   11.9130   31.6820 C   0  0  0  0  0  2  0  0  0  0  0  0
   23.0680   11.6380   31.6340 O   0  0  0  0  0  0  0  0  0  0  0  0
   22.4870   10.4090   31.7650 C   0  0  0  0  0  0  0  0  0  0  0  0
   23.0250    9.2240   31.2700 C   0  0  0  0  0  3  0  0  0  0  0  0
   22.3540    8.0380   31.4620 C   0  0  0  0  0  3  0  0  0  0  0  0
   21.1550    7.9450   32.1290 C   0  0  0  0  0  0  0  0  0  0  0  0
   20.6130    9.1180   32.6250 C   0  0  0  0  0  3  0  0  0  0  0  0
   20.2710    6.2710   32.3650 Br  0  0  0  0  0  0  0  0  0  0  0  0
   21.2840   10.3190   32.4360 C   0  0  0  0  0  3  0  0  0  0  0  0
  1  4  1  0  0  0  0
  2  1  1  0  0  0  0
  2 22  1  0  0  0  0
  3  2  2  0  0  0  0
  5  6  1  0  0  0  0
  5  1  1  1  0  0  0
  6  7  1  1  0  0  0
  8  6  1  0  0  0  0
  8 11  1  0  0  0  0
  9  7  1  0  0  0  0
 10  9  1  0  0  0  0
 10 14  1  0  0  0  0
 11 10  2  0  0  0  0
 12 13  1  6  0  0  0
 12  5  1  0  0  0  0
 12  8  1  0  0  0  0
 12  6  1  0  0  0  0
 14 15  1  0  0  0  0
 15 16  1  0  0  0  0
 16 17  2  0  0  0  0
 18 16  1  0  0  0  0
 19 11  1  0  0  0  0
 19 21  1  0  0  0  0
 20 19  2  0  0  0  0
 22 23  1  0  0  0  0
 23 24  1  0  0  0  0
 24 27  1  0  0  0  0
 25 24  2  0  0  0  0
 26 22  2  0  0  0  0
 26 25  1  0  0  0  0
 28 27  1  0  0  0  0
 28 29  1  0  0  0  0
 29 35  1  0  0  0  0
 30 31  1  0  0  0  0
 30 29  2  0  0  0  0
 31 32  2  0  0  0  0
 32 34  1  0  0  0  0
 32 33  1  0  0  0  0
 35 33  2  0  0  0  0
M  END
>  <Pose>
1

>  <Score>
-7.379

$$$$
