MODEL 1
REMARK VINA RESULT:    -8.704      0.000      0.000
REMARK INTER + INTRA:          -9.580
REMARK INTER:                  -9.722
REMARK INTRA:                   0.142
REMARK UNBOUND:                 0.142
REMARK  3 active torsions:
REMARK  status: ('A' for Active; 'I' for Inactive)
REMARK    1  A    between atoms: C_7  and  N_10 
REMARK    2  A    between atoms: C_8  and  O_9 
REMARK    3  A    between atoms: C_15  and  N_20 
ROOT
ATOM      1  P   UNK d   1      24.839  11.740  29.359  0.00  0.00     0.408 P 
ATOM      2  O   UNK d   1      24.758  12.741  28.205  0.00  0.00    -0.624 OA
ATOM      3  O   UNK d   1      24.046  10.343  28.872  0.00  0.00    -0.279 OA
ATOM      4  C   UNK d   1      23.187   9.881  29.835  0.00  0.00     0.198 C 
ATOM      5  C   UNK d   1      23.829  10.210  31.190  0.00  0.00     0.180 C 
ATOM      6  O   UNK d   1      23.377   9.268  32.066  0.00  0.00    -0.353 OA
ATOM      7  C   UNK d   1      23.028   8.131  31.391  0.00  0.00     0.263 C 
ATOM      8  C   UNK d   1      23.111   8.380  29.925  0.00  0.00     0.199 C 
ATOM      9  C   UNK d   1      23.437  11.618  31.504  0.00  0.00     0.216 C 
ATOM     10  O   UNK d   1      24.157  12.466  30.698  0.00  0.00    -0.287 OA
ATOM     11  O   UNK d   1      26.506  11.424  29.580  0.00  0.00    -0.624 OA
ENDROOT
BRANCH   7  12
ATOM     12  N   UNK d   1      21.690   7.751  31.824  0.00  0.00    -0.278 N 
ATOM     13  C   UNK d   1      20.776   8.575  32.388  0.00  0.00     0.168 A 
ATOM     14  N   UNK d   1      20.836   9.883  32.688  0.00  0.00    -0.221 NA
ATOM     15  C   UNK d   1      19.638   7.843  32.655  0.00  0.00     0.151 A 
ATOM     16  C   UNK d   1      19.774  10.479  33.255  0.00  0.00     0.237 A 
ATOM     17  N   UNK d   1      18.665   9.763  33.514  0.00  0.00    -0.222 NA
ATOM     18  C   UNK d   1      18.533   8.456  33.242  0.00  0.00     0.155 A 
ATOM     19  N   UNK d   1      19.854   6.592  32.259  0.00  0.00    -0.216 NA
ATOM     20  C   UNK d   1      21.101   6.546  31.757  0.00  0.00     0.182 A 
ATOM     21 Br   UNK d   1      21.993   5.002  31.023  0.00  0.00    -0.008 Br
BRANCH  18  22
ATOM     22  N   UNK d   1      17.368   7.690  33.511  0.00  0.00    -0.382 N 
ATOM     23  H   UNK d   1      17.427   6.637  33.383  0.00  0.00     0.157 HD
ATOM     24  H   UNK d   1      16.474   8.082  33.821  0.00  0.00     0.157 HD
ENDBRANCH  18  22
ENDBRANCH   7  12
BRANCH   8  25
ATOM     25  O   UNK d   1      24.213   7.805  29.323  0.00  0.00    -0.388 OA
ATOM     26  H   UNK d   1      24.443   8.197  28.465  0.00  0.00     0.210 HD
ENDBRANCH   8  25
TORSDOF 3
ENDMDL
