/Users/jonathanwahrer/Desktop/Msc/3_Semester/Drug_Design_Praktikum/waehrer_HTS_screening/HTS_experiment/out/docking_results/vina_output/3elj/1011_docked.pdbqt
 OpenBabel03192218013D

 29 32  0  0  0  0  0  0  0  0999 V2000
   24.2300    9.2020   30.1210 C   0  0  0  0  0  0  0  0  0  0  0  0
   22.9900    8.9760   30.7260 C   0  0  0  0  0  3  0  0  0  0  0  0
   22.6270    7.7080   31.1250 C   0  0  0  0  0  0  0  0  0  0  0  0
   23.4530    6.6110   30.9520 C   0  0  0  0  0  0  0  0  0  0  0  0
   24.6670    6.8220   30.3620 C   0  0  0  0  0  3  0  0  0  0  0  0
   25.0430    8.1070   29.9540 C   0  0  0  0  0  0  0  0  0  0  0  0
   26.7440    8.3920   29.1170 Br  0  0  0  0  0  0  0  0  0  0  0  0
   22.7690    5.3940   31.4720 C   0  0  0  0  0  2  0  0  0  0  0  0
   21.2930    5.8460   31.4840 C   0  0  0  0  0  2  0  0  0  0  0  0
   21.4160    7.2680   31.7650 N   0  0  0  0  0  0  0  0  0  0  0  0
   20.5670    8.1170   32.5130 C   0  0  0  0  0  0  0  0  0  0  0  0
   20.8100    9.3330   32.6930 O   0  0  0  0  0  0  0  0  0  0  0  0
   24.6660   10.8170   29.6320 S   0  0  0  0  0  0  0  0  0  0  0  0
   25.6290   11.4230   30.6460 O   0  0  0  0  0  0  0  0  0  0  0  0
   25.3830   10.8320   28.3240 O   0  0  0  0  0  0  0  0  0  0  0  0
   23.2840   11.8450   29.6300 N   0  0  0  0  0  0  0  0  0  0  0  0
   22.7750   11.6970   28.7360 H   0  0  0  0  0  0  0  0  0  0  0  0
   23.6250   13.2420   29.8080 C   0  0  0  0  0  2  0  0  0  0  0  0
   22.8210   13.7280   31.0050 C   0  0  0  0  0  2  0  0  0  0  0  0
   22.0520   12.5950   31.6320 C   0  0  0  0  0  2  0  0  0  0  0  0
   20.7070   12.9970   31.8110 N   0  0  0  0  0  0  0  0  0  0  0  0
   20.1980   12.9390   33.1340 C   0  0  0  0  0  2  0  0  0  0  0  0
   18.6800   12.8990   33.0630 C   0  0  0  0  0  2  0  0  0  0  0  0
   18.1940   13.7820   32.1190 O   0  0  0  0  0  0  0  0  0  0  0  0
   19.1060   14.7650   31.7550 C   0  0  0  0  0  2  0  0  0  0  0  0
   20.2400   14.0620   31.0020 C   0  0  0  0  0  2  0  0  0  0  0  0
   19.3380    7.5460   33.1120 C   0  0  0  0  0  3  0  0  0  0  0  0
   18.1990    7.4130   32.1850 C   0  0  0  0  0  2  0  0  0  0  0  0
   18.1420    8.4000   33.3260 C   0  0  0  0  0  2  0  0  0  0  0  0
  1  2  1  0  0  0  0
  2  3  2  0  0  0  0
  3 10  1  0  0  0  0
  4  3  1  0  0  0  0
  4  8  1  0  0  0  0
  5  4  2  0  0  0  0
  6  1  2  0  0  0  0
  6  5  1  0  0  0  0
  7  6  1  0  0  0  0
  8  9  1  0  0  0  0
  9 10  1  0  0  0  0
 10 11  1  0  0  0  0
 11 12  2  0  0  0  0
 11 27  1  0  0  0  0
 13  1  1  0  0  0  0
 13 14  2  0  0  0  0
 15 13  2  0  0  0  0
 16 13  1  0  0  0  0
 16 18  1  0  0  0  0
 17 16  1  0  0  0  0
 18 19  1  0  0  0  0
 19 20  1  0  0  0  0
 20 21  1  0  0  0  0
 21 22  1  0  0  0  0
 23 22  1  0  0  0  0
 24 23  1  0  0  0  0
 25 24  1  0  0  0  0
 26 25  1  0  0  0  0
 26 21  1  0  0  0  0
 27 29  1  0  0  0  0
 28 27  1  0  0  0  0
 28 29  1  0  0  0  0
M  END
>  <Pose>
1

>  <Score>
-8.407

$$$$
