MODEL 1
REMARK VINA RESULT:    -8.407      0.000      0.000
REMARK INTER + INTRA:         -12.405
REMARK INTER:                 -11.847
REMARK INTRA:                  -0.558
REMARK UNBOUND:                -0.558
REMARK  7 active torsions:
REMARK  status: ('A' for Active; 'I' for Inactive)
REMARK    1  A    between atoms: S_1  and  N_4 
REMARK    2  A    between atoms: S_1  and  C_14 
REMARK    3  A    between atoms: N_4  and  C_5 
REMARK    4  A    between atoms: C_5  and  C_6 
REMARK    5  A    between atoms: C_6  and  C_7 
REMARK    6  A    between atoms: C_7  and  N_8 
REMARK       I    between atoms: N_23  and  C_24 
REMARK    7  A    between atoms: C_24  and  C_26 
ROOT
ATOM      1  C   UNK d   1      24.230   9.202  30.121  0.00  0.00     0.094 A 
ATOM      2  C   UNK d   1      22.990   8.976  30.726  0.00  0.00     0.056 A 
ATOM      3  C   UNK d   1      22.627   7.708  31.125  0.00  0.00     0.045 A 
ATOM      4  C   UNK d   1      23.453   6.611  30.952  0.00  0.00    -0.028 A 
ATOM      5  C   UNK d   1      24.667   6.822  30.362  0.00  0.00     0.030 A 
ATOM      6  C   UNK d   1      25.043   8.107  29.954  0.00  0.00     0.034 A 
ATOM      7 Br   UNK d   1      26.744   8.392  29.117  0.00  0.00    -0.049 Br
ATOM      8  C   UNK d   1      22.769   5.394  31.472  0.00  0.00     0.061 C 
ATOM      9  C   UNK d   1      21.293   5.846  31.484  0.00  0.00     0.137 C 
ATOM     10  N   UNK d   1      21.416   7.268  31.765  0.00  0.00    -0.317 N 
ATOM     11  C   UNK d   1      20.567   8.117  32.513  0.00  0.00     0.228 C 
ATOM     12  O   UNK d   1      20.810   9.333  32.693  0.00  0.00    -0.273 OA
ENDROOT
BRANCH   1  13
ATOM     13  S   UNK d   1      24.666  10.817  29.632  0.00  0.00     0.242 S 
ATOM     14  O   UNK d   1      25.629  11.423  30.646  0.00  0.00    -0.206 OA
ATOM     15  O   UNK d   1      25.383  10.832  28.324  0.00  0.00    -0.206 OA
BRANCH  13  16
ATOM     16  N   UNK d   1      23.284  11.845  29.630  0.00  0.00    -0.215 NA
ATOM     17  H   UNK d   1      22.775  11.697  28.736  0.00  0.00     0.139 HD
BRANCH  16  18
ATOM     18  C   UNK d   1      23.625  13.242  29.808  0.00  0.00     0.106 C 
BRANCH  18  19
ATOM     19  C   UNK d   1      22.821  13.728  31.005  0.00  0.00     0.035 C 
BRANCH  19  20
ATOM     20  C   UNK d   1      22.052  12.595  31.632  0.00  0.00     0.118 C 
BRANCH  20  21
ATOM     21  N   UNK d   1      20.707  12.997  31.811  0.00  0.00    -0.408 N 
ATOM     22  C   UNK d   1      20.198  12.939  33.134  0.00  0.00     0.143 C 
ATOM     23  C   UNK d   1      18.680  12.899  33.063  0.00  0.00     0.187 C 
ATOM     24  O   UNK d   1      18.194  13.782  32.119  0.00  0.00    -0.388 OA
ATOM     25  C   UNK d   1      19.106  14.765  31.755  0.00  0.00     0.187 C 
ATOM     26  C   UNK d   1      20.240  14.062  31.002  0.00  0.00     0.143 C 
ENDBRANCH  20  21
ENDBRANCH  19  20
ENDBRANCH  18  19
ENDBRANCH  16  18
ENDBRANCH  13  16
ENDBRANCH   1  13
BRANCH  11  27
ATOM     27  C   UNK d   1      19.338   7.546  33.112  0.00  0.00     0.078 A 
ATOM     28  C   UNK d   1      18.199   7.413  32.185  0.00  0.00     0.015 A 
ATOM     29  C   UNK d   1      18.142   8.400  33.326  0.00  0.00     0.015 A 
ENDBRANCH  11  27
TORSDOF 7
ENDMDL
