MODEL 1
REMARK VINA RESULT:   -10.072      0.000      0.000
REMARK INTER + INTRA:         -13.712
REMARK INTER:                 -13.016
REMARK INTRA:                  -0.695
REMARK UNBOUND:                -0.695
REMARK  5 active torsions:
REMARK  status: ('A' for Active; 'I' for Inactive)
REMARK    1  A    between atoms: S_1  and  N_4 
REMARK    2  A    between atoms: S_1  and  C_20 
REMARK    3  A    between atoms: N_8  and  C_12 
REMARK    4  A    between atoms: C_12  and  C_13 
REMARK    5  A    between atoms: C_13  and  C_14 
REMARK       I    between atoms: N_29  and  C_30 
ROOT
ATOM      1  N   UNK d   1      24.160  12.302  30.383  0.00  0.00    -0.289 N 
ATOM      2  C   UNK d   1      23.736  11.443  29.373  0.00  0.00     0.239 C 
ATOM      3  C   UNK d   1      22.983  10.251  29.823  0.00  0.00     0.245 C 
ATOM      4  O   UNK d   1      22.147   9.693  29.072  0.00  0.00    -0.271 OA
ATOM      5  N   UNK d   1      23.264   9.787  31.138  0.00  0.00    -0.285 N 
ATOM      6  C   UNK d   1      24.416  10.323  31.768  0.00  0.00     0.245 C 
ATOM      7  O   UNK d   1      24.988   9.628  32.654  0.00  0.00    -0.271 OA
ATOM      8  C   UNK d   1      24.953  11.655  31.418  0.00  0.00     0.239 C 
ENDROOT
BRANCH   1   9
ATOM      9  S   UNK d   1      23.169  13.519  30.973  0.00  0.00     0.263 S 
ATOM     10  O   UNK d   1      23.758  13.988  32.303  0.00  0.00    -0.200 OA
ATOM     11  O   UNK d   1      21.813  12.966  31.343  0.00  0.00    -0.200 OA
BRANCH   9  12
ATOM     12  C   UNK d   1      22.996  14.946  29.987  0.00  0.00     0.099 A 
ATOM     13  C   UNK d   1      23.745  15.031  28.806  0.00  0.00     0.057 A 
ATOM     14  C   UNK d   1      23.746  16.130  27.977  0.00  0.00     0.045 A 
ATOM     15  C   UNK d   1      22.979  17.230  28.294  0.00  0.00    -0.028 A 
ATOM     16  N   UNK d   1      24.430  16.407  26.753  0.00  0.00    -0.318 N 
ATOM     17  C   UNK d   1      22.237  17.164  29.447  0.00  0.00     0.030 A 
ATOM     18  C   UNK d   1      23.131  18.286  27.263  0.00  0.00     0.061 C 
ATOM     19  C   UNK d   1      22.238  16.039  30.289  0.00  0.00     0.035 A 
ATOM     20 Br   UNK d   1      21.082  16.025  31.818  0.00  0.00    -0.049 Br
ATOM     21  C   UNK d   1      23.714  17.492  26.093  0.00  0.00     0.137 C 
ATOM     22  C   UNK d   1      25.585  15.785  26.247  0.00  0.00     0.220 C 
ATOM     23  O   UNK d   1      26.033  16.163  25.108  0.00  0.00    -0.273 OA
ATOM     24  C   UNK d   1      26.357  14.711  26.916  0.00  0.00     0.117 C 
ENDBRANCH   9  12
ENDBRANCH   1   9
BRANCH   5  25
ATOM     25  C   UNK d   1      22.402   8.812  31.772  0.00  0.00     0.139 C 
BRANCH  25  26
ATOM     26  C   UNK d   1      21.476   9.371  32.796  0.00  0.00     0.059 C 
BRANCH  26  27
ATOM     27  C   UNK d   1      20.148   8.765  32.857  0.00  0.00    -0.057 A 
ATOM     28  C   UNK d   1      19.892   7.517  32.361  0.00  0.00     0.007 A 
ATOM     29  C   UNK d   1      18.626   7.010  32.446  0.00  0.00     0.001 A 
ATOM     30  C   UNK d   1      17.583   7.727  33.022  0.00  0.00     0.000 A 
ATOM     31  C   UNK d   1      17.864   8.973  33.511  0.00  0.00     0.001 A 
ATOM     32  C   UNK d   1      19.125   9.513  33.442  0.00  0.00     0.007 A 
ENDBRANCH  26  27
ENDBRANCH  25  26
ENDBRANCH   5  25
TORSDOF 5
ENDMDL
