MODEL 1
REMARK VINA RESULT:    -7.627      0.000      0.000
REMARK INTER + INTRA:          -9.220
REMARK INTER:                  -9.857
REMARK INTRA:                   0.637
REMARK UNBOUND:                 0.637
REMARK  5 active torsions:
REMARK  status: ('A' for Active; 'I' for Inactive)
REMARK    1  A    between atoms: S_1  and  N_4 
REMARK    2  A    between atoms: S_1  and  C_20 
REMARK    3  A    between atoms: C_6  and  N_8 
REMARK    4  A    between atoms: C_11  and  C_13 
REMARK    5  A    between atoms: C_13  and  N_14 
ROOT
ATOM      1  N   UNK d   1      24.856   7.877  29.312  0.00  0.00    -0.202 NA
ATOM      2  C   UNK d   1      23.977   8.309  30.338  0.00  0.00     0.136 C 
ATOM      3  C   UNK d   1      25.028   9.170  30.922  0.00  0.00     0.139 C 
ATOM      4  C   UNK d   1      25.826   8.833  29.712  0.00  0.00     0.136 C 
ENDROOT
BRANCH   3   5
ATOM      5  N   UNK d   1      24.725  10.585  31.019  0.00  0.00    -0.254 N 
ATOM      6  N   UNK d   1      24.970  11.403  32.009  0.00  0.00    -0.066 NA
ATOM      7  N   UNK d   1      24.536  12.636  31.713  0.00  0.00    -0.134 NA
ATOM      8  C   UNK d   1      23.988  12.615  30.485  0.00  0.00     0.093 A 
ATOM      9  C   UNK d   1      24.117  11.301  30.059  0.00  0.00     0.145 A 
BRANCH   8  10
ATOM     10  C   UNK d   1      23.370  13.758  29.732  0.00  0.00     0.188 C 
BRANCH  10  11
ATOM     11  N   UNK d   1      22.242  14.241  30.508  0.00  0.00    -0.346 N 
ATOM     12  C   UNK d   1      21.190  13.432  31.045  0.00  0.00     0.126 C 
ATOM     13  C   UNK d   1      20.309  14.363  31.828  0.00  0.00     0.029 C 
ATOM     14  C   UNK d   1      21.006  15.679  31.953  0.00  0.00     0.104 C 
ATOM     15  C   UNK d   1      22.024  15.607  30.848  0.00  0.00     0.220 C 
ATOM     16  O   UNK d   1      22.560  16.611  30.345  0.00  0.00    -0.273 OA
ENDBRANCH  10  11
ENDBRANCH   8  10
ENDBRANCH   3   5
BRANCH   1  17
ATOM     17  S   UNK d   1      25.385   6.274  29.287  0.00  0.00     0.250 S 
ATOM     18  O   UNK d   1      26.861   6.243  29.566  0.00  0.00    -0.205 OA
ATOM     19  O   UNK d   1      25.194   5.633  27.933  0.00  0.00    -0.205 OA
BRANCH  17  20
ATOM     20  C   UNK d   1      24.617   5.257  30.504  0.00  0.00     0.116 A 
ATOM     21  S   UNK d   1      25.342   4.037  31.466  0.00  0.00    -0.070 SA
ATOM     22  C   UNK d   1      23.972   3.541  32.358  0.00  0.00     0.052 A 
ATOM     23  C   UNK d   1      22.982   4.354  31.869  0.00  0.00     0.028 A 
ATOM     24 Br   UNK d   1      23.821   2.185  33.717  0.00  0.00    -0.043 Br
ATOM     25  C   UNK d   1      23.319   5.230  30.920  0.00  0.00     0.034 A 
ENDBRANCH  17  20
ENDBRANCH   1  17
TORSDOF 5
ENDMDL
