MODEL 1
REMARK VINA RESULT:    -8.073      0.000      0.000
REMARK INTER + INTRA:         -10.109
REMARK INTER:                  -9.961
REMARK INTRA:                  -0.148
REMARK UNBOUND:                -0.148
REMARK  4 active torsions:
REMARK  status: ('A' for Active; 'I' for Inactive)
REMARK    1  A    between atoms: S_1  and  N_4 
REMARK    2  A    between atoms: S_1  and  C_24 
REMARK       I    between atoms: N_7  and  C_10 
REMARK    3  A    between atoms: C_10  and  C_12 
REMARK    4  A    between atoms: C_12  and  N_13 
ROOT
ATOM      1  N   UNK d   1      24.443  12.018  29.911  0.00  0.00    -0.304 N 
ATOM      2  C   UNK d   1      23.759  13.222  29.960  0.00  0.00     0.155 C 
ATOM      3  C   UNK d   1      23.690  13.797  28.519  0.00  0.00     0.146 C 
ATOM      4  N   UNK d   1      25.007  13.826  27.947  0.00  0.00    -0.348 N 
ATOM      5  C   UNK d   1      25.704  12.563  27.854  0.00  0.00     0.146 C 
ATOM      6  C   UNK d   1      24.886  11.551  28.626  0.00  0.00     0.155 C 
ATOM      7  C   UNK d   1      25.633  14.999  27.485  0.00  0.00     0.238 C 
ATOM      8  O   UNK d   1      25.024  16.089  27.568  0.00  0.00    -0.272 OA
ENDROOT
BRANCH   7   9
ATOM      9  C   UNK d   1      26.979  14.962  26.911  0.00  0.00     0.239 C 
BRANCH   9  10
ATOM     10  N   UNK d   1      26.918  15.018  25.453  0.00  0.00    -0.259 N 
ATOM     11  C   UNK d   1      26.535  16.081  24.605  0.00  0.00     0.326 C 
ATOM     12  O   UNK d   1      26.159  17.233  25.000  0.00  0.00    -0.247 OA
ATOM     13  N   UNK d   1      26.651  15.621  23.264  0.00  0.00    -0.324 N 
ATOM     14  C   UNK d   1      27.537  14.486  23.283  0.00  0.00     0.116 C 
ATOM     15  H   UNK d   1      26.147  16.083  22.467  0.00  0.00     0.165 HD
ATOM     16  C   UNK d   1      28.974  14.839  23.078  0.00  0.00     0.041 C 
ATOM     17  C   UNK d   1      27.238  13.510  22.169  0.00  0.00     0.041 C 
ATOM     18  C   UNK d   1      27.270  13.897  24.617  0.00  0.00     0.256 C 
ATOM     19  C   UNK d   1      29.585  13.471  22.750  0.00  0.00     0.003 C 
ATOM     20  C   UNK d   1      28.524  12.790  21.929  0.00  0.00     0.003 C 
ATOM     21  O   UNK d   1      27.340  12.688  24.935  0.00  0.00    -0.270 OA
ENDBRANCH   9  10
ENDBRANCH   7   9
BRANCH   1  22
ATOM     22  S   UNK d   1      24.498  10.932  31.160  0.00  0.00     0.262 S 
ATOM     23  O   UNK d   1      25.620   9.925  30.871  0.00  0.00    -0.200 OA
ATOM     24  O   UNK d   1      24.955  11.584  32.469  0.00  0.00    -0.200 OA
BRANCH  22  25
ATOM     25  C   UNK d   1      23.088   9.970  31.476  0.00  0.00     0.097 A 
ATOM     26  C   UNK d   1      21.878  10.426  31.929  0.00  0.00     0.034 A 
ATOM     27  C   UNK d   1      20.816   9.557  32.202  0.00  0.00     0.020 A 
ATOM     28 Br   UNK d   1      21.608  12.293  32.129  0.00  0.00    -0.049 Br
ATOM     29  C   UNK d   1      20.929   8.213  32.031  0.00  0.00     0.001 A 
ATOM     30  C   UNK d   1      22.125   7.726  31.577  0.00  0.00     0.002 A 
ATOM     31  C   UNK d   1      23.172   8.575  31.308  0.00  0.00     0.027 A 
ENDBRANCH  22  25
ENDBRANCH   1  22
TORSDOF 4
ENDMDL
