/Users/jonathanwahrer/Desktop/Msc/3_Semester/Drug_Design_Praktikum/waehrer_HTS_screening/HTS_experiment/out/docking_results/vina_output/3elj/1043_docked.pdbqt
 OpenBabel03192218023D

 31 34  0  0  0  0  0  0  0  0999 V2000
   24.7140   10.9010   29.6310 N   0  0  0  0  0  0  0  0  0  0  0  0
   24.9080   11.6740   28.4220 C   0  0  0  0  0  2  0  0  0  0  0  0
   26.3730   11.9160   28.1580 C   0  0  0  0  0  2  0  0  0  0  0  0
   27.0410   10.5990   28.2110 N   0  0  0  0  0  0  0  0  0  0  0  0
   26.8540    9.8660   29.4250 C   0  0  0  0  0  2  0  0  0  0  0  0
   25.9350   10.7150   30.3340 C   0  0  0  0  0  2  0  0  0  0  0  0
   27.7930   10.1360   27.1220 C   0  0  0  0  0  0  0  0  0  0  0  0
   27.8290   10.9590   26.0930 O   0  0  0  0  0  0  0  0  0  0  0  0
   28.5440    8.9270   26.8950 C   0  0  0  0  0  2  0  0  0  0  0  0
   28.6230    7.9220   27.9070 N   0  0  0  0  0  0  0  0  0  0  0  0
   29.5960    7.8210   28.9780 C   0  0  0  0  0  0  0  0  0  0  0  0
   30.5160    8.6700   29.1450 O   0  0  0  0  0  0  0  0  0  0  0  0
   29.2990    6.6540   29.7260 N   0  0  0  0  0  0  0  0  0  0  0  0
   28.4740    5.8270   28.9110 C   0  0  0  0  0  0  0  0  0  0  0  0
   29.6630    6.5000   30.7060 H   0  0  0  0  0  0  0  0  0  0  0  0
   29.2470    4.7950   28.1260 C   0  0  0  0  0  2  0  0  0  0  0  0
   27.5330    4.9540   29.7230 C   0  0  0  0  0  2  0  0  0  0  0  0
   27.7580    6.7780   28.0630 C   0  0  0  0  0  0  0  0  0  0  0  0
   28.1330    3.8860   27.6430 C   0  0  0  0  0  2  0  0  0  0  0  0
   27.0360    3.9870   28.6750 C   0  0  0  0  0  2  0  0  0  0  0  0
   26.6160    6.6600   27.5490 O   0  0  0  0  0  0  0  0  0  0  0  0
   23.4190   11.4650   30.5890 S   0  0  0  0  0  0  0  0  0  0  0  0
   22.5730   12.3650   29.7070 O   0  0  0  0  0  0  0  0  0  0  0  0
   23.9590   12.3530   31.6810 O   0  0  0  0  0  0  0  0  0  0  0  0
   22.4590   10.1760   31.2750 C   0  0  0  0  0  0  0  0  0  0  0  0
   21.4710   10.4130   32.2090 C   0  0  0  0  0  3  0  0  0  0  0  0
   20.7120    9.3810   32.7490 C   0  0  0  0  0  3  0  0  0  0  0  0
   20.9250    8.0810   32.3670 C   0  0  0  0  0  0  0  0  0  0  0  0
   21.9090    7.8310   31.4350 C   0  0  0  0  0  3  0  0  0  0  0  0
   19.8780    6.6460   33.1100 Br  0  0  0  0  0  0  0  0  0  0  0  0
   22.6620    8.8650   30.8990 C   0  0  0  0  0  3  0  0  0  0  0  0
  1  6  1  0  0  0  0
  1 22  1  0  0  0  0
  2  1  1  0  0  0  0
  3  4  1  0  0  0  0
  3  2  1  0  0  0  0
  4  5  1  0  0  0  0
  5  6  1  0  0  0  0
  7  4  1  0  0  0  0
  8  7  2  0  0  0  0
  9  7  1  0  0  0  0
  9 10  1  0  0  0  0
 10 18  1  0  0  0  0
 10 11  1  0  0  0  0
 11 12  2  0  0  0  0
 11 13  1  0  0  0  0
 13 15  1  0  0  0  0
 14 17  1  0  0  0  0
 14 13  1  0  0  0  0
 16 14  1  0  0  0  0
 18 14  1  0  0  0  0
 19 16  1  0  0  0  0
 19 20  1  0  0  0  0
 20 17  1  0  0  0  0
 21 18  2  0  0  0  0
 22 25  1  0  0  0  0
 22 24  2  0  0  0  0
 23 22  2  0  0  0  0
 25 26  1  0  0  0  0
 26 27  2  0  0  0  0
 28 27  1  0  0  0  0
 28 30  1  0  0  0  0
 29 28  2  0  0  0  0
 31 25  2  0  0  0  0
 31 29  1  0  0  0  0
M  END
>  <Pose>
1

>  <Score>
-7.549

$$$$
