/Users/jonathanwahrer/Desktop/Msc/3_Semester/Drug_Design_Praktikum/waehrer_HTS_screening/HTS_experiment/out/docking_results/vina_output/3elj/1044_docked.pdbqt
 OpenBabel03192218033D

 30 33  0  0  0  0  0  0  0  0999 V2000
   22.6570    9.6280   31.4800 N   0  0  0  0  0  0  0  0  0  0  0  0
   21.3550    9.4340   31.9430 C   0  0  0  0  0  2  0  0  0  0  0  0
   20.7110   10.5760   32.6460 C   0  0  0  0  0  2  0  0  0  0  0  0
   21.2080   11.8630   32.2750 N   0  0  0  0  0  0  0  0  0  0  0  0
   22.2510   11.9520   31.2760 C   0  0  0  0  0  2  0  0  0  0  0  0
   23.2730   10.8810   31.6510 C   0  0  0  0  0  2  0  0  0  0  0  0
   20.7190   13.0610   32.8490 C   0  0  0  0  0  0  0  0  0  0  0  0
   19.8020   13.0320   33.7310 O   0  0  0  0  0  0  0  0  0  0  0  0
   23.1780    8.6840   30.1780 S   0  0  0  0  0  0  0  0  0  0  0  0
   22.2820    8.7120   29.0020 O   0  0  0  0  0  0  0  0  0  0  0  0
   24.5250    9.2310   29.7220 O   0  0  0  0  0  0  0  0  0  0  0  0
   23.4950    7.0360   30.7090 C   0  0  0  0  0  0  0  0  0  0  0  0
   24.7800    6.5410   30.7910 C   0  0  0  0  0  3  0  0  0  0  0  0
   25.0610    5.2540   31.2040 C   0  0  0  0  0  0  0  0  0  0  0  0
   24.0390    4.3970   31.5570 C   0  0  0  0  0  0  0  0  0  0  0  0
   26.3840    4.7390   31.2890 N   0  0  0  0  0  0  0  0  0  0  0  0
   22.7460    4.8920   31.4760 C   0  0  0  0  0  3  0  0  0  0  0  0
   24.2910    3.0920   31.9780 O   0  0  0  0  0  0  0  0  0  0  0  0
   22.4730    6.1790   31.0630 C   0  0  0  0  0  3  0  0  0  0  0  0
   25.5420    2.4440   31.8480 C   0  0  0  0  0  2  0  0  0  0  0  0
   26.6620    3.4110   31.7160 C   0  0  0  0  0  0  0  0  0  0  0  0
   27.8160    2.9960   31.9920 O   0  0  0  0  0  0  0  0  0  0  0  0
   27.1670    5.3740   31.0260 H   0  0  0  0  0  0  0  0  0  0  0  0
   21.2140   14.3810   32.4840 C   0  0  0  0  0  0  0  0  0  0  0  0
   20.5380   15.2080   31.6060 C   0  0  0  0  0  0  0  0  0  0  0  0
   20.9950   16.4570   31.2540 C   0  0  0  0  0  3  0  0  0  0  0  0
   18.9020   14.5420   30.8790 Br  0  0  0  0  0  0  0  0  0  0  0  0
   22.1880   16.8930   31.8110 C   0  0  0  0  0  3  0  0  0  0  0  0
   22.9030   16.1140   32.6890 C   0  0  0  0  0  3  0  0  0  0  0  0
   22.4020   14.8710   33.0090 C   0  0  0  0  0  3  0  0  0  0  0  0
  1  6  1  0  0  0  0
  1  2  1  0  0  0  0
  2  3  1  0  0  0  0
  4  3  1  0  0  0  0
  4  7  1  0  0  0  0
  5  6  1  0  0  0  0
  5  4  1  0  0  0  0
  7  8  2  0  0  0  0
  9 12  1  0  0  0  0
  9  1  1  0  0  0  0
 10  9  2  0  0  0  0
 11  9  2  0  0  0  0
 12 13  2  0  0  0  0
 12 19  1  0  0  0  0
 13 14  1  0  0  0  0
 14 16  1  0  0  0  0
 14 15  2  0  0  0  0
 15 18  1  0  0  0  0
 16 21  1  0  0  0  0
 17 15  1  0  0  0  0
 19 17  2  0  0  0  0
 20 18  1  0  0  0  0
 21 20  1  0  0  0  0
 21 22  2  0  0  0  0
 23 16  1  0  0  0  0
 24  7  1  0  0  0  0
 24 30  1  0  0  0  0
 25 24  2  0  0  0  0
 26 25  1  0  0  0  0
 26 28  2  0  0  0  0
 27 25  1  0  0  0  0
 28 29  1  0  0  0  0
 29 30  2  0  0  0  0
M  END
>  <Pose>
1

>  <Score>
-8.452

$$$$
