MODEL 1
REMARK VINA RESULT:    -8.452      0.000      0.000
REMARK INTER + INTRA:         -10.320
REMARK INTER:                  -9.934
REMARK INTRA:                  -0.386
REMARK UNBOUND:                -0.386
REMARK  3 active torsions:
REMARK  status: ('A' for Active; 'I' for Inactive)
REMARK    1  A    between atoms: S_1  and  N_4 
REMARK    2  A    between atoms: S_1  and  C_19 
REMARK       I    between atoms: N_7  and  C_10 
REMARK    3  A    between atoms: C_10  and  C_12 
ROOT
ATOM      1  N   UNK d   1      22.657   9.628  31.480  0.00  0.00    -0.304 N 
ATOM      2  C   UNK d   1      21.355   9.434  31.943  0.00  0.00     0.155 C 
ATOM      3  C   UNK d   1      20.711  10.576  32.646  0.00  0.00     0.146 C 
ATOM      4  N   UNK d   1      21.208  11.863  32.275  0.00  0.00    -0.345 N 
ATOM      5  C   UNK d   1      22.251  11.952  31.276  0.00  0.00     0.146 C 
ATOM      6  C   UNK d   1      23.273  10.881  31.651  0.00  0.00     0.155 C 
ATOM      7  C   UNK d   1      20.719  13.061  32.849  0.00  0.00     0.255 C 
ATOM      8  O   UNK d   1      19.802  13.032  33.731  0.00  0.00    -0.267 OA
ENDROOT
BRANCH   1   9
ATOM      9  S   UNK d   1      23.178   8.684  30.178  0.00  0.00     0.261 S 
ATOM     10  O   UNK d   1      22.282   8.712  29.002  0.00  0.00    -0.200 OA
ATOM     11  O   UNK d   1      24.525   9.231  29.722  0.00  0.00    -0.200 OA
BRANCH   9  12
ATOM     12  C   UNK d   1      23.495   7.036  30.709  0.00  0.00     0.082 A 
ATOM     13  C   UNK d   1      24.780   6.541  30.791  0.00  0.00     0.057 A 
ATOM     14  C   UNK d   1      25.061   5.254  31.204  0.00  0.00     0.070 A 
ATOM     15  C   UNK d   1      24.039   4.397  31.557  0.00  0.00     0.096 A 
ATOM     16  N   UNK d   1      26.384   4.739  31.289  0.00  0.00    -0.323 N 
ATOM     17  C   UNK d   1      22.746   4.892  31.476  0.00  0.00     0.040 A 
ATOM     18  O   UNK d   1      24.291   3.092  31.978  0.00  0.00    -0.340 OA
ATOM     19  C   UNK d   1      22.473   6.179  31.063  0.00  0.00     0.028 A 
ATOM     20  C   UNK d   1      25.542   2.444  31.848  0.00  0.00     0.278 C 
ATOM     21  C   UNK d   1      26.662   3.411  31.716  0.00  0.00     0.246 C 
ATOM     22  O   UNK d   1      27.816   2.996  31.992  0.00  0.00    -0.271 OA
ATOM     23  H   UNK d   1      27.167   5.374  31.026  0.00  0.00     0.169 HD
ENDBRANCH   9  12
ENDBRANCH   1   9
BRANCH   7  24
ATOM     24  C   UNK d   1      21.214  14.381  32.484  0.00  0.00     0.049 A 
ATOM     25  C   UNK d   1      20.538  15.208  31.606  0.00  0.00     0.026 A 
ATOM     26  C   UNK d   1      20.995  16.457  31.254  0.00  0.00     0.020 A 
ATOM     27 Br   UNK d   1      18.902  14.542  30.879  0.00  0.00    -0.050 Br
ATOM     28  C   UNK d   1      22.188  16.893  31.811  0.00  0.00     0.001 A 
ATOM     29  C   UNK d   1      22.903  16.114  32.689  0.00  0.00     0.001 A 
ATOM     30  C   UNK d   1      22.402  14.871  33.009  0.00  0.00     0.018 A 
ENDBRANCH   7  24
TORSDOF 3
ENDMDL
