MODEL 1
REMARK VINA RESULT:    -7.815      0.000      0.000
REMARK INTER + INTRA:          -9.651
REMARK INTER:                  -9.186
REMARK INTRA:                  -0.465
REMARK UNBOUND:                -0.465
REMARK  3 active torsions:
REMARK  status: ('A' for Active; 'I' for Inactive)
REMARK    1  A    between atoms: S_1  and  N_4 
REMARK    2  A    between atoms: S_1  and  C_22 
REMARK       I    between atoms: N_7  and  C_10 
REMARK    3  A    between atoms: C_10  and  C_12 
ROOT
ATOM      1  N   UNK d   1      22.782  10.347  31.970  0.00  0.00    -0.203 NA
ATOM      2  C   UNK d   1      24.057   9.753  32.136  0.00  0.00     0.127 C 
ATOM      3  C   UNK d   1      24.338   8.535  31.325  0.00  0.00     0.141 C 
ATOM      4  N   UNK d   1      23.189   7.698  31.107  0.00  0.00    -0.344 N 
ATOM      5  C   UNK d   1      21.951   8.131  31.714  0.00  0.00     0.141 C 
ATOM      6  C   UNK d   1      21.797   9.577  31.290  0.00  0.00     0.127 C 
ATOM      7  C   UNK d   1      23.202   6.507  30.357  0.00  0.00     0.274 C 
ATOM      8  O   UNK d   1      22.151   5.844  30.222  0.00  0.00    -0.266 OA
ENDROOT
BRANCH   7   9
ATOM      9  C   UNK d   1      24.435   6.038  29.732  0.00  0.00     0.148 A 
ATOM     10  N   UNK d   1      25.040   6.596  28.688  0.00  0.00    -0.161 NA
ATOM     11  N   UNK d   1      26.144   5.914  28.372  0.00  0.00    -0.225 N 
ATOM     12  C   UNK d   1      26.286   4.872  29.223  0.00  0.00     0.152 A 
ATOM     13  C   UNK d   1      27.070   6.092  27.407  0.00  0.00     0.141 A 
ATOM     14  C   UNK d   1      25.192   4.952  30.091  0.00  0.00     0.091 A 
ATOM     15  N   UNK d   1      27.328   4.008  29.130  0.00  0.00    -0.240 NA
ATOM     16  C   UNK d   1      28.263   4.189  28.153  0.00  0.00     0.139 A 
ATOM     17  C   UNK d   1      28.146   5.243  27.273  0.00  0.00     0.046 A 
ATOM     18 Br   UNK d   1      29.465   5.496  25.896  0.00  0.00    -0.048 Br
ENDBRANCH   7   9
BRANCH   1  19
ATOM     19  S   UNK d   1      22.827  11.920  31.271  0.00  0.00     0.246 S 
ATOM     20  O   UNK d   1      23.008  11.822  29.790  0.00  0.00    -0.206 OA
ATOM     21  O   UNK d   1      24.048  12.617  31.856  0.00  0.00    -0.206 OA
BRANCH  19  22
ATOM     22  C   UNK d   1      21.374  12.828  31.609  0.00  0.00     0.111 A 
ATOM     23  C   UNK d   1      20.755  13.747  30.793  0.00  0.00     0.138 A 
ATOM     24  N   UNK d   1      19.670  14.228  31.401  0.00  0.00    -0.284 N 
ATOM     25  N   UNK d   1      19.563  13.653  32.583  0.00  0.00    -0.184 NA
ATOM     26  C   UNK d   1      18.746  15.207  30.892  0.00  0.00     0.179 C 
ATOM     27  C   UNK d   1      20.588  12.782  32.760  0.00  0.00     0.165 A 
ENDBRANCH  19  22
ENDBRANCH   1  19
TORSDOF 3
ENDMDL
