/Users/jonathanwahrer/Desktop/Msc/3_Semester/Drug_Design_Praktikum/waehrer_HTS_screening/HTS_experiment/out/docking_results/vina_output/3elj/1051_docked.pdbqt
 OpenBabel03192218033D

 27 30  0  0  0  0  0  0  0  0999 V2000
   22.7820   10.3470   31.9700 N   0  0  0  0  0  0  0  0  0  0  0  0
   24.0570    9.7530   32.1360 C   0  0  0  0  0  2  0  0  0  0  0  0
   24.3380    8.5350   31.3250 C   0  0  0  0  0  2  0  0  0  0  0  0
   23.1890    7.6980   31.1070 N   0  0  0  0  0  0  0  0  0  0  0  0
   21.9510    8.1310   31.7140 C   0  0  0  0  0  2  0  0  0  0  0  0
   21.7970    9.5770   31.2900 C   0  0  0  0  0  2  0  0  0  0  0  0
   23.2020    6.5070   30.3570 C   0  0  0  0  0  0  0  0  0  0  0  0
   22.1510    5.8440   30.2220 O   0  0  0  0  0  0  0  0  0  0  0  0
   24.4350    6.0380   29.7320 C   0  0  0  0  0  0  0  0  0  0  0  0
   25.0400    6.5960   28.6880 N   0  0  0  0  0  0  0  0  0  0  0  0
   26.1440    5.9140   28.3720 N   0  0  0  0  0  0  0  0  0  0  0  0
   26.2860    4.8720   29.2230 C   0  0  0  0  0  0  0  0  0  0  0  0
   27.0700    6.0920   27.4070 C   0  0  0  0  0  3  0  0  0  0  0  0
   25.1920    4.9520   30.0910 C   0  0  0  0  0  3  0  0  0  0  0  0
   27.3280    4.0080   29.1300 N   0  0  0  0  0  0  0  0  0  0  0  0
   28.2630    4.1890   28.1530 C   0  0  0  0  0  3  0  0  0  0  0  0
   28.1460    5.2430   27.2730 C   0  0  0  0  0  0  0  0  0  0  0  0
   29.4650    5.4960   25.8960 Br  0  0  0  0  0  0  0  0  0  0  0  0
   22.8270   11.9200   31.2710 S   0  0  0  0  0  0  0  0  0  0  0  0
   23.0080   11.8220   29.7900 O   0  0  0  0  0  0  0  0  0  0  0  0
   24.0480   12.6170   31.8560 O   0  0  0  0  0  0  0  0  0  0  0  0
   21.3740   12.8280   31.6090 C   0  0  0  0  0  0  0  0  0  0  0  0
   20.7550   13.7470   30.7930 C   0  0  0  0  0  3  0  0  0  0  0  0
   19.6700   14.2280   31.4010 N   0  0  0  0  0  0  0  0  0  0  0  0
   19.5630   13.6530   32.5830 N   0  0  0  0  0  0  0  0  0  0  0  0
   18.7460   15.2070   30.8920 C   0  0  0  0  0  1  0  0  0  0  0  0
   20.5880   12.7820   32.7600 C   0  0  0  0  0  3  0  0  0  0  0  0
  1  2  1  0  0  0  0
  3  2  1  0  0  0  0
  4  3  1  0  0  0  0
  4  5  1  0  0  0  0
  6  5  1  0  0  0  0
  6  1  1  0  0  0  0
  7  4  1  0  0  0  0
  8  7  2  0  0  0  0
  9 14  1  0  0  0  0
  9  7  1  0  0  0  0
 10  9  2  0  0  0  0
 11 10  1  0  0  0  0
 11 12  1  0  0  0  0
 12 14  2  0  0  0  0
 13 11  1  0  0  0  0
 15 12  1  0  0  0  0
 16 15  2  0  0  0  0
 17 13  2  0  0  0  0
 17 16  1  0  0  0  0
 18 17  1  0  0  0  0
 19 22  1  0  0  0  0
 19 21  2  0  0  0  0
 19  1  1  0  0  0  0
 20 19  2  0  0  0  0
 22 27  1  0  0  0  0
 23 24  1  0  0  0  0
 23 22  2  0  0  0  0
 24 25  1  0  0  0  0
 25 27  2  0  0  0  0
 26 24  1  0  0  0  0
M  END
>  <Pose>
1

>  <Score>
-7.815

$$$$
