/Users/jonathanwahrer/Desktop/Msc/3_Semester/Drug_Design_Praktikum/waehrer_HTS_screening/HTS_experiment/out/docking_results/vina_output/3elj/1056_docked.pdbqt
 OpenBabel03192218033D

 30 33  0  0  1  0  0  0  0  0999 V2000
   24.1480   10.7380   31.2990 N   0  0  0  0  0  0  0  0  0  0  0  0
   24.8640   10.5110   30.1010 C   0  0  0  0  0  2  0  0  0  0  0  0
   24.6580    9.2180   29.4260 C   0  0  0  0  0  2  0  0  0  0  0  0
   24.5490    8.1340   30.3570 N   0  0  0  0  0  0  0  0  0  0  0  0
   24.7120    8.3920   31.7590 C   0  0  0  0  0  2  0  0  0  0  0  0
   24.0610    9.6600   32.2150 C   0  0  0  0  0  2  0  0  0  0  0  0
   24.2850    6.8240   29.9100 C   0  0  0  0  0  0  0  0  0  0  0  0
   24.1450    6.6190   28.6830 O   0  0  0  0  0  0  0  0  0  0  0  0
   24.1620    5.6760   30.7990 C   0  0  1  0  0  3  0  0  0  0  0  0
   22.9490    5.4020   31.4050 C   0  0  0  0  0  3  0  0  0  0  0  0
   22.8340    4.3450   32.2230 N   0  0  0  0  0  0  0  0  0  0  0  0
   23.8670    3.5160   32.4870 C   0  0  1  0  0  3  0  0  0  0  0  0
   25.0600    3.7540   31.9140 N   0  0  0  0  0  0  0  0  0  0  0  0
   23.7190    2.4270   33.3400 C   0  0  0  0  0  3  0  0  0  0  0  0
   26.1060    2.9210   32.1780 C   0  0  0  0  0  3  0  0  0  0  0  0
   25.2060    4.8180   31.0810 C   0  0  0  0  0  0  0  0  0  0  0  0
   25.9790    1.8350   33.0210 C   0  0  0  0  0  0  0  0  0  0  0  0
   24.7590    1.5710   33.6230 C   0  0  0  0  0  3  0  0  0  0  0  0
   27.0930    0.9070   33.3320 C   0  0  0  0  0  1  0  0  0  0  0  0
   26.3060    5.0360   30.5530 O   0  0  0  0  0  0  0  0  0  0  0  0
   22.7910   11.7420   31.1880 S   0  0  0  0  0  0  0  0  0  0  0  0
   23.1110   13.1080   31.6850 O   0  0  0  0  0  0  0  0  0  0  0  0
   22.3890   11.8430   29.7370 O   0  0  0  0  0  0  0  0  0  0  0  0
   21.4600   11.0500   32.0750 C   0  0  0  0  0  0  0  0  0  0  0  0
   21.2390    9.6890   32.0460 C   0  0  0  0  0  3  0  0  0  0  0  0
   20.1590    9.2040   32.7760 C   0  0  0  0  0  0  0  0  0  0  0  0
   19.3380   10.0280   33.5010 C   0  0  0  0  0  3  0  0  0  0  0  0
   19.8030    7.3360   32.7760 Br  0  0  0  0  0  0  0  0  0  0  0  0
   19.5690   11.3960   33.5230 C   0  0  0  0  0  3  0  0  0  0  0  0
   20.6500   11.9050   32.7950 C   0  0  0  0  0  3  0  0  0  0  0  0
  1  6  1  0  0  0  0
  2  1  1  0  0  0  0
  3  2  1  0  0  0  0
  3  4  1  0  0  0  0
  4  5  1  0  0  0  0
  5  6  1  0  0  0  0
  7  4  1  0  0  0  0
  8  7  2  0  0  0  0
  9  7  1  6  0  0  0
  9 16  1  0  0  0  0
  9 10  1  0  0  0  0
 10 11  2  0  0  0  0
 11 12  1  0  0  0  0
 12 14  1  1  0  0  0
 13 15  1  0  0  0  0
 13 12  1  0  0  0  0
 14 18  2  0  0  0  0
 15 17  2  0  0  0  0
 16 13  1  0  0  0  0
 17 19  1  0  0  0  0
 17 18  1  0  0  0  0
 20 16  2  0  0  0  0
 21  1  1  0  0  0  0
 21 22  2  0  0  0  0
 21 24  1  0  0  0  0
 23 21  2  0  0  0  0
 24 30  1  0  0  0  0
 25 24  2  0  0  0  0
 25 26  1  0  0  0  0
 26 28  1  0  0  0  0
 26 27  2  0  0  0  0
 27 29  1  0  0  0  0
 30 29  2  0  0  0  0
M  END
>  <Pose>
1

>  <Score>
-8.786

$$$$
