MODEL 1
REMARK VINA RESULT:    -8.561      0.000      0.000
REMARK INTER + INTRA:         -11.870
REMARK INTER:                 -11.064
REMARK INTRA:                  -0.806
REMARK UNBOUND:                -0.806
REMARK  5 active torsions:
REMARK  status: ('A' for Active; 'I' for Inactive)
REMARK    1  A    between atoms: S_1  and  N_4 
REMARK    2  A    between atoms: S_1  and  C_23 
REMARK    3  A    between atoms: N_7  and  C_10 
REMARK    4  A    between atoms: C_10  and  N_11 
REMARK    5  A    between atoms: C_13  and  N_18 
ROOT
ATOM      1  N   UNK d   1      23.852   9.481  30.680  0.00  0.00    -0.303 N 
ATOM      2  C   UNK d   1      23.951  10.133  29.438  0.00  0.00     0.165 C 
ATOM      3  C   UNK d   1      24.338  11.581  29.552  0.00  0.00     0.295 C 
ATOM      4  N   UNK d   1      24.094  12.155  30.827  0.00  0.00     0.111 NA
ATOM      5  C   UNK d   1      24.756  11.432  31.853  0.00  0.00     0.295 C 
ATOM      6  C   UNK d   1      24.645   9.956  31.749  0.00  0.00     0.165 C 
ENDROOT
BRANCH   4   7
ATOM      7  C   UNK d   1      22.729  12.480  31.015  0.00  0.00     0.426 C 
BRANCH   7   8
ATOM      8  N   UNK d   1      22.374  13.856  30.941  0.00  0.00    -0.204 N 
ATOM      9  N   UNK d   1      22.766  14.599  29.927  0.00  0.00    -0.149 NA
ATOM     10  C   UNK d   1      22.481  15.903  29.784  0.00  0.00     0.155 A 
ATOM     11  C   UNK d   1      21.725  16.483  30.776  0.00  0.00     0.058 A 
ATOM     12  C   UNK d   1      21.284  15.759  31.863  0.00  0.00     0.080 A 
ATOM     13  C   UNK d   1      21.636  14.416  31.912  0.00  0.00     0.265 A 
ATOM     14  O   UNK d   1      21.224  13.747  32.923  0.00  0.00    -0.267 OA
BRANCH  10  15
ATOM     15  N   UNK d   1      22.923  16.685  28.669  0.00  0.00    -0.298 N 
ATOM     16  C   UNK d   1      23.810  16.362  27.722  0.00  0.00     0.215 A 
ATOM     17  N   UNK d   1      23.923  17.396  26.869  0.00  0.00    -0.254 NA
ATOM     18  C   UNK d   1      23.106  18.389  27.265  0.00  0.00     0.135 A 
ATOM     19  C   UNK d   1      22.482  17.924  28.404  0.00  0.00     0.119 A 
ENDBRANCH  10  15
ENDBRANCH   7   8
ENDBRANCH   4   7
BRANCH   1  20
ATOM     20  S   UNK d   1      23.380   7.889  30.719  0.00  0.00     0.267 S 
ATOM     21  O   UNK d   1      23.215   7.302  29.357  0.00  0.00    -0.200 OA
ATOM     22  O   UNK d   1      24.367   7.065  31.482  0.00  0.00    -0.200 OA
BRANCH  20  23
ATOM     23  C   UNK d   1      21.808   7.768  31.536  0.00  0.00     0.121 A 
ATOM     24  S   UNK d   1      20.833   9.009  32.181  0.00  0.00    -0.069 SA
ATOM     25  C   UNK d   1      19.540   8.064  32.763  0.00  0.00     0.052 A 
ATOM     26  C   UNK d   1      19.912   6.784  32.434  0.00  0.00     0.028 A 
ATOM     27 Br   UNK d   1      17.945   8.624  33.663  0.00  0.00    -0.043 Br
ATOM     28  C   UNK d   1      21.085   6.639  31.799  0.00  0.00     0.035 A 
ENDBRANCH  20  23
ENDBRANCH   1  20
TORSDOF 5
ENDMDL
