MODEL 1
REMARK VINA RESULT:    -9.246      0.000      0.000
REMARK INTER + INTRA:         -12.544
REMARK INTER:                 -11.408
REMARK INTRA:                  -1.135
REMARK UNBOUND:                -1.135
REMARK  4 active torsions:
REMARK  status: ('A' for Active; 'I' for Inactive)
REMARK    1  A    between atoms: S_1  and  N_4 
REMARK    2  A    between atoms: S_1  and  C_22 
REMARK    3  A    between atoms: N_7  and  C_10 
REMARK    4  A    between atoms: C_10  and  N_11 
ROOT
ATOM      1  N   UNK d   1      23.703  11.309  30.673  0.00  0.00    -0.203 NA
ATOM      2  C   UNK d   1      23.342  10.886  29.357  0.00  0.00     0.127 C 
ATOM      3  C   UNK d   1      23.393   9.348  29.382  0.00  0.00     0.134 C 
ATOM      4  N   UNK d   1      24.358   8.877  30.277  0.00  0.00    -0.393 N 
ATOM      5  C   UNK d   1      25.518   9.707  30.457  0.00  0.00     0.134 C 
ATOM      6  C   UNK d   1      25.167  11.149  30.743  0.00  0.00     0.127 C 
ENDROOT
BRANCH   4   7
ATOM      7  C   UNK d   1      24.004   8.085  31.378  0.00  0.00     0.273 C 
BRANCH   7   8
ATOM      8  N   UNK d   1      22.631   8.024  31.762  0.00  0.00    -0.223 N 
ATOM      9  N   UNK d   1      22.004   9.116  32.415  0.00  0.00    -0.278 N 
ATOM     10  C   UNK d   1      20.654   8.713  32.630  0.00  0.00     0.122 A 
ATOM     11  H   UNK d   1      22.442  10.028  32.685  0.00  0.00     0.189 HD
ATOM     12  C   UNK d   1      19.755   9.488  33.224  0.00  0.00     0.023 C 
ATOM     13  N   UNK d   1      20.423   7.405  32.130  0.00  0.00    -0.283 N 
ATOM     14  C   UNK d   1      18.324   9.333  33.568  0.00  0.00     0.031 C 
ATOM     15  C   UNK d   1      17.970   7.879  33.766  0.00  0.00     0.006 C 
ATOM     16  C   UNK d   1      17.978   7.252  32.383  0.00  0.00     0.021 C 
ATOM     17  C   UNK d   1      19.273   6.555  32.095  0.00  0.00     0.135 C 
ATOM     18  C   UNK d   1      21.674   6.988  31.591  0.00  0.00     0.346 A 
ATOM     19  O   UNK d   1      21.857   5.867  31.055  0.00  0.00    -0.245 OA
ENDBRANCH   7   8
ENDBRANCH   4   7
BRANCH   1  20
ATOM     20  S   UNK d   1      23.374  12.958  30.990  0.00  0.00     0.243 S 
ATOM     21  O   UNK d   1      23.684  13.835  29.806  0.00  0.00    -0.206 OA
ATOM     22  O   UNK d   1      24.305  13.396  32.097  0.00  0.00    -0.206 OA
BRANCH  20  23
ATOM     23  C   UNK d   1      21.759  13.261  31.505  0.00  0.00     0.076 A 
ATOM     24  C   UNK d   1      20.890  14.149  30.945  0.00  0.00     0.043 A 
ATOM     25  C   UNK d   1      19.604  14.317  31.439  0.00  0.00     0.012 A 
ATOM     26  C   UNK d   1      19.154  13.600  32.508  0.00  0.00     0.019 A 
ATOM     27 Br   UNK d   1      18.396  15.575  30.633  0.00  0.00    -0.051 Br
ATOM     28  C   UNK d   1      20.016  12.688  33.098  0.00  0.00     0.003 A 
ATOM     29  C   UNK d   1      21.285  12.532  32.601  0.00  0.00     0.025 A 
ENDBRANCH  20  23
ENDBRANCH   1  20
TORSDOF 4
ENDMDL
