/Users/jonathanwahrer/Desktop/Msc/3_Semester/Drug_Design_Praktikum/waehrer_HTS_screening/HTS_experiment/out/docking_results/vina_output/3elj/1081_docked.pdbqt
 OpenBabel03192218043D

 27 30  0  0  0  0  0  0  0  0999 V2000
   23.4210    8.3700   31.2620 N   0  0  0  0  0  0  0  0  0  0  0  0
   22.2310    9.0510   30.9220 C   0  0  0  0  0  2  0  0  0  0  0  0
   22.3490   10.5020   30.5970 C   0  0  0  0  0  2  0  0  0  0  0  0
   23.6910   11.0250   30.6690 N   0  0  0  0  0  0  0  0  0  0  0  0
   24.5890   10.5140   31.6540 C   0  0  0  0  0  3  0  0  0  0  0  0
   24.4150    9.0720   31.9810 C   0  0  0  0  0  3  0  0  0  0  0  0
   24.0480   12.0540   29.7360 C   0  0  0  0  0  0  0  0  0  0  0  0
   23.5450   13.3000   29.7070 N   0  0  0  0  0  0  0  0  0  0  0  0
   24.1460   13.9000   28.6740 N   0  0  0  0  0  0  0  0  0  0  0  0
   24.9800   13.0630   28.0960 N   0  0  0  0  0  0  0  0  0  0  0  0
   24.9470   11.9070   28.7260 N   0  0  0  0  0  0  0  0  0  0  0  0
   22.5860   13.8550   30.5970 C   0  0  0  0  0  0  0  0  0  0  0  0
   21.2370   13.6760   30.3970 C   0  0  0  0  0  3  0  0  0  0  0  0
   20.3210   14.2330   31.2890 C   0  0  0  0  0  3  0  0  0  0  0  0
   20.7380   14.9660   32.3780 C   0  0  0  0  0  3  0  0  0  0  0  0
   22.1120   15.1480   32.5820 C   0  0  0  0  0  3  0  0  0  0  0  0
   23.0140   14.5840   31.6780 C   0  0  0  0  0  3  0  0  0  0  0  0
   24.0020    7.2250   30.1470 S   0  0  0  0  0  0  0  0  0  0  0  0
   25.2320    7.6210   29.4300 O   0  0  0  0  0  0  0  0  0  0  0  0
   22.9290    7.0300   29.0820 O   0  0  0  0  0  0  0  0  0  0  0  0
   24.2200    5.6880   30.9350 C   0  0  0  0  0  0  0  0  0  0  0  0
   25.4150    5.0140   30.9420 C   0  0  0  0  0  3  0  0  0  0  0  0
   25.5760    3.7840   31.5790 C   0  0  0  0  0  3  0  0  0  0  0  0
   24.4700    3.2310   32.2320 C   0  0  0  0  0  0  0  0  0  0  0  0
   23.2650    3.8980   32.2320 C   0  0  0  0  0  3  0  0  0  0  0  0
   24.6200    1.5470   33.1310 Br  0  0  0  0  0  0  0  0  0  0  0  0
   23.1490    5.1020   31.5950 C   0  0  0  0  0  3  0  0  0  0  0  0
  1  6  1  0  0  0  0
  2  1  1  0  0  0  0
  3  4  1  0  0  0  0
  3  2  1  0  0  0  0
  4  5  1  0  0  0  0
  5  6  2  0  0  0  0
  7  4  1  0  0  0  0
  8  7  1  0  0  0  0
  8 12  1  0  0  0  0
  9  8  1  0  0  0  0
 10  9  2  0  0  0  0
 10 11  1  0  0  0  0
 11  7  2  0  0  0  0
 12 17  1  0  0  0  0
 13 12  2  0  0  0  0
 13 14  1  0  0  0  0
 14 15  2  0  0  0  0
 15 16  1  0  0  0  0
 17 16  2  0  0  0  0
 18 21  1  0  0  0  0
 18  1  1  0  0  0  0
 19 18  2  0  0  0  0
 20 18  2  0  0  0  0
 21 22  2  0  0  0  0
 21 27  1  0  0  0  0
 22 23  1  0  0  0  0
 23 24  2  0  0  0  0
 24 25  1  0  0  0  0
 24 26  1  0  0  0  0
 27 25  2  0  0  0  0
M  END
>  <Pose>
1

>  <Score>
-8.070

$$$$
