/Users/jonathanwahrer/Desktop/Msc/3_Semester/Drug_Design_Praktikum/waehrer_HTS_screening/HTS_experiment/out/docking_results/vina_output/3elj/1084_docked.pdbqt
 OpenBabel03192218043D

 29 32  0  0  0  0  0  0  0  0999 V2000
   24.2880    8.0050   30.3260 N   0  0  0  0  0  0  0  0  0  0  0  0
   23.1530    8.2050   29.4890 C   0  0  0  0  0  2  0  0  0  0  0  0
   22.7780    9.6620   29.3200 C   0  0  0  0  0  2  0  0  0  0  0  0
   23.2370   10.3640   30.4820 N   0  0  0  0  0  0  0  0  0  0  0  0
   24.6450   10.4010   30.7510 C   0  0  0  0  0  2  0  0  0  0  0  0
   25.2400    9.0900   30.3040 C   0  0  0  0  0  2  0  0  0  0  0  0
   22.3170   11.0000   31.3320 C   0  0  0  0  0  0  0  0  0  0  0  0
   22.2710   12.3340   31.4840 N   0  0  0  0  0  0  0  0  0  0  0  0
   21.4310   12.9900   32.2660 C   0  0  0  0  0  0  0  0  0  0  0  0
   20.5180   12.2450   32.9930 C   0  0  0  0  0  3  0  0  0  0  0  0
   20.5250   10.8740   32.8710 C   0  0  0  0  0  0  0  0  0  0  0  0
   21.4160   10.2870   32.0510 N   0  0  0  0  0  0  0  0  0  0  0  0
   19.5600   10.0380   33.6350 C   0  0  0  0  0  1  0  0  0  0  0  0
   21.4860   14.4030   32.3380 N   0  0  0  0  0  0  0  0  0  0  0  0
   22.5480   15.1310   33.0000 C   0  0  0  0  0  2  0  0  0  0  0  0
   22.5650   16.5240   32.3740 C   0  0  0  0  0  2  0  0  0  0  0  0
   22.3970   16.3540   30.9980 O   0  0  0  0  0  0  0  0  0  0  0  0
   21.1070   16.0310   30.6440 C   0  0  0  0  0  2  0  0  0  0  0  0
   20.4320   15.1760   31.7220 C   0  0  0  0  0  2  0  0  0  0  0  0
   25.1180    6.5910   29.7770 S   0  0  0  0  0  0  0  0  0  0  0  0
   24.5800    6.2430   28.3990 O   0  0  0  0  0  0  0  0  0  0  0  0
   26.5800    6.9030   29.6380 O   0  0  0  0  0  0  0  0  0  0  0  0
   24.8450    5.2380   30.8370 C   0  0  0  0  0  0  0  0  0  0  0  0
   23.5780    5.0580   31.3740 C   0  0  0  0  0  3  0  0  0  0  0  0
   23.2880    4.0110   32.2200 C   0  0  0  0  0  3  0  0  0  0  0  0
   24.2720    3.1120   32.5520 C   0  0  0  0  0  0  0  0  0  0  0  0
   25.5480    3.2570   32.0390 C   0  0  0  0  0  3  0  0  0  0  0  0
   23.8550    1.6680   33.7240 Br  0  0  0  0  0  0  0  0  0  0  0  0
   25.8080    4.3260   31.1860 C   0  0  0  0  0  3  0  0  0  0  0  0
  2  1  1  0  0  0  0
  3  2  1  0  0  0  0
  3  4  1  0  0  0  0
  4  5  1  0  0  0  0
  4  7  1  0  0  0  0
  6  1  1  0  0  0  0
  6  5  1  0  0  0  0
  7  8  2  0  0  0  0
  7 12  1  0  0  0  0
  8  9  1  0  0  0  0
  9 14  1  0  0  0  0
  9 10  2  0  0  0  0
 11 10  1  0  0  0  0
 11 13  1  0  0  0  0
 12 11  2  0  0  0  0
 14 15  1  0  0  0  0
 16 15  1  0  0  0  0
 17 16  1  0  0  0  0
 18 17  1  0  0  0  0
 18 19  1  0  0  0  0
 19 14  1  0  0  0  0
 20  1  1  0  0  0  0
 20 23  1  0  0  0  0
 21 20  2  0  0  0  0
 22 20  2  0  0  0  0
 23 29  2  0  0  0  0
 23 24  1  0  0  0  0
 24 25  2  0  0  0  0
 25 26  1  0  0  0  0
 26 28  1  0  0  0  0
 27 26  2  0  0  0  0
 29 27  1  0  0  0  0
M  END
>  <Pose>
1

>  <Score>
-8.463

$$$$
