MODEL 1
REMARK VINA RESULT:    -8.463      0.000      0.000
REMARK INTER + INTRA:         -11.238
REMARK INTER:                 -10.442
REMARK INTRA:                  -0.796
REMARK UNBOUND:                -0.796
REMARK  4 active torsions:
REMARK  status: ('A' for Active; 'I' for Inactive)
REMARK    1  A    between atoms: S_1  and  N_4 
REMARK    2  A    between atoms: S_1  and  C_23 
REMARK    3  A    between atoms: N_7  and  C_10 
REMARK    4  A    between atoms: C_12  and  N_17 
ROOT
ATOM      1  N   UNK d   1      24.288   8.005  30.326  0.00  0.00    -0.203 NA
ATOM      2  C   UNK d   1      23.153   8.205  29.489  0.00  0.00     0.128 C 
ATOM      3  C   UNK d   1      22.778   9.662  29.320  0.00  0.00     0.157 C 
ATOM      4  N   UNK d   1      23.237  10.364  30.482  0.00  0.00    -0.212 N 
ATOM      5  C   UNK d   1      24.645  10.401  30.751  0.00  0.00     0.157 C 
ATOM      6  C   UNK d   1      25.240   9.090  30.304  0.00  0.00     0.128 C 
ENDROOT
BRANCH   4   7
ATOM      7  C   UNK d   1      22.317  11.000  31.332  0.00  0.00     0.726 A 
ATOM      8  N   UNK d   1      22.271  12.334  31.484  0.00  0.00    -0.045 NA
ATOM      9  C   UNK d   1      21.431  12.990  32.266  0.00  0.00     0.146 A 
ATOM     10  C   UNK d   1      20.518  12.245  32.993  0.00  0.00     0.078 A 
ATOM     11  C   UNK d   1      20.525  10.874  32.871  0.00  0.00     0.053 A 
ATOM     12  N   UNK d   1      21.416  10.287  32.051  0.00  0.00    -0.068 NA
ATOM     13  C   UNK d   1      19.560  10.038  33.635  0.00  0.00     0.071 C 
BRANCH   9  14
ATOM     14  N   UNK d   1      21.486  14.403  32.338  0.00  0.00    -0.361 N 
ATOM     15  C   UNK d   1      22.548  15.131  33.000  0.00  0.00     0.150 C 
ATOM     16  C   UNK d   1      22.565  16.524  32.374  0.00  0.00     0.187 C 
ATOM     17  O   UNK d   1      22.397  16.354  30.998  0.00  0.00    -0.388 OA
ATOM     18  C   UNK d   1      21.107  16.031  30.644  0.00  0.00     0.187 C 
ATOM     19  C   UNK d   1      20.432  15.176  31.722  0.00  0.00     0.150 C 
ENDBRANCH   9  14
ENDBRANCH   4   7
BRANCH   1  20
ATOM     20  S   UNK d   1      25.118   6.591  29.777  0.00  0.00     0.243 S 
ATOM     21  O   UNK d   1      24.580   6.243  28.399  0.00  0.00    -0.206 OA
ATOM     22  O   UNK d   1      26.580   6.903  29.638  0.00  0.00    -0.206 OA
BRANCH  20  23
ATOM     23  C   UNK d   1      24.845   5.238  30.837  0.00  0.00     0.074 A 
ATOM     24  C   UNK d   1      23.578   5.058  31.374  0.00  0.00     0.026 A 
ATOM     25  C   UNK d   1      23.288   4.011  32.220  0.00  0.00     0.020 A 
ATOM     26  C   UNK d   1      24.272   3.112  32.552  0.00  0.00     0.011 A 
ATOM     27  C   UNK d   1      25.548   3.257  32.039  0.00  0.00     0.020 A 
ATOM     28 Br   UNK d   1      23.855   1.668  33.724  0.00  0.00    -0.051 Br
ATOM     29  C   UNK d   1      25.808   4.326  31.186  0.00  0.00     0.026 A 
ENDBRANCH  20  23
ENDBRANCH   1  20
TORSDOF 4
ENDMDL
