/Users/jonathanwahrer/Desktop/Msc/3_Semester/Drug_Design_Praktikum/waehrer_HTS_screening/HTS_experiment/out/docking_results/vina_output/3elj/1089_docked.pdbqt
 OpenBabel03192218043D

 25 28  0  0  0  0  0  0  0  0999 V2000
   24.2710    9.9430   30.1410 N   0  0  0  0  0  0  0  0  0  0  0  0
   25.0460   11.1180   30.2380 C   0  0  0  0  0  2  0  0  0  0  0  0
   24.2790   12.4070   30.3980 C   0  0  0  0  0  2  0  0  0  0  0  0
   22.8630   12.2240   30.3390 N   0  0  0  0  0  0  0  0  0  0  0  0
   22.2270   11.1520   29.5940 C   0  0  0  0  0  2  0  0  0  0  0  0
   23.1990   10.0670   29.2330 C   0  0  0  0  0  2  0  0  0  0  0  0
   22.0030   13.1150   31.0360 C   0  0  0  0  0  0  0  0  0  0  0  0
   21.1730   12.6290   32.0070 N   0  0  0  0  0  0  0  0  0  0  0  0
   20.3650   13.4480   32.6790 C   0  0  0  0  0  3  0  0  0  0  0  0
   20.3270   14.7590   32.4420 N   0  0  0  0  0  0  0  0  0  0  0  0
   21.1280   15.2530   31.5000 C   0  0  0  0  0  0  0  0  0  0  0  0
   21.3010   16.4990   31.0520 N   0  0  0  0  0  0  0  0  0  0  0  0
   22.0000   14.4560   30.7560 C   0  0  0  0  0  0  0  0  0  0  0  0
   22.2420   16.4760   30.0670 C   0  0  0  0  0  3  0  0  0  0  0  0
   22.6690   15.2260   29.8870 N   0  0  0  0  0  0  0  0  0  0  0  0
   23.3840   14.9320   29.1960 H   0  0  0  0  0  0  0  0  0  0  0  0
   24.0830    8.9720   31.4880 S   0  0  0  0  0  0  0  0  0  0  0  0
   24.7830    9.6370   32.6680 O   0  0  0  0  0  0  0  0  0  0  0  0
   24.6960    7.6270   31.3430 O   0  0  0  0  0  0  0  0  0  0  0  0
   22.4120    8.7460   32.0130 C   0  0  0  0  0  0  0  0  0  0  0  0
   21.3400    7.4620   31.6860 S   0  0  0  0  0  0  0  0  0  0  0  0
   19.9750    8.0100   32.5420 C   0  0  0  0  0  0  0  0  0  0  0  0
   20.4030    9.2040   33.0710 C   0  0  0  0  0  3  0  0  0  0  0  0
   18.2620    7.1890   32.7360 Br  0  0  0  0  0  0  0  0  0  0  0  0
   21.6580    9.5760   32.7950 C   0  0  0  0  0  3  0  0  0  0  0  0
  1  2  1  0  0  0  0
  1 17  1  0  0  0  0
  2  3  1  0  0  0  0
  4  3  1  0  0  0  0
  4  7  1  0  0  0  0
  5  4  1  0  0  0  0
  6  5  1  0  0  0  0
  6  1  1  0  0  0  0
  7  8  1  0  0  0  0
  8  9  2  0  0  0  0
 10  9  1  0  0  0  0
 11 10  2  0  0  0  0
 12 11  1  0  0  0  0
 13  7  2  0  0  0  0
 13 11  1  0  0  0  0
 14 12  2  0  0  0  0
 15 14  1  0  0  0  0
 15 13  1  0  0  0  0
 16 15  1  0  0  0  0
 17 20  1  0  0  0  0
 17 18  2  0  0  0  0
 19 17  2  0  0  0  0
 20 25  2  0  0  0  0
 21 20  1  0  0  0  0
 21 22  1  0  0  0  0
 22 24  1  0  0  0  0
 22 23  2  0  0  0  0
 25 23  1  0  0  0  0
M  END
>  <Pose>
1

>  <Score>
-8.390

$$$$
