/Users/jonathanwahrer/Desktop/Msc/3_Semester/Drug_Design_Praktikum/waehrer_HTS_screening/HTS_experiment/out/docking_results/vina_output/3elj/1100_docked.pdbqt
 OpenBabel03192218053D

 26 29  0  0  1  0  0  0  0  0999 V2000
   23.4510   10.1800   30.5800 N   0  0  0  0  0  0  0  0  0  0  0  0
   23.7850   10.8310   31.8020 C   0  0  0  0  0  2  0  0  0  0  0  0
   24.3830   12.2070   31.5940 C   0  0  0  0  0  2  0  0  0  0  0  0
   23.7400   12.7820   30.4410 N   0  0  2  0  0  0  0  0  0  0  0  0
   24.0130   12.1380   29.1810 C   0  0  0  0  0  2  0  0  0  0  0  0
   24.0790   10.6690   29.3990 C   0  0  0  0  0  2  0  0  0  0  0  0
   22.8880   13.9090   30.5060 C   0  0  1  0  0  3  0  0  0  0  0  0
   23.1470   15.0360   29.8430 C   0  0  0  0  0  3  0  0  0  0  0  0
   22.2970   16.2120   29.8830 C   0  0  0  0  0  0  0  0  0  0  0  0
   22.6050   17.3050   29.2040 C   0  0  0  0  0  1  0  0  0  0  0  0
   21.1240   16.1730   30.6680 N   0  0  0  0  0  0  0  0  0  0  0  0
   20.8770   14.9440   31.3680 C   0  0  0  0  0  0  0  0  0  0  0  0
   20.4580   16.9510   30.7630 H   0  0  0  0  0  0  0  0  0  0  0  0
   21.6950   13.8830   31.2970 N   0  0  0  0  0  0  0  0  0  0  0  0
   19.8660   14.5730   32.1920 N   0  0  0  0  0  0  0  0  0  0  0  0
   21.1990   12.8990   32.0510 N   0  0  0  0  0  0  0  0  0  0  0  0
   20.0540   13.3130   32.6200 C   0  0  0  0  0  3  0  0  0  0  0  0
   23.5890    8.4960   30.7510 S   0  0  0  0  0  0  0  0  0  0  0  0
   24.7800    8.0880   31.5790 O   0  0  0  0  0  0  0  0  0  0  0  0
   23.8180    7.9070   29.3670 O   0  0  0  0  0  0  0  0  0  0  0  0
   22.1110    7.7540   31.3610 C   0  0  0  0  0  0  0  0  0  0  0  0
   20.7490    8.5620   31.9740 S   0  0  0  0  0  0  0  0  0  0  0  0
   19.7740    7.2180   32.3490 C   0  0  0  0  0  0  0  0  0  0  0  0
   20.5510    6.1530   31.9800 C   0  0  0  0  0  3  0  0  0  0  0  0
   18.0000    7.1620   33.1100 Br  0  0  0  0  0  0  0  0  0  0  0  0
   21.7710    6.4360   31.4640 C   0  0  0  0  0  3  0  0  0  0  0  0
  1 18  1  0  0  0  0
  1  2  1  0  0  0  0
  3  2  1  0  0  0  0
  4  5  1  6  0  0  0
  4  7  1  0  0  0  0
  4  3  1  0  0  0  0
  5  6  1  0  0  0  0
  6  1  1  0  0  0  0
  7  8  1  6  0  0  0
  7 14  1  0  0  0  0
  8  9  2  0  0  0  0
  9 11  1  0  0  0  0
 10  9  1  0  0  0  0
 11 13  1  0  0  0  0
 11 12  1  0  0  0  0
 12 15  2  0  0  0  0
 14 12  1  0  0  0  0
 14 16  1  0  0  0  0
 15 17  1  0  0  0  0
 16 17  2  0  0  0  0
 18 21  1  0  0  0  0
 18 19  2  0  0  0  0
 20 18  2  0  0  0  0
 21 26  2  0  0  0  0
 21 22  1  0  0  0  0
 22 23  1  0  0  0  0
 23 25  1  0  0  0  0
 24 23  2  0  0  0  0
 26 24  1  0  0  0  0
M  END
>  <Pose>
1

>  <Score>
-8.327

$$$$
