MODEL 1
REMARK VINA RESULT:    -9.204      0.000      0.000
REMARK INTER + INTRA:         -11.182
REMARK INTER:                 -10.818
REMARK INTRA:                  -0.364
REMARK UNBOUND:                -0.364
REMARK  3 active torsions:
REMARK  status: ('A' for Active; 'I' for Inactive)
REMARK    1  A    between atoms: S_1  and  N_4 
REMARK    2  A    between atoms: S_1  and  C_20 
REMARK    3  A    between atoms: N_7  and  C_10 
ROOT
ATOM      1  N   UNK d   1      24.841   8.619  30.856  0.00  0.00    -0.203 NA
ATOM      2  C   UNK d   1      24.986   9.456  29.726  0.00  0.00     0.127 C 
ATOM      3  C   UNK d   1      23.960  10.521  29.562  0.00  0.00     0.138 C 
ATOM      4  N   UNK d   1      23.637  11.161  30.847  0.00  0.00    -0.377 N 
ATOM      5  C   UNK d   1      24.513  10.793  31.939  0.00  0.00     0.138 C 
ATOM      6  C   UNK d   1      24.434   9.283  32.064  0.00  0.00     0.127 C 
ENDROOT
BRANCH   1   7
ATOM      7  S   UNK d   1      24.025   7.150  30.587  0.00  0.00     0.243 S 
ATOM      8  O   UNK d   1      24.796   6.060  31.322  0.00  0.00    -0.206 OA
ATOM      9  O   UNK d   1      24.062   6.777  29.135  0.00  0.00    -0.206 OA
BRANCH   7  10
ATOM     10  C   UNK d   1      22.406   7.129  31.233  0.00  0.00     0.074 A 
ATOM     11  C   UNK d   1      21.748   5.940  31.518  0.00  0.00     0.026 A 
ATOM     12  C   UNK d   1      20.469   5.924  32.028  0.00  0.00     0.020 A 
ATOM     13  C   UNK d   1      19.830   7.132  32.259  0.00  0.00     0.011 A 
ATOM     14  C   UNK d   1      20.443   8.341  31.994  0.00  0.00     0.020 A 
ATOM     15 Br   UNK d   1      18.051   7.092  32.969  0.00  0.00    -0.051 Br
ATOM     16  C   UNK d   1      21.720   8.312  31.485  0.00  0.00     0.026 A 
ENDBRANCH   7  10
ENDBRANCH   1   7
BRANCH   4  17
ATOM     17  C   UNK d   1      22.550  12.058  30.958  0.00  0.00     0.053 A 
ATOM     18  C   UNK d   1      21.633  11.872  31.985  0.00  0.00     0.085 A 
ATOM     19  C   UNK d   1      20.566  12.762  32.085  0.00  0.00     0.176 A 
ATOM     20  N   UNK d   1      20.415  13.766  31.231  0.00  0.00    -0.198 N 
ATOM     21  N   UNK d   1      19.562  12.791  32.978  0.00  0.00    -0.128 NA
ATOM     22  C   UNK d   1      19.307  14.437  31.587  0.00  0.00     0.148 A 
ATOM     23  N   UNK d   1      21.268  13.953  30.264  0.00  0.00    -0.174 NA
ATOM     24  N   UNK d   1      18.793  13.820  32.668  0.00  0.00    -0.133 NA
ATOM     25  C   UNK d   1      18.741  15.648  30.911  0.00  0.00     0.095 C 
ATOM     26  C   UNK d   1      22.327  13.114  30.121  0.00  0.00     0.168 A 
ENDBRANCH   4  17
TORSDOF 3
ENDMDL
