MODEL 1
REMARK VINA RESULT:    -8.260      0.000      0.000
REMARK INTER + INTRA:         -11.610
REMARK INTER:                 -10.674
REMARK INTRA:                  -0.936
REMARK UNBOUND:                -0.936
REMARK  5 active torsions:
REMARK  status: ('A' for Active; 'I' for Inactive)
REMARK    1  A    between atoms: S_1  and  N_4 
REMARK    2  A    between atoms: S_1  and  C_26 
REMARK    3  A    between atoms: C_10  and  C_11 
REMARK    4  A    between atoms: C_11  and  C_12 
REMARK       I    between atoms: C_12  and  N_14 
REMARK    5  A    between atoms: N_17  and  C_20 
ROOT
ATOM      1  N   UNK d   1      27.528   8.017  27.476  0.00  0.00    -0.191 NA
ATOM      2  C   UNK d   1      28.062   7.942  26.158  0.00  0.00     0.128 C 
ATOM      3  C   UNK d   1      29.099   8.993  25.834  0.00  0.00     0.138 C 
ATOM      4  N   UNK d   1      30.065   9.124  26.928  0.00  0.00    -0.358 N 
ATOM      5  C   UNK d   1      29.439   9.209  28.229  0.00  0.00     0.237 C 
ATOM      6  O   UNK d   1      30.088   9.280  29.275  0.00  0.00    -0.272 OA
ATOM      7  C   UNK d   1      27.940   9.198  28.141  0.00  0.00     0.175 C 
ATOM      8  H   UNK d   1      31.078   9.156  26.823  0.00  0.00     0.162 HD
ENDROOT
BRANCH   7   9
ATOM      9  C   UNK d   1      27.287   9.532  29.423  0.00  0.00     0.133 C 
BRANCH   9  10
ATOM     10  C   UNK d   1      25.978  10.177  29.160  0.00  0.00     0.221 C 
ATOM     11  O   UNK d   1      25.893  10.874  28.114  0.00  0.00    -0.273 OA
ATOM     12  N   UNK d   1      24.867  10.021  30.044  0.00  0.00    -0.349 N 
ATOM     13  C   UNK d   1      24.977   9.223  31.235  0.00  0.00     0.145 C 
ATOM     14  C   UNK d   1      23.626  10.676  29.725  0.00  0.00     0.145 C 
ATOM     15  C   UNK d   1      24.094   9.672  32.357  0.00  0.00     0.143 C 
ATOM     16  N   UNK d   1      22.849  10.280  31.922  0.00  0.00    -0.378 N 
ATOM     17  C   UNK d   1      23.009  11.340  30.938  0.00  0.00     0.143 C 
BRANCH  16  18
ATOM     18  C   UNK d   1      21.571   9.935  32.381  0.00  0.00     0.030 A 
ATOM     19  C   UNK d   1      21.160   8.622  32.316  0.00  0.00     0.029 A 
ATOM     20  C   UNK d   1      19.890   8.286  32.758  0.00  0.00     0.002 A 
ATOM     21  C   UNK d   1      19.010   9.211  33.264  0.00  0.00     0.000 A 
ATOM     22  C   UNK d   1      19.426  10.521  33.327  0.00  0.00     0.002 A 
ATOM     23  C   UNK d   1      20.695  10.865  32.887  0.00  0.00     0.029 A 
ENDBRANCH  16  18
ENDBRANCH   9  10
ENDBRANCH   7   9
BRANCH   1  24
ATOM     24  S   UNK d   1      27.806   6.559  28.303  0.00  0.00     0.244 S 
ATOM     25  O   UNK d   1      28.958   6.603  29.255  0.00  0.00    -0.206 OA
ATOM     26  O   UNK d   1      28.113   5.434  27.321  0.00  0.00    -0.206 OA
BRANCH  24  27
ATOM     27  C   UNK d   1      26.385   6.034  29.188  0.00  0.00     0.074 A 
ATOM     28  C   UNK d   1      25.113   6.521  28.913  0.00  0.00     0.026 A 
ATOM     29  C   UNK d   1      23.993   6.130  29.591  0.00  0.00     0.020 A 
ATOM     30  C   UNK d   1      24.088   5.210  30.602  0.00  0.00     0.011 A 
ATOM     31  C   UNK d   1      25.354   4.696  30.907  0.00  0.00     0.020 A 
ATOM     32 Br   UNK d   1      22.566   4.625  31.582  0.00  0.00    -0.051 Br
ATOM     33  C   UNK d   1      26.459   5.112  30.205  0.00  0.00     0.026 A 
ENDBRANCH  24  27
ENDBRANCH   1  24
TORSDOF 5
ENDMDL
