MODEL 1
REMARK VINA RESULT:    -8.524      0.000      0.000
REMARK INTER + INTRA:         -12.904
REMARK INTER:                 -12.013
REMARK INTRA:                  -0.891
REMARK UNBOUND:                -0.891
REMARK  7 active torsions:
REMARK  status: ('A' for Active; 'I' for Inactive)
REMARK    1  A    between atoms: S_1  and  N_4 
REMARK    2  A    between atoms: S_1  and  C_10 
REMARK    3  A    between atoms: C_13  and  C_16 
REMARK    4  A    between atoms: C_16  and  O_17 
REMARK    5  A    between atoms: O_17  and  C_18 
REMARK    6  A    between atoms: C_18  and  C_20 
REMARK    7  A    between atoms: C_20  and  N_21 
ROOT
ATOM      1  C   UNK d   1      21.263   5.407  31.837  0.00  0.00     0.217 C 
ENDROOT
BRANCH   1   2
ATOM      2  C   UNK d   1      22.529   5.444  31.066  0.00  0.00    -0.034 A 
ATOM      3  C   UNK d   1      22.853   6.400  30.150  0.00  0.00     0.011 A 
ATOM      4  C   UNK d   1      24.062   6.364  29.462  0.00  0.00     0.025 A 
ATOM      5  C   UNK d   1      24.975   5.371  29.675  0.00  0.00     0.074 A 
ATOM      6  C   UNK d   1      24.651   4.400  30.604  0.00  0.00     0.025 A 
ATOM      7  C   UNK d   1      23.449   4.434  31.288  0.00  0.00     0.011 A 
BRANCH   5   8
ATOM      8  S   UNK d   1      26.511   5.294  28.825  0.00  0.00     0.243 S 
ATOM      9  O   UNK d   1      27.646   5.082  29.767  0.00  0.00    -0.206 OA
ATOM     10  O   UNK d   1      26.439   4.074  27.929  0.00  0.00    -0.206 OA
BRANCH   8  11
ATOM     11  N   UNK d   1      26.768   6.652  27.821  0.00  0.00    -0.202 NA
ATOM     12  C   UNK d   1      27.630   6.376  26.702  0.00  0.00     0.134 C 
ATOM     13  C   UNK d   1      28.144   7.730  26.203  0.00  0.00     0.183 C 
ATOM     14  O   UNK d   1      29.094   8.233  27.065  0.00  0.00    -0.389 OA
ATOM     15  C   UNK d   1      28.880   7.693  28.346  0.00  0.00     0.183 C 
ATOM     16  C   UNK d   1      27.378   7.723  28.587  0.00  0.00     0.134 C 
ENDBRANCH   8  11
ENDBRANCH   5   8
ENDBRANCH   1   2
BRANCH   1  17
ATOM     17  O   UNK d   1      20.439   6.518  31.563  0.00  0.00    -0.316 OA
BRANCH  17  18
ATOM     18  C   UNK d   1      19.782   7.265  32.510  0.00  0.00     0.277 C 
ATOM     19  O   UNK d   1      18.535   7.255  32.537  0.00  0.00    -0.263 OA
BRANCH  18  20
ATOM     20  C   UNK d   1      20.521   8.067  33.481  0.00  0.00     0.246 C 
BRANCH  20  21
ATOM     21  N   UNK d   1      20.954   9.335  32.971  0.00  0.00    -0.271 N 
ATOM     22  C   UNK d   1      20.167  10.529  33.072  0.00  0.00     0.262 A 
ATOM     23  O   UNK d   1      19.026  10.619  33.607  0.00  0.00    -0.267 OA
ATOM     24  C   UNK d   1      20.896  11.633  32.458  0.00  0.00     0.049 A 
ATOM     25  C   UNK d   1      22.092  11.160  31.986  0.00  0.00     0.048 A 
ATOM     26  C   UNK d   1      20.616  12.968  32.278  0.00  0.00     0.037 A 
ATOM     27  C   UNK d   1      22.981  12.008  31.353  0.00  0.00     0.019 A 
ATOM     28  C   UNK d   1      22.142   9.722  32.301  0.00  0.00     0.262 A 
ATOM     29  C   UNK d   1      22.686  13.347  31.181  0.00  0.00     0.020 A 
ATOM     30  C   UNK d   1      21.486  13.836  31.650  0.00  0.00     0.011 A 
ATOM     31 Br   UNK d   1      21.034  15.676  31.436  0.00  0.00    -0.051 Br
ATOM     32  O   UNK d   1      23.076   8.935  32.032  0.00  0.00    -0.267 OA
ENDBRANCH  20  21
ENDBRANCH  18  20
ENDBRANCH  17  18
ENDBRANCH   1  17
TORSDOF 7
ENDMDL
