MODEL 1
REMARK VINA RESULT:    -9.366      0.000      0.000
REMARK INTER + INTRA:         -13.502
REMARK INTER:                 -12.651
REMARK INTRA:                  -0.851
REMARK UNBOUND:                -0.851
REMARK  6 active torsions:
REMARK  status: ('A' for Active; 'I' for Inactive)
REMARK    1  A    between atoms: S_1  and  N_4 
REMARK    2  A    between atoms: S_1  and  C_10 
REMARK    3  A    between atoms: N_13  and  C_15 
REMARK    4  A    between atoms: C_15  and  C_16 
REMARK    5  A    between atoms: C_19  and  C_21 
REMARK    6  A    between atoms: C_21  and  C_22 
ROOT
ATOM      1  C   UNK d   1      23.320  14.140  30.832  0.00  0.00     0.188 A 
ATOM      2  N   UNK d   1      23.469  14.116  29.496  0.00  0.00    -0.229 NA
ATOM      3  C   UNK d   1      24.205  13.028  29.156  0.00  0.00     0.211 A 
ATOM      4  N   UNK d   1      24.531  12.349  30.269  0.00  0.00    -0.341 N 
ATOM      5  C   UNK d   1      24.003  13.008  31.289  0.00  0.00     0.138 A 
ENDROOT
BRANCH   4   6
ATOM      6  C   UNK d   1      25.313  11.129  30.294  0.00  0.00     0.212 C 
BRANCH   6   7
ATOM      7  C   UNK d   1      24.454   9.926  30.192  0.00  0.00     0.174 A 
ATOM      8  N   UNK d   1      23.795   9.530  29.071  0.00  0.00    -0.109 NA
ATOM      9  O   UNK d   1      23.145   8.440  29.350  0.00  0.00    -0.196 OA
ATOM     10  C   UNK d   1      23.329   8.080  30.595  0.00  0.00     0.177 A 
ATOM     11  N   UNK d   1      24.154   9.020  31.124  0.00  0.00    -0.207 NA
BRANCH  10  12
ATOM     12  C   UNK d   1      22.765   6.896  31.311  0.00  0.00     0.127 C 
BRANCH  12  13
ATOM     13  C   UNK d   1      21.467   7.327  31.900  0.00  0.00    -0.050 A 
ATOM     14  C   UNK d   1      20.478   6.374  32.085  0.00  0.00     0.009 A 
ATOM     15  C   UNK d   1      19.254   6.680  32.620  0.00  0.00     0.019 A 
ATOM     16  C   UNK d   1      19.013   7.978  32.981  0.00  0.00     0.011 A 
ATOM     17  C   UNK d   1      19.950   8.951  32.818  0.00  0.00     0.019 A 
ATOM     18 Br   UNK d   1      17.320   8.443  33.728  0.00  0.00    -0.051 Br
ATOM     19  C   UNK d   1      21.185   8.611  32.273  0.00  0.00     0.009 A 
ENDBRANCH  12  13
ENDBRANCH  10  12
ENDBRANCH   6   7
ENDBRANCH   4   6
BRANCH   1  20
ATOM     20  S   UNK d   1      22.463  15.318  31.798  0.00  0.00     0.280 S 
ATOM     21  O   UNK d   1      23.218  15.478  33.111  0.00  0.00    -0.199 OA
ATOM     22  O   UNK d   1      22.547  16.675  31.129  0.00  0.00    -0.199 OA
BRANCH  20  23
ATOM     23  N   UNK d   1      20.877  14.909  32.149  0.00  0.00    -0.301 N 
ATOM     24  C   UNK d   1      19.846  15.591  31.484  0.00  0.00     0.161 C 
ATOM     25  C   UNK d   1      18.791  14.639  31.003  0.00  0.00     0.188 C 
ATOM     26  O   UNK d   1      18.327  13.938  32.102  0.00  0.00    -0.388 OA
ATOM     27  C   UNK d   1      19.288  13.091  32.641  0.00  0.00     0.188 C 
ATOM     28  C   UNK d   1      20.613  13.720  32.836  0.00  0.00     0.161 C 
ENDBRANCH  20  23
ENDBRANCH   1  20
TORSDOF 6
ENDMDL
