/Users/jonathanwahrer/Desktop/Msc/3_Semester/Drug_Design_Praktikum/waehrer_HTS_screening/HTS_experiment/out/docking_results/vina_output/3elj/1130_docked.pdbqt
 OpenBabel03192218063D

 29 32  0  0  0  0  0  0  0  0999 V2000
   20.6650   10.8900   32.8760 C   0  0  0  0  0  0  0  0  0  0  0  0
   21.7570   11.1550   32.1380 N   0  0  0  0  0  0  0  0  0  0  0  0
   22.4670   10.2280   31.5150 N   0  0  0  0  0  2  0  0  0  0  0  0
   22.1230    8.9250   31.5890 C   0  0  0  0  0  0  0  0  0  0  0  0
   21.0050    8.6280   32.3420 C   0  0  0  0  0  0  0  0  0  0  0  0
   20.8620    7.2900   32.2680 N   0  0  0  0  0  0  0  0  0  0  0  0
   21.8260    6.7400   31.5130 C   0  0  0  0  0  0  0  0  0  0  0  0
   22.6460    7.7540   31.0670 C   0  0  0  0  0  0  0  0  0  0  0  0
   23.7480    7.5260   30.2560 C   0  0  0  0  0  3  0  0  0  0  0  0
   24.0030    6.2120   29.9040 C   0  0  0  0  0  0  0  0  0  0  0  0
   23.1990    5.1780   30.3380 C   0  0  0  0  0  3  0  0  0  0  0  0
   22.1120    5.4270   31.1410 C   0  0  0  0  0  3  0  0  0  0  0  0
   25.5230    5.8970   28.7870 Br  0  0  0  0  0  0  0  0  0  0  0  0
   19.7910    6.5720   32.9330 C   0  0  0  0  0  1  0  0  0  0  0  0
   20.2890    9.6040   32.9760 N   0  0  0  0  0  2  0  0  0  0  0  0
   19.7480   12.2100   33.6970 S   0  0  0  0  0  0  0  0  0  0  0  0
   18.7190   13.0370   32.4540 C   0  0  0  0  0  2  0  0  0  0  0  0
   19.3740   14.3240   32.0790 C   0  0  0  0  0  0  0  0  0  0  0  0
   18.6860   15.3080   31.6600 O   0  0  0  0  0  0  0  0  0  0  0  0
   20.7700   14.4970   32.1740 N   0  0  0  0  0  0  0  0  0  0  0  0
   21.3470   13.6980   32.5150 H   0  0  0  0  0  0  0  0  0  0  0  0
   21.3900   15.7190   31.8190 C   0  0  0  0  0  0  0  0  0  0  0  0
   21.2040   16.4520   30.7090 N   0  0  0  0  0  0  0  0  0  0  0  0
   21.9540   17.5190   30.7360 O   0  0  0  0  0  0  0  0  0  0  0  0
   22.6240   17.4960   31.8380 N   0  0  0  0  0  0  0  0  0  0  0  0
   22.3340   16.4130   32.5690 C   0  0  0  0  0  0  0  0  0  0  0  0
   22.8830   16.0750   33.8250 N   0  0  0  0  0  0  0  0  0  0  0  0
   22.4280   16.4240   34.6890 H   0  0  0  0  0  0  0  0  0  0  0  0
   23.7340   15.4850   33.9260 H   0  0  0  0  0  0  0  0  0  0  0  0
  1 15  1  0  0  0  0
  1 16  1  0  0  0  0
  2  1  2  0  0  0  0
  3  4  1  0  0  0  0
  3  2  1  0  0  0  0
  4  5  2  0  0  0  0
  5 15  1  0  0  0  0
  6  5  1  0  0  0  0
  6 14  1  0  0  0  0
  7  6  1  0  0  0  0
  8  7  2  0  0  0  0
  8  4  1  0  0  0  0
  9  8  1  0  0  0  0
 10  9  2  0  0  0  0
 10 11  1  0  0  0  0
 11 12  2  0  0  0  0
 12  7  1  0  0  0  0
 13 10  1  0  0  0  0
 17 16  1  0  0  0  0
 18 20  1  0  0  0  0
 18 17  1  0  0  0  0
 19 18  2  0  0  0  0
 20 21  1  0  0  0  0
 22 20  1  0  0  0  0
 22 26  1  0  0  0  0
 23 24  1  0  0  0  0
 23 22  2  0  0  0  0
 24 25  1  0  0  0  0
 25 26  2  0  0  0  0
 26 27  1  0  0  0  0
 27 29  1  0  0  0  0
 27 28  1  0  0  0  0
M  END
>  <Pose>
1

>  <Score>
-9.204

$$$$
