MODEL 1
REMARK VINA RESULT:    -9.204      0.000      0.000
REMARK INTER + INTRA:         -11.901
REMARK INTER:                 -11.626
REMARK INTRA:                  -0.275
REMARK UNBOUND:                -0.275
REMARK  5 active torsions:
REMARK  status: ('A' for Active; 'I' for Inactive)
REMARK    1  A    between atoms: S_1  and  C_2 
REMARK    2  A    between atoms: S_1  and  C_12 
REMARK    3  A    between atoms: C_2  and  C_3 
REMARK       I    between atoms: C_3  and  N_5 
REMARK    4  A    between atoms: N_5  and  C_6 
REMARK    5  A    between atoms: C_10  and  N_11 
ROOT
ATOM      1  C   UNK d   1      20.665  10.890  32.876  0.00  0.00     0.211 A 
ATOM      2  N   UNK d   1      21.757  11.155  32.138  0.00  0.00    -0.122 NA
ATOM      3  N   UNK d   1      22.467  10.228  31.515  0.00  0.00    -0.143 NA
ATOM      4  C   UNK d   1      22.123   8.925  31.589  0.00  0.00     0.137 A 
ATOM      5  C   UNK d   1      21.005   8.628  32.342  0.00  0.00     0.164 A 
ATOM      6  N   UNK d   1      20.862   7.290  32.268  0.00  0.00    -0.333 N 
ATOM      7  C   UNK d   1      21.826   6.740  31.513  0.00  0.00     0.048 A 
ATOM      8  C   UNK d   1      22.646   7.754  31.067  0.00  0.00     0.026 A 
ATOM      9  C   UNK d   1      23.748   7.526  30.256  0.00  0.00     0.035 A 
ATOM     10  C   UNK d   1      24.003   6.212  29.904  0.00  0.00     0.011 A 
ATOM     11  C   UNK d   1      23.199   5.178  30.338  0.00  0.00     0.021 A 
ATOM     12  C   UNK d   1      22.112   5.427  31.141  0.00  0.00     0.032 A 
ATOM     13 Br   UNK d   1      25.523   5.897  28.787  0.00  0.00    -0.051 Br
ATOM     14  C   UNK d   1      19.791   6.572  32.933  0.00  0.00     0.158 C 
ATOM     15  N   UNK d   1      20.289   9.604  32.976  0.00  0.00    -0.201 NA
ENDROOT
BRANCH   1  16
ATOM     16  S   UNK d   1      19.748  12.210  33.697  0.00  0.00    -0.079 SA
BRANCH  16  17
ATOM     17  C   UNK d   1      18.719  13.037  32.454  0.00  0.00     0.185 C 
BRANCH  17  18
ATOM     18  C   UNK d   1      19.374  14.324  32.079  0.00  0.00     0.233 C 
ATOM     19  O   UNK d   1      18.686  15.308  31.660  0.00  0.00    -0.272 OA
ATOM     20  N   UNK d   1      20.770  14.497  32.174  0.00  0.00    -0.306 N 
ATOM     21  H   UNK d   1      21.347  13.698  32.515  0.00  0.00     0.170 HD
BRANCH  20  22
ATOM     22  C   UNK d   1      21.390  15.719  31.819  0.00  0.00     0.207 A 
ATOM     23  N   UNK d   1      21.204  16.452  30.709  0.00  0.00    -0.083 NA
ATOM     24  O   UNK d   1      21.954  17.519  30.736  0.00  0.00    -0.103 OA
ATOM     25  N   UNK d   1      22.624  17.496  31.838  0.00  0.00    -0.083 NA
ATOM     26  C   UNK d   1      22.334  16.413  32.569  0.00  0.00     0.199 A 
BRANCH  26  27
ATOM     27  N   UNK d   1      22.883  16.075  33.825  0.00  0.00    -0.379 N 
ATOM     28  H   UNK d   1      22.428  16.424  34.689  0.00  0.00     0.158 HD
ATOM     29  H   UNK d   1      23.734  15.485  33.926  0.00  0.00     0.158 HD
ENDBRANCH  26  27
ENDBRANCH  20  22
ENDBRANCH  17  18
ENDBRANCH  16  17
ENDBRANCH   1  16
TORSDOF 5
ENDMDL
