/Users/jonathanwahrer/Desktop/Msc/3_Semester/Drug_Design_Praktikum/waehrer_HTS_screening/HTS_experiment/out/docking_results/vina_output/3elj/1133_docked.pdbqt
 OpenBabel03192218073D

 35 38  0  0  1  0  0  0  0  0999 V2000
   23.3750   11.3150   30.7880 C   0  0  0  0  0  0  0  0  0  0  0  0
   23.0820   12.6010   30.5950 N   0  0  0  0  0  0  0  0  0  0  0  0
   23.8500   13.0260   29.5570 C   0  0  0  0  0  0  0  0  0  0  0  0
   24.0980   14.1790   28.9170 N   0  0  0  0  0  0  0  0  0  0  0  0
   24.9840   14.3530   27.9310 C   0  0  0  0  0  0  0  0  0  0  0  0
   25.7130   13.2470   27.5150 N   0  0  0  0  0  0  0  0  0  0  0  0
   25.5400   12.0790   28.0830 C   0  0  0  0  0  0  0  0  0  0  0  0
   24.6250   11.9230   29.1050 C   0  0  0  0  0  0  0  0  0  0  0  0
   24.2930   10.9120   29.8980 N   0  0  0  0  0  0  0  0  0  0  0  0
   22.1390   13.4500   31.2480 C   0  0  2  0  0  3  0  0  0  0  0  0
   20.8660   13.4740   30.6380 O   0  0  0  0  0  0  0  0  0  0  0  0
   20.2750   14.5090   31.3980 C   0  0  1  0  0  3  0  0  0  0  0  0
   21.2940   15.6260   31.0520 C   0  0  2  0  0  3  0  0  0  0  0  0
   22.5580   14.8670   31.4750 C   0  0  1  0  0  3  0  0  0  0  0  0
   18.9040   14.8360   30.9400 C   0  0  0  0  0  2  0  0  0  0  0  0
   18.9130   15.9720   30.1220 O   0  0  0  0  0  0  0  0  0  0  0  0
   18.3830   15.7450   29.2980 H   0  0  0  0  0  0  0  0  0  0  0  0
   21.0860   16.7690   31.7750 O   0  0  0  0  0  0  0  0  0  0  0  0
   20.4560   17.3630   31.3020 H   0  0  0  0  0  0  0  0  0  0  0  0
   22.7460   15.1350   32.8550 O   0  0  0  0  0  0  0  0  0  0  0  0
   23.2860   14.3780   33.1740 H   0  0  0  0  0  0  0  0  0  0  0  0
   22.7300   10.2680   32.1000 S   0  0  0  0  0  0  0  0  0  0  0  0
   22.1650    8.6510   31.4130 C   0  0  0  0  0  2  0  0  0  0  0  0
   20.9090    8.2410   32.0810 C   0  0  0  0  0  0  0  0  0  0  0  0
   20.4020    6.9650   32.0610 C   0  0  0  0  0  0  0  0  0  0  0  0
   19.1860    6.6620   32.5670 C   0  0  0  0  0  3  0  0  0  0  0  0
   21.5800    5.6130   31.3950 Br  0  0  0  0  0  0  0  0  0  0  0  0
   18.3780    7.6330   33.1480 C   0  0  0  0  0  3  0  0  0  0  0  0
   18.8630    8.9480   33.1830 C   0  0  0  0  0  3  0  0  0  0  0  0
   20.1070    9.2440   32.6590 C   0  0  0  0  0  3  0  0  0  0  0  0
   25.2700   15.6060   27.2910 N   0  0  0  0  0  0  0  0  0  0  0  0
   25.1000   16.5380   27.6640 H   0  0  0  0  0  0  0  0  0  0  0  0
   25.6740   15.5570   26.2920 H   0  0  0  0  0  0  0  0  0  0  0  0
   26.2260   10.9530   27.7050 O   0  0  0  0  0  0  0  0  0  0  0  0
   26.1680   10.5410   26.7810 H   0  0  0  0  0  0  0  0  0  0  0  0
  1 22  1  0  0  0  0
  2  1  1  0  0  0  0
  3  2  1  0  0  0  0
  4  3  1  0  0  0  0
  5  4  2  0  0  0  0
  6  5  1  0  0  0  0
  6  7  2  0  0  0  0
  7  8  1  0  0  0  0
  8  3  2  0  0  0  0
  8  9  1  0  0  0  0
  9  1  2  0  0  0  0
 10  2  1  6  0  0  0
 10 14  1  0  0  0  0
 11 10  1  0  0  0  0
 11 12  1  0  0  0  0
 12 15  1  6  0  0  0
 13 12  1  0  0  0  0
 13 14  1  0  0  0  0
 13 18  1  1  0  0  0
 14 20  1  1  0  0  0
 16 15  1  0  0  0  0
 17 16  1  0  0  0  0
 19 18  1  0  0  0  0
 20 21  1  0  0  0  0
 23 24  1  0  0  0  0
 23 22  1  0  0  0  0
 24 30  1  0  0  0  0
 25 24  2  0  0  0  0
 25 26  1  0  0  0  0
 26 28  2  0  0  0  0
 27 25  1  0  0  0  0
 28 29  1  0  0  0  0
 30 29  2  0  0  0  0
 31 32  1  0  0  0  0
 31  5  1  0  0  0  0
 33 31  1  0  0  0  0
 34  7  1  0  0  0  0
 35 34  1  0  0  0  0
M  END
>  <Pose>
1

>  <Score>
-9.131

$$$$
