MODEL 1
REMARK VINA RESULT:    -6.307      0.000      0.000
REMARK INTER + INTRA:          -9.041
REMARK INTER:                  -7.413
REMARK INTRA:                  -1.628
REMARK UNBOUND:                -1.628
REMARK  3 active torsions:
REMARK  status: ('A' for Active; 'I' for Inactive)
REMARK    1  A    between atoms: C_6  and  C_17 
REMARK    2  A    between atoms: N_9  and  C_10 
REMARK    3  A    between atoms: C_23  and  O_30 
ROOT
ATOM      1  C   UNK d   1      28.835   5.619  27.978  0.00  0.00     0.246 C 
ATOM      2  N   UNK d   1      30.241   5.241  28.012  0.00  0.00    -0.065 N 
ATOM      3  C   UNK d   1      30.932   5.981  29.054  0.00  0.00     0.240 C 
ATOM      4  C   UNK d   1      30.150   7.145  29.604  0.00  0.00     0.067 C 
ATOM      5  C   UNK d   1      29.496   7.856  28.448  0.00  0.00    -0.043 A 
ATOM      6  C   UNK d   1      28.799   7.008  27.554  0.00  0.00     0.017 A 
ATOM      7  C   UNK d   1      28.190   7.549  26.457  0.00  0.00     0.113 A 
ATOM      8  C   UNK d   1      28.284   8.927  26.274  0.00  0.00     0.139 A 
ATOM      9  C   UNK d   1      28.966   9.730  27.157  0.00  0.00     0.108 A 
ATOM     10  C   UNK d   1      29.589   9.198  28.271  0.00  0.00     0.047 A 
ATOM     11  O   UNK d   1      28.883  11.034  26.713  0.00  0.00    -0.323 OA
ATOM     12  C   UNK d   1      28.394  11.031  25.395  0.00  0.00     0.352 C 
ATOM     13  O   UNK d   1      27.789   9.742  25.293  0.00  0.00    -0.320 OA
ATOM     14  C   UNK d   1      30.940   5.428  26.787  0.00  0.00     0.270 C 
ATOM     15  H   UNK d   1      30.273   4.233  28.271  0.00  0.00     0.280 HD
ENDROOT
BRANCH   1  16
ATOM     16  C   UNK d   1      27.978   4.591  27.402  0.00  0.00     0.208 C 
ATOM     17  C   UNK d   1      28.450   3.274  28.057  0.00  0.00     0.261 C 
ATOM     18  N   UNK d   1      28.240   3.223  29.458  0.00  0.00    -0.187 NA
ATOM     19  O   UNK d   1      28.959   2.364  27.397  0.00  0.00    -0.270 OA
ATOM     20  C   UNK d   1      27.278   3.790  30.091  0.00  0.00     0.190 C 
ATOM     21  S   UNK d   1      27.093   3.671  31.864  0.00  0.00    -0.010 SA
ATOM     22  N   UNK d   1      26.359   4.542  29.265  0.00  0.00    -0.259 N 
ATOM     23  C   UNK d   1      26.556   4.612  27.861  0.00  0.00     0.246 C 
ATOM     24  O   UNK d   1      25.559   4.683  27.140  0.00  0.00    -0.272 OA
BRANCH  22  25
ATOM     25  C   UNK d   1      25.267   5.201  29.838  0.00  0.00     0.044 A 
ATOM     26  C   UNK d   1      25.306   6.600  29.883  0.00  0.00     0.031 A 
ATOM     27  C   UNK d   1      24.266   7.319  30.432  0.00  0.00     0.021 A 
ATOM     28  C   UNK d   1      23.166   6.641  30.948  0.00  0.00     0.011 A 
ATOM     29  C   UNK d   1      23.136   5.241  30.898  0.00  0.00     0.021 A 
ATOM     30 Br   UNK d   1      21.722   7.588  31.708  0.00  0.00    -0.051 Br
ATOM     31  C   UNK d   1      24.183   4.541  30.347  0.00  0.00     0.031 A 
ENDBRANCH  22  25
ENDBRANCH   1  16
BRANCH   7  32
ATOM     32  O   UNK d   1      27.501   6.764  25.543  0.00  0.00    -0.352 OA
ATOM     33  C   UNK d   1      28.159   6.366  24.345  0.00  0.00     0.210 C 
ENDBRANCH   7  32
TORSDOF 3
ENDMDL
