/Users/jonathanwahrer/Desktop/Msc/3_Semester/Drug_Design_Praktikum/waehrer_HTS_screening/HTS_experiment/out/docking_results/vina_output/3elj/1151_docked.pdbqt
 OpenBabel03192218073D

 24 27  0  0  1  0  0  0  0  0999 V2000
   27.9770    3.4290   30.2030 S   0  0  0  0  0  0  0  0  0  0  0  0
   28.5110    2.1720   29.5800 O   0  0  0  0  0  0  0  0  0  0  0  0
   28.9880    4.5400   30.1740 O   0  0  0  0  0  0  0  0  0  0  0  0
   26.4710    3.9560   29.4130 C   0  0  0  0  0  2  0  0  0  0  0  0
   25.7140    4.7560   30.4530 C   0  0  2  0  0  3  0  0  0  0  0  0
   25.2380    3.8510   31.4800 N   0  0  0  0  0  0  0  0  0  0  0  0
   26.0490    2.7300   31.9070 C   0  0  0  0  0  2  0  0  0  0  0  0
   27.5250    3.1330   31.9190 C   0  0  0  0  0  2  0  0  0  0  0  0
   23.9570    4.3460   31.8460 C   0  0  0  0  0  0  0  0  0  0  0  0
   23.2880    4.0060   32.8800 O   0  0  0  0  0  0  0  0  0  0  0  0
   23.4940    5.2960   30.8960 N   0  0  0  0  0  0  0  0  0  0  0  0
   24.5120    5.3960   29.9100 C   0  0  0  0  0  0  0  0  0  0  0  0
   24.4190    5.9340   28.7680 O   0  0  0  0  0  0  0  0  0  0  0  0
   22.2400    6.0330   30.9010 C   0  0  1  0  0  3  0  0  0  0  0  0
   21.2310    5.3940   31.8410 C   0  0  0  0  0  2  0  0  0  0  0  0
   19.9400    6.1990   31.6790 C   0  0  0  0  0  2  0  0  0  0  0  0
   20.2150    7.4890   32.1950 O   0  0  0  0  0  0  0  0  0  0  0  0
   21.4520    8.0880   31.9880 C   0  0  0  0  0  0  0  0  0  0  0  0
   22.4640    7.4150   31.3630 C   0  0  0  0  0  0  0  0  0  0  0  0
   21.6040    9.3890   32.4440 C   0  0  0  0  0  0  0  0  0  0  0  0
   23.6810    8.0040   31.1590 C   0  0  0  0  0  3  0  0  0  0  0  0
   23.8710    9.2930   31.5970 C   0  0  0  0  0  3  0  0  0  0  0  0
   22.8460    9.9560   32.2220 C   0  0  0  0  0  3  0  0  0  0  0  0
   20.1920   10.3190   33.3120 Br  0  0  0  0  0  0  0  0  0  0  0  0
  1  8  1  0  0  0  0
  2  1  2  0  0  0  0
  3  1  2  0  0  0  0
  4  1  1  0  0  0  0
  5  4  1  6  0  0  0
  5  6  1  0  0  0  0
  6  9  1  0  0  0  0
  6  7  1  0  0  0  0
  7  8  1  0  0  0  0
  9 10  2  0  0  0  0
 11  9  1  0  0  0  0
 12  5  1  0  0  0  0
 12 11  1  0  0  0  0
 13 12  2  0  0  0  0
 14 11  1  1  0  0  0
 14 19  1  0  0  0  0
 14 15  1  0  0  0  0
 16 15  1  0  0  0  0
 16 17  1  0  0  0  0
 18 17  1  0  0  0  0
 18 20  1  0  0  0  0
 19 18  2  0  0  0  0
 20 24  1  0  0  0  0
 21 19  1  0  0  0  0
 21 22  2  0  0  0  0
 22 23  1  0  0  0  0
 23 20  2  0  0  0  0
M  END
>  <Pose>
1

>  <Score>
-7.956

$$$$
