MODEL 1
REMARK VINA RESULT:    -7.956      0.000      0.000
REMARK INTER + INTRA:          -7.615
REMARK INTER:                  -8.421
REMARK INTRA:                   0.806
REMARK UNBOUND:                 0.806
REMARK  1 active torsions:
REMARK  status: ('A' for Active; 'I' for Inactive)
REMARK    1  A    between atoms: N_11  and  C_14 
ROOT
ATOM      1  S   UNK d   1      27.977   3.429  30.203  0.00  0.00     0.148 S 
ATOM      2  O   UNK d   1      28.511   2.172  29.580  0.00  0.00    -0.228 OA
ATOM      3  O   UNK d   1      28.988   4.540  30.174  0.00  0.00    -0.228 OA
ATOM      4  C   UNK d   1      26.471   3.956  29.413  0.00  0.00     0.175 C 
ATOM      5  C   UNK d   1      25.714   4.756  30.453  0.00  0.00     0.195 C 
ATOM      6  N   UNK d   1      25.238   3.851  31.480  0.00  0.00    -0.318 N 
ATOM      7  C   UNK d   1      26.049   2.730  31.907  0.00  0.00     0.143 C 
ATOM      8  C   UNK d   1      27.525   3.133  31.919  0.00  0.00     0.160 C 
ATOM      9  C   UNK d   1      23.957   4.346  31.846  0.00  0.00     0.328 C 
ATOM     10  O   UNK d   1      23.288   4.006  32.880  0.00  0.00    -0.246 OA
ATOM     11  N   UNK d   1      23.494   5.296  30.896  0.00  0.00    -0.259 N 
ATOM     12  C   UNK d   1      24.512   5.396  29.910  0.00  0.00     0.252 C 
ATOM     13  O   UNK d   1      24.419   5.934  28.768  0.00  0.00    -0.270 OA
ENDROOT
BRANCH  11  14
ATOM     14  C   UNK d   1      22.240   6.033  30.901  0.00  0.00     0.135 C 
ATOM     15  C   UNK d   1      21.231   5.394  31.841  0.00  0.00     0.058 C 
ATOM     16  C   UNK d   1      19.940   6.199  31.679  0.00  0.00     0.178 C 
ATOM     17  O   UNK d   1      20.215   7.489  32.195  0.00  0.00    -0.349 OA
ATOM     18  C   UNK d   1      21.452   8.088  31.988  0.00  0.00     0.094 A 
ATOM     19  C   UNK d   1      22.464   7.415  31.363  0.00  0.00     0.000 A 
ATOM     20  C   UNK d   1      21.604   9.389  32.444  0.00  0.00     0.044 A 
ATOM     21  C   UNK d   1      23.681   8.004  31.159  0.00  0.00     0.012 A 
ATOM     22  C   UNK d   1      23.871   9.293  31.597  0.00  0.00     0.002 A 
ATOM     23  C   UNK d   1      22.846   9.956  32.222  0.00  0.00     0.022 A 
ATOM     24 Br   UNK d   1      20.192  10.319  33.312  0.00  0.00    -0.048 Br
ENDBRANCH  11  14
TORSDOF 1
ENDMDL
