MODEL 1
REMARK VINA RESULT:    -8.389      0.000      0.000
REMARK INTER + INTRA:         -10.768
REMARK INTER:                 -10.841
REMARK INTRA:                   0.073
REMARK UNBOUND:                 0.073
REMARK  5 active torsions:
REMARK  status: ('A' for Active; 'I' for Inactive)
REMARK    1  A    between atoms: C_4  and  C_6 
REMARK    2  A    between atoms: C_7  and  C_9 
REMARK    3  A    between atoms: C_11  and  C_14 
REMARK    4  A    between atoms: N_16  and  C_19 
REMARK    5  A    between atoms: C_19  and  C_20 
REMARK       I    between atoms: C_20  and  N_22 
ROOT
ATOM      1  C   UNK d   1      23.859  12.834  30.156  0.00  0.00     0.178 A 
ATOM      2  N   UNK d   1      23.343  14.058  29.941  0.00  0.00    -0.201 NA
ATOM      3  C   UNK d   1      23.863  14.591  28.822  0.00  0.00     0.229 A 
ATOM      4  N   UNK d   1      24.712  13.660  28.356  0.00  0.00    -0.102 NA
ATOM      5  O   UNK d   1      24.693  12.625  29.165  0.00  0.00    -0.195 OA
ENDROOT
BRANCH   3   6
ATOM      6  C   UNK d   1      23.585  15.895  28.219  0.00  0.00     0.221 A 
ATOM      7  N   UNK d   1      23.839  16.252  26.949  0.00  0.00    -0.147 NA
ATOM      8  N   UNK d   1      23.456  17.517  26.743  0.00  0.00    -0.253 N 
ATOM      9  C   UNK d   1      22.943  17.992  27.900  0.00  0.00     0.231 A 
ATOM     10  N   UNK d   1      23.034  16.978  28.791  0.00  0.00    -0.218 NA
BRANCH   8  11
ATOM     11  C   UNK d   1      23.568  18.259  25.498  0.00  0.00     0.254 C 
BRANCH  11  12
ATOM     12  C   UNK d   1      24.915  18.031  24.933  0.00  0.00     0.235 C 
ATOM     13  O   UNK d   1      25.744  18.967  24.964  0.00  0.00    -0.272 OA
ATOM     14  N   UNK d   1      25.245  16.775  24.373  0.00  0.00    -0.369 N 
ATOM     15  H   UNK d   1      26.174  16.308  24.564  0.00  0.00     0.159 HD
ATOM     16  H   UNK d   1      24.608  16.230  23.743  0.00  0.00     0.159 HD
ENDBRANCH  11  12
ENDBRANCH   8  11
ENDBRANCH   3   6
BRANCH   1  17
ATOM     17  C   UNK d   1      23.551  11.895  31.291  0.00  0.00     0.074 A 
ATOM     18  C   UNK d   1      22.927  10.570  30.831  0.00  0.00     0.032 A 
ATOM     19  C   UNK d   1      24.281  10.609  31.387  0.00  0.00     0.023 A 
BRANCH  18  20
ATOM     20  C   UNK d   1      21.807  10.106  31.744  0.00  0.00    -0.045 A 
ATOM     21  C   UNK d   1      21.483   8.798  31.863  0.00  0.00     0.034 A 
ATOM     22  C   UNK d   1      20.458   8.493  32.721  0.00  0.00     0.051 A 
ATOM     23  S   UNK d   1      19.985  10.009  33.326  0.00  0.00    -0.094 SA
ATOM     24 Br   UNK d   1      19.753   6.740  33.118  0.00  0.00    -0.043 Br
ATOM     25  C   UNK d   1      21.087  10.997  32.487  0.00  0.00     0.058 A 
ENDBRANCH  18  20
ENDBRANCH   1  17
TORSDOF 5
ENDMDL
