MODEL 1
REMARK VINA RESULT:    -8.161      0.000      0.000
REMARK INTER + INTRA:         -11.967
REMARK INTER:                 -11.262
REMARK INTRA:                  -0.704
REMARK UNBOUND:                -0.704
REMARK  7 active torsions:
REMARK  status: ('A' for Active; 'I' for Inactive)
REMARK    1  A    between atoms: C_5  and  C_6 
REMARK    2  A    between atoms: C_6  and  C_8 
REMARK    3  A    between atoms: C_8  and  N_9 
REMARK    4  A    between atoms: N_16  and  C_19 
REMARK    5  A    between atoms: C_17  and  N_18 
REMARK    6  A    between atoms: C_19  and  C_20 
REMARK    7  A    between atoms: C_20  and  N_21 
ROOT
ATOM      1  N   UNK d   1      22.663   8.653  30.219  0.00  0.00    -0.172 N 
ATOM      2  C   UNK d   1      21.806   8.696  31.266  0.00  0.00     0.079 A 
ATOM      3  C   UNK d   1      21.810   9.944  31.813  0.00  0.00     0.079 A 
ATOM      4  C   UNK d   1      21.007  10.236  32.900  0.00  0.00     0.032 A 
ATOM      5  C   UNK d   1      20.203   9.248  33.422  0.00  0.00     0.002 A 
ATOM      6  C   UNK d   1      20.180   7.984  32.890  0.00  0.00     0.002 A 
ATOM      7  C   UNK d   1      20.992   7.726  31.807  0.00  0.00     0.032 A 
ATOM      8  N   UNK d   1      22.676  10.670  31.100  0.00  0.00    -0.178 N 
ATOM      9  C   UNK d   1      23.198   9.873  30.124  0.00  0.00     0.703 A 
ENDROOT
BRANCH   1  10
ATOM     10  C   UNK d   1      22.904   7.483  29.411  0.00  0.00     0.232 C 
BRANCH  10  11
ATOM     11  C   UNK d   1      24.235   6.886  29.682  0.00  0.00     0.185 C 
ATOM     12  O   UNK d   1      25.279   7.382  29.191  0.00  0.00    -0.290 OA
BRANCH  11  13
ATOM     13  C   UNK d   1      24.394   5.699  30.528  0.00  0.00     0.053 A 
ATOM     14  S   UNK d   1      23.218   4.784  31.373  0.00  0.00    -0.079 SA
ATOM     15  C   UNK d   1      24.226   3.620  32.093  0.00  0.00     0.052 A 
ATOM     16  C   UNK d   1      25.468   3.980  31.649  0.00  0.00     0.028 A 
ATOM     17 Br   UNK d   1      23.717   2.177  33.232  0.00  0.00    -0.043 Br
ATOM     18  C   UNK d   1      25.557   5.044  30.848  0.00  0.00     0.024 A 
ENDBRANCH  11  13
ENDBRANCH  10  11
ENDBRANCH   1  10
BRANCH   9  19
ATOM     19  N   UNK d   1      24.069  10.338  29.308  0.00  0.00    -0.117 NA
ATOM     20  H   UNK d   1      24.789   9.840  28.788  0.00  0.00     0.206 HD
ENDBRANCH   9  19
BRANCH   8  21
ATOM     21  C   UNK d   1      22.976  12.075  31.343  0.00  0.00     0.175 C 
BRANCH  21  22
ATOM     22  C   UNK d   1      21.663  12.867  31.249  0.00  0.00     0.255 C 
BRANCH  22  23
ATOM     23  N   UNK d   1      21.434  13.668  32.417  0.00  0.00    -0.070 N 
ATOM     24  C   UNK d   1      21.623  15.089  32.205  0.00  0.00     0.235 C 
ATOM     25  C   UNK d   1      20.842  15.590  31.023  0.00  0.00     0.028 C 
ATOM     26  C   UNK d   1      19.420  15.139  31.019  0.00  0.00     0.003 C 
ATOM     27  C   UNK d   1      19.142  13.856  31.718  0.00  0.00     0.028 C 
ATOM     28  C   UNK d   1      20.062  13.496  32.828  0.00  0.00     0.235 C 
ATOM     29  H   UNK d   1      22.099  13.403  33.176  0.00  0.00     0.279 HD
ENDBRANCH  22  23
ENDBRANCH  21  22
ENDBRANCH   8  21
TORSDOF 7
ENDMDL
