/Users/jonathanwahrer/Desktop/Msc/3_Semester/Drug_Design_Praktikum/waehrer_HTS_screening/HTS_experiment/out/docking_results/vina_output/3elj/1177_docked.pdbqt
 OpenBabel03192218083D

 33 36  0  0  1  0  0  0  0  0999 V2000
   24.0990   11.4730   30.2270 C   0  0  2  0  0  3  0  0  0  0  0  0
   23.4240   12.6480   29.5810 C   0  0  2  0  0  3  0  0  0  0  0  0
   24.4430   13.2140   28.7540 N   0  0  0  0  0  0  0  0  0  0  0  0
   25.2090   12.0660   28.2920 C   0  0  0  0  0  0  0  0  0  0  0  0
   25.9210   12.0930   27.2520 O   0  0  0  0  0  0  0  0  0  0  0  0
   25.0030   10.9570   29.2070 C   0  0  0  0  0  0  0  0  0  0  0  0
   25.5010    9.7850   29.1340 O   0  0  0  0  0  0  0  0  0  0  0  0
   24.7000   14.5640   28.3460 C   0  0  0  0  0  2  0  0  0  0  0  0
   23.5590   15.2930   27.7130 C   0  0  0  0  0  2  0  0  0  0  0  0
   23.9440   16.7510   27.4170 C   0  0  0  0  0  2  0  0  0  0  0  0
   23.3580   17.1230   26.1730 N   0  0  0  0  0  4  0  0  0  0  0  0
   22.3140   18.0960   26.2300 C   0  0  0  0  0  2  0  0  0  0  0  0
   22.8140   19.5010   26.4660 C   0  0  0  0  0  2  0  0  0  0  0  0
   24.2160   19.4140   26.6250 O   0  0  0  0  0  0  0  0  0  0  0  0
   24.6960   19.0240   25.3580 C   0  0  0  0  0  2  0  0  0  0  0  0
   24.3480   17.5580   25.2050 C   0  0  0  0  0  2  0  0  0  0  0  0
   22.9280   16.2420   25.7580 H   0  0  0  0  0  0  0  0  0  0  0  0
   22.7940   13.5220   30.5630 C   0  0  0  0  0  0  0  0  0  0  0  0
   21.4150   13.7530   30.4450 C   0  0  0  0  0  3  0  0  0  0  0  0
   20.7060   14.5350   31.3200 C   0  0  0  0  0  0  0  0  0  0  0  0
   21.3540   15.1320   32.3730 C   0  0  0  0  0  3  0  0  0  0  0  0
   18.8280   14.8320   31.1350 Br  0  0  0  0  0  0  0  0  0  0  0  0
   22.7170   14.9260   32.5230 C   0  0  0  0  0  3  0  0  0  0  0  0
   23.3970   14.1340   31.6230 C   0  0  0  0  0  3  0  0  0  0  0  0
   23.8900   10.9660   31.4260 C   0  0  2  0  0  3  0  0  0  0  0  0
   24.8180   11.2440   32.4560 O   0  0  0  0  0  1  0  0  0  0  0  0
   22.7240   10.1290   31.7000 C   0  0  0  0  0  0  0  0  0  0  0  0
   21.2640   10.6230   32.4450 S   0  0  0  0  0  0  0  0  0  0  0  0
   20.4580    9.1200   32.4620 C   0  0  0  0  0  0  0  0  0  0  0  0
   21.3450    8.3210   31.9000 N   0  0  0  0  0  0  0  0  0  0  0  0
   19.0810    8.7840   32.9870 C   0  0  0  0  0  1  0  0  0  0  0  0
   22.4910    8.7930   31.5070 C   0  0  0  0  0  0  0  0  0  0  0  0
   23.5280    7.8570   30.8990 C   0  0  0  0  0  1  0  0  0  0  0  0
  1 25  1  6  0  0  0
  2  1  1  0  0  0  0
  2 18  1  1  0  0  0
  3  2  1  0  0  0  0
  4  3  1  0  0  0  0
  4  6  1  0  0  0  0
  5  4  2  0  0  0  0
  6  1  1  0  0  0  0
  7  6  2  0  0  0  0
  8  3  1  0  0  0  0
  9  8  1  0  0  0  0
 10  9  1  0  0  0  0
 11 12  1  0  0  0  0
 11 10  1  0  0  0  0
 12 13  1  0  0  0  0
 13 14  1  0  0  0  0
 15 14  1  0  0  0  0
 16 15  1  0  0  0  0
 16 11  1  0  0  0  0
 17 11  1  0  0  0  0
 18 24  1  0  0  0  0
 19 18  2  0  0  0  0
 19 20  1  0  0  0  0
 20 21  2  0  0  0  0
 21 23  1  0  0  0  0
 22 20  1  0  0  0  0
 24 23  2  0  0  0  0
 25 27  1  0  0  0  0
 25 26  1  6  0  0  0
 27 28  1  0  0  0  0
 28 29  1  0  0  0  0
 29 31  1  0  0  0  0
 30 29  2  0  0  0  0
 32 27  2  0  0  0  0
 32 30  1  0  0  0  0
 33 32  1  0  0  0  0
M  END
>  <Pose>
1

>  <Score>
-7.783

$$$$
