MODEL 1
REMARK VINA RESULT:    -8.608      0.000      0.000
REMARK INTER + INTRA:         -11.309
REMARK INTER:                 -11.627
REMARK INTRA:                   0.318
REMARK UNBOUND:                 0.318
REMARK  6 active torsions:
REMARK  status: ('A' for Active; 'I' for Inactive)
REMARK    1  A    between atoms: C_5  and  C_6 
REMARK    2  A    between atoms: C_6  and  C_7 
REMARK    3  A    between atoms: C_8  and  C_22 
REMARK    4  A    between atoms: N_9  and  C_14 
REMARK    5  A    between atoms: C_14  and  C_15 
REMARK    6  A    between atoms: C_15  and  N_16 
ROOT
ATOM      1  C   UNK d   1      23.872   8.356  30.432  0.00  0.00     0.063 C 
ATOM      2  C   UNK d   1      23.232   9.337  31.360  0.00  0.00     0.161 C 
ATOM      3  N   UNK d   1      23.601  10.558  30.756  0.00  0.00    -0.331 N 
ATOM      4  C   UNK d   1      25.049  10.356  30.514  0.00  0.00     0.295 C 
ATOM      5  O   UNK d   1      25.945  11.241  30.494  0.00  0.00    -0.264 OA
ATOM      6  C   UNK d   1      25.215   8.922  30.303  0.00  0.00     0.250 C 
ATOM      7  O   UNK d   1      26.261   8.245  30.060  0.00  0.00    -0.282 OA
ENDROOT
BRANCH   1   8
ATOM      8  C   UNK d   1      23.374   7.256  29.909  0.00  0.00     0.139 C 
ATOM      9  O   UNK d   1      22.342   7.330  28.990  0.00  0.00    -0.190 OA
BRANCH   8  10
ATOM     10  C   UNK d   1      23.964   5.983  30.349  0.00  0.00     0.068 A 
ATOM     11  S   UNK d   1      23.614   5.060  31.762  0.00  0.00    -0.070 SA
ATOM     12  C   UNK d   1      24.660   3.747  31.485  0.00  0.00     0.072 A 
ATOM     13  N   UNK d   1      25.221   4.072  30.337  0.00  0.00    -0.250 NA
ATOM     14  C   UNK d   1      24.892   2.525  32.332  0.00  0.00     0.078 C 
ATOM     15  C   UNK d   1      24.899   5.178  29.742  0.00  0.00     0.051 A 
ATOM     16  C   UNK d   1      25.502   5.548  28.395  0.00  0.00     0.072 C 
ENDBRANCH   8  10
ENDBRANCH   1   8
BRANCH   2  17
ATOM     17  C   UNK d   1      21.943   9.019  31.869  0.00  0.00    -0.030 A 
ATOM     18  C   UNK d   1      21.172  10.033  32.444  0.00  0.00     0.011 A 
ATOM     19  C   UNK d   1      19.927   9.809  32.973  0.00  0.00     0.019 A 
ATOM     20  C   UNK d   1      19.427   8.525  32.928  0.00  0.00     0.011 A 
ATOM     21  C   UNK d   1      20.172   7.510  32.365  0.00  0.00     0.019 A 
ATOM     22 Br   UNK d   1      17.698   8.125  33.643  0.00  0.00    -0.051 Br
ATOM     23  C   UNK d   1      21.419   7.759  31.840  0.00  0.00     0.011 A 
ENDBRANCH   2  17
BRANCH   3  24
ATOM     24  C   UNK d   1      23.065  11.832  30.417  0.00  0.00     0.155 C 
BRANCH  24  25
ATOM     25  C   UNK d   1      23.296  12.989  31.290  0.00  0.00     0.255 C 
BRANCH  25  26
ATOM     26  N   UNK d   1      22.276  13.900  31.617  0.00  0.00    -0.066 N 
ATOM     27  C   UNK d   1      22.435  15.220  31.042  0.00  0.00     0.261 C 
ATOM     28  C   UNK d   1      21.317  16.077  31.627  0.00  0.00     0.195 C 
ATOM     29  O   UNK d   1      20.322  15.280  32.193  0.00  0.00    -0.388 OA
ATOM     30  C   UNK d   1      19.956  14.363  31.188  0.00  0.00     0.195 C 
ATOM     31  C   UNK d   1      21.058  13.380  30.914  0.00  0.00     0.261 C 
ATOM     32  H   UNK d   1      22.047  13.884  32.616  0.00  0.00     0.280 HD
ENDBRANCH  25  26
ENDBRANCH  24  25
ENDBRANCH   3  24
TORSDOF 6
ENDMDL
