/Users/jonathanwahrer/Desktop/Msc/3_Semester/Drug_Design_Praktikum/waehrer_HTS_screening/HTS_experiment/out/docking_results/vina_output/3elj/1192_docked.pdbqt
 OpenBabel03192218093D

 27 30  0  0  1  0  0  0  0  0999 V2000
   26.8860    3.8370   27.5220 S   0  0  0  0  0  0  0  0  0  0  0  0
   26.3820    3.6280   29.1510 C   0  0  0  0  0  0  0  0  0  0  0  0
   27.4730    4.0610   29.8560 C   0  0  0  0  0  0  0  0  0  0  0  0
   28.5350    4.4880   29.1550 C   0  0  0  0  0  0  0  0  0  0  0  0
   28.4430    4.4590   27.7890 C   0  0  0  0  0  0  0  0  0  0  0  0
   29.6410    4.9410   27.0240 C   0  0  0  0  0  2  0  0  0  0  0  0
   29.9640    6.2850   27.4980 N   0  0  0  0  0  4  0  0  0  0  0  0
   30.1320    6.3600   28.9160 C   0  0  0  0  0  2  0  0  0  0  0  0
   29.8830    5.0260   29.6100 C   0  0  0  0  0  2  0  0  0  0  0  0
   28.8110    7.1140   27.1480 C   0  0  0  0  0  1  0  0  0  0  0  0
   27.3140    3.9870   31.3350 C   0  0  0  0  0  0  0  0  0  0  0  0
   28.2490    4.3570   32.1040 O   0  0  0  0  0  0  0  0  0  0  0  0
   26.0950    3.4950   31.8670 N   0  0  0  0  0  0  0  0  0  0  0  0
   24.8480    3.4720   31.1600 C   0  0  2  0  0  3  0  0  0  0  0  0
   25.1720    3.1420   29.7810 N   0  0  0  0  0  0  0  0  0  0  0  0
   30.7630    6.6730   26.9570 H   0  0  0  0  0  0  0  0  0  0  0  0
   26.1270    3.1210   32.8580 H   0  0  0  0  0  0  0  0  0  0  0  0
   24.5540    2.5480   29.1920 H   0  0  0  0  0  0  0  0  0  0  0  0
   24.1400    4.7740   31.2020 C   0  0  0  0  0  0  0  0  0  0  0  0
   24.7730    5.9590   30.8890 C   0  0  0  0  0  3  0  0  0  0  0  0
   24.1320    7.1770   30.9220 C   0  0  0  0  0  0  0  0  0  0  0  0
   22.8010    7.2410   31.2820 C   0  0  0  0  0  0  0  0  0  0  0  0
   25.0130    8.7980   30.4900 Br  0  0  0  0  0  0  0  0  0  0  0  0
   22.1490    6.0730   31.5980 C   0  0  0  0  0  0  0  0  0  0  0  0
   22.1490    8.4650   31.3170 O   0  0  0  0  0  1  0  0  0  0  0  0
   22.8000    4.8550   31.5610 C   0  0  0  0  0  3  0  0  0  0  0  0
   20.2970    6.2090   32.0910 Br  0  0  0  0  0  0  0  0  0  0  0  0
  1  5  1  0  0  0  0
  1  2  1  0  0  0  0
  2 15  1  0  0  0  0
  2  3  2  0  0  0  0
  3 11  1  0  0  0  0
  4  9  1  0  0  0  0
  4  3  1  0  0  0  0
  5  4  2  0  0  0  0
  6  7  1  0  0  0  0
  6  5  1  0  0  0  0
  7  8  1  0  0  0  0
  8  9  1  0  0  0  0
 10  7  1  0  0  0  0
 11 13  1  0  0  0  0
 11 12  2  0  0  0  0
 13 17  1  0  0  0  0
 14 19  1  6  0  0  0
 14 13  1  0  0  0  0
 15 14  1  0  0  0  0
 16  7  1  0  0  0  0
 18 15  1  0  0  0  0
 19 26  1  0  0  0  0
 20 21  1  0  0  0  0
 20 19  2  0  0  0  0
 21 22  2  0  0  0  0
 22 25  1  0  0  0  0
 22 24  1  0  0  0  0
 23 21  1  0  0  0  0
 24 27  1  0  0  0  0
 26 24  2  0  0  0  0
M  END
>  <Pose>
1

>  <Score>
-6.422

$$$$
