MODEL 1
REMARK VINA RESULT:    -6.422      0.000      0.000
REMARK INTER + INTRA:          -6.756
REMARK INTER:                  -6.797
REMARK INTRA:                   0.041
REMARK UNBOUND:                 0.041
REMARK  1 active torsions:
REMARK  status: ('A' for Active; 'I' for Inactive)
REMARK    1  A    between atoms: C_14  and  C_16 
ROOT
ATOM      1  S   UNK d   1      26.886   3.837  27.522  0.00  0.00    -0.074 SA
ATOM      2  C   UNK d   1      26.382   3.628  29.151  0.00  0.00     0.088 A 
ATOM      3  C   UNK d   1      27.473   4.061  29.856  0.00  0.00     0.073 A 
ATOM      4  C   UNK d   1      28.535   4.488  29.155  0.00  0.00    -0.023 A 
ATOM      5  C   UNK d   1      28.443   4.459  27.789  0.00  0.00     0.018 A 
ATOM      6  C   UNK d   1      29.641   4.941  27.024  0.00  0.00     0.281 C 
ATOM      7  N   UNK d   1      29.964   6.285  27.498  0.00  0.00    -0.070 N 
ATOM      8  C   UNK d   1      30.132   6.360  28.916  0.00  0.00     0.239 C 
ATOM      9  C   UNK d   1      29.883   5.026  29.610  0.00  0.00     0.068 C 
ATOM     10  C   UNK d   1      28.811   7.114  27.148  0.00  0.00     0.270 C 
ATOM     11  C   UNK d   1      27.314   3.987  31.335  0.00  0.00     0.256 C 
ATOM     12  O   UNK d   1      28.249   4.357  32.104  0.00  0.00    -0.267 OA
ATOM     13  N   UNK d   1      26.095   3.495  31.867  0.00  0.00    -0.332 N 
ATOM     14  C   UNK d   1      24.848   3.472  31.160  0.00  0.00     0.219 C 
ATOM     15  N   UNK d   1      25.172   3.142  29.781  0.00  0.00    -0.358 N 
ATOM     16  H   UNK d   1      30.763   6.673  26.957  0.00  0.00     0.279 HD
ATOM     17  H   UNK d   1      26.127   3.121  32.858  0.00  0.00     0.165 HD
ATOM     18  H   UNK d   1      24.554   2.548  29.192  0.00  0.00     0.162 HD
ENDROOT
BRANCH  14  19
ATOM     19  C   UNK d   1      24.140   4.774  31.202  0.00  0.00    -0.013 A 
ATOM     20  C   UNK d   1      24.773   5.959  30.889  0.00  0.00     0.033 A 
ATOM     21  C   UNK d   1      24.132   7.177  30.922  0.00  0.00     0.049 A 
ATOM     22  C   UNK d   1      22.801   7.241  31.282  0.00  0.00     0.141 A 
ATOM     23 Br   UNK d   1      25.013   8.798  30.490  0.00  0.00    -0.048 Br
ATOM     24  C   UNK d   1      22.149   6.073  31.598  0.00  0.00     0.049 A 
ATOM     25  O   UNK d   1      22.149   8.465  31.317  0.00  0.00    -0.189 OA
ATOM     26  C   UNK d   1      22.800   4.855  31.561  0.00  0.00     0.033 A 
ATOM     27 Br   UNK d   1      20.297   6.209  32.091  0.00  0.00    -0.048 Br
ENDBRANCH  14  19
TORSDOF 1
ENDMDL
