MODEL 1
REMARK VINA RESULT:    -8.707      0.000      0.000
REMARK INTER + INTRA:         -10.443
REMARK INTER:                 -10.234
REMARK INTRA:                  -0.209
REMARK UNBOUND:                -0.209
REMARK  3 active torsions:
REMARK  status: ('A' for Active; 'I' for Inactive)
REMARK    1  A    between atoms: N_6  and  C_18 
REMARK    2  A    between atoms: C_8  and  C_9 
REMARK    3  A    between atoms: C_12  and  N_15 
ROOT
ATOM      1  S   UNK d   1      19.712   9.600  33.585  0.00  0.00    -0.087 SA
ATOM      2  C   UNK d   1      19.254   7.879  33.253  0.00  0.00     0.069 C 
ATOM      3  C   UNK d   1      20.610   7.331  32.898  0.00  0.00     0.146 C 
ATOM      4  N   UNK d   1      21.428   8.301  32.235  0.00  0.00    -0.324 N 
ATOM      5  C   UNK d   1      21.096   9.585  32.452  0.00  0.00     0.154 A 
ATOM      6  N   UNK d   1      21.921  10.377  31.757  0.00  0.00    -0.300 N 
ATOM      7  C   UNK d   1      22.797   9.600  31.082  0.00  0.00     0.130 A 
ATOM      8  C   UNK d   1      22.501   8.290  31.373  0.00  0.00     0.062 A 
ATOM      9  C   UNK d   1      18.376   7.769  32.029  0.00  0.00     0.023 C 
ENDROOT
BRANCH   8  10
ATOM     10  C   UNK d   1      23.212   7.155  30.835  0.00  0.00    -0.008 A 
ATOM     11  C   UNK d   1      24.124   7.387  29.791  0.00  0.00     0.016 A 
ATOM     12  C   UNK d   1      24.862   6.361  29.260  0.00  0.00     0.037 A 
ATOM     13  C   UNK d   1      24.765   5.065  29.700  0.00  0.00     0.102 A 
ATOM     14  C   UNK d   1      23.879   4.811  30.722  0.00  0.00     0.037 A 
ATOM     15  C   UNK d   1      23.126   5.858  31.265  0.00  0.00     0.016 A 
BRANCH  13  16
ATOM     16  N   UNK d   1      25.561   4.063  29.099  0.00  0.00    -0.116 N 
ATOM     17  O   UNK d   1      25.925   3.072  29.743  0.00  0.00    -0.532 OA
ATOM     18  O   UNK d   1      25.928   4.195  27.795  0.00  0.00    -0.532 OA
ENDBRANCH  13  16
ENDBRANCH   8  10
BRANCH   6  19
ATOM     19  C   UNK d   1      21.899  11.799  31.718  0.00  0.00     0.041 A 
ATOM     20  C   UNK d   1      20.828  12.525  32.185  0.00  0.00     0.031 A 
ATOM     21  C   UNK d   1      20.782  13.903  32.160  0.00  0.00     0.021 A 
ATOM     22  C   UNK d   1      21.847  14.608  31.644  0.00  0.00     0.011 A 
ATOM     23  C   UNK d   1      22.942  13.911  31.163  0.00  0.00     0.021 A 
ATOM     24 Br   UNK d   1      21.819  16.520  31.591  0.00  0.00    -0.051 Br
ATOM     25  C   UNK d   1      22.963  12.532  31.202  0.00  0.00     0.031 A 
ENDBRANCH   6  19
TORSDOF 3
ENDMDL
