/Users/jonathanwahrer/Desktop/Msc/3_Semester/Drug_Design_Praktikum/waehrer_HTS_screening/HTS_experiment/out/docking_results/vina_output/3elj/1206_docked.pdbqt
 OpenBabel03192218103D

 25 28  0  0  1  0  0  0  0  0999 V2000
   19.7120    9.6000   33.5850 S   0  0  0  0  0  0  0  0  0  0  0  0
   19.2540    7.8790   33.2530 C   0  0  2  0  0  3  0  0  0  0  0  0
   20.6100    7.3310   32.8980 C   0  0  0  0  0  2  0  0  0  0  0  0
   21.4280    8.3010   32.2350 N   0  0  0  0  0  0  0  0  0  0  0  0
   21.0960    9.5850   32.4520 C   0  0  2  0  0  3  0  0  0  0  0  0
   21.9210   10.3770   31.7570 N   0  0  0  0  0  0  0  0  0  0  0  0
   22.7970    9.6000   31.0820 C   0  0  0  0  0  3  0  0  0  0  0  0
   22.5010    8.2900   31.3730 C   0  0  0  0  0  0  0  0  0  0  0  0
   18.3760    7.7690   32.0290 C   0  0  0  0  0  1  0  0  0  0  0  0
   23.2120    7.1550   30.8350 C   0  0  0  0  0  0  0  0  0  0  0  0
   24.1240    7.3870   29.7910 C   0  0  0  0  0  3  0  0  0  0  0  0
   24.8620    6.3610   29.2600 C   0  0  0  0  0  3  0  0  0  0  0  0
   24.7650    5.0650   29.7000 C   0  0  0  0  0  0  0  0  0  0  0  0
   23.8790    4.8110   30.7220 C   0  0  0  0  0  3  0  0  0  0  0  0
   23.1260    5.8580   31.2650 C   0  0  0  0  0  3  0  0  0  0  0  0
   25.5610    4.0630   29.0990 N   0  0  0  0  0  0  0  0  0  0  0  0
   25.9250    3.0720   29.7430 O   0  0  0  0  0  0  0  0  0  0  0  0
   25.9280    4.1950   27.7950 O   0  0  0  0  0  0  0  0  0  0  0  0
   21.8990   11.7990   31.7180 C   0  0  0  0  0  0  0  0  0  0  0  0
   20.8280   12.5250   32.1850 C   0  0  0  0  0  3  0  0  0  0  0  0
   20.7820   13.9030   32.1600 C   0  0  0  0  0  3  0  0  0  0  0  0
   21.8470   14.6080   31.6440 C   0  0  0  0  0  0  0  0  0  0  0  0
   22.9420   13.9110   31.1630 C   0  0  0  0  0  3  0  0  0  0  0  0
   21.8190   16.5200   31.5910 Br  0  0  0  0  0  0  0  0  0  0  0  0
   22.9630   12.5320   31.2020 C   0  0  0  0  0  3  0  0  0  0  0  0
  2  9  1  6  0  0  0
  2  1  1  0  0  0  0
  3  2  1  0  0  0  0
  4  5  1  0  0  0  0
  4  3  1  0  0  0  0
  5  1  1  1  0  0  0
  6  5  1  0  0  0  0
  7  8  2  0  0  0  0
  7  6  1  0  0  0  0
  8  4  1  0  0  0  0
 10 15  1  0  0  0  0
 10  8  1  0  0  0  0
 11 10  2  0  0  0  0
 12 13  2  0  0  0  0
 12 11  1  0  0  0  0
 13 14  1  0  0  0  0
 14 15  2  0  0  0  0
 16 13  1  0  0  0  0
 16 17  2  0  0  0  0
 18 16  2  0  0  0  0
 19  6  1  0  0  0  0
 19 20  1  0  0  0  0
 21 20  2  0  0  0  0
 22 21  1  0  0  0  0
 23 25  1  0  0  0  0
 23 22  2  0  0  0  0
 24 22  1  0  0  0  0
 25 19  2  0  0  0  0
M  END
>  <Pose>
1

>  <Score>
-8.707

$$$$
