MODEL 1
REMARK VINA RESULT:    -8.050      0.000      0.000
REMARK INTER + INTRA:         -10.222
REMARK INTER:                  -9.461
REMARK INTRA:                  -0.761
REMARK UNBOUND:                -0.761
REMARK  3 active torsions:
REMARK  status: ('A' for Active; 'I' for Inactive)
REMARK    1  A    between atoms: N_7  and  C_18 
REMARK    2  A    between atoms: C_8  and  C_10 
REMARK    3  A    between atoms: C_13  and  O_16 
ROOT
ATOM      1  S   UNK d   1      19.376   9.313  33.212  0.00  0.00    -0.093 SA
ATOM      2  C   UNK d   1      17.654   8.740  33.235  0.00  0.00     0.084 C 
ATOM      3  C   UNK d   1      17.665   7.272  32.852  0.00  0.00     0.031 C 
ATOM      4  C   UNK d   1      18.771   6.547  33.589  0.00  0.00     0.131 C 
ATOM      5  N   UNK d   1      19.982   6.726  32.804  0.00  0.00    -0.335 N 
ATOM      6  C   UNK d   1      20.368   7.980  32.560  0.00  0.00     0.154 A 
ATOM      7  N   UNK d   1      21.524   7.949  31.809  0.00  0.00    -0.290 N 
ATOM      8  C   UNK d   1      21.854   6.687  31.587  0.00  0.00     0.067 A 
ATOM      9  C   UNK d   1      20.871   5.931  32.221  0.00  0.00     0.124 A 
ENDROOT
BRANCH   8  10
ATOM     10  C   UNK d   1      22.971   6.107  30.858  0.00  0.00    -0.007 A 
ATOM     11  C   UNK d   1      23.500   4.879  31.279  0.00  0.00     0.016 A 
ATOM     12  C   UNK d   1      24.550   4.285  30.634  0.00  0.00     0.037 A 
ATOM     13  C   UNK d   1      25.161   4.841  29.533  0.00  0.00     0.068 A 
ATOM     14  C   UNK d   1      24.651   6.042  29.114  0.00  0.00     0.037 A 
ATOM     15  C   UNK d   1      23.576   6.669  29.760  0.00  0.00     0.016 A 
BRANCH  13  16
ATOM     16  O   UNK d   1      26.224   4.207  28.905  0.00  0.00    -0.356 OA
ATOM     17  C   UNK d   1      26.278   4.135  27.492  0.00  0.00     0.210 C 
ENDBRANCH  13  16
ENDBRANCH   8  10
BRANCH   7  18
ATOM     18  C   UNK d   1      22.182   9.142  31.389  0.00  0.00     0.042 A 
ATOM     19  C   UNK d   1      23.212   9.684  32.136  0.00  0.00     0.031 A 
ATOM     20  C   UNK d   1      23.889  10.821  31.742  0.00  0.00     0.021 A 
ATOM     21  C   UNK d   1      23.510  11.424  30.558  0.00  0.00     0.011 A 
ATOM     22  C   UNK d   1      22.482  10.877  29.821  0.00  0.00     0.021 A 
ATOM     23 Br   UNK d   1      24.393  13.010  29.928  0.00  0.00    -0.051 Br
ATOM     24  C   UNK d   1      21.793   9.743  30.195  0.00  0.00     0.031 A 
ENDBRANCH   7  18
TORSDOF 3
ENDMDL
