/Users/jonathanwahrer/Desktop/Msc/3_Semester/Drug_Design_Praktikum/waehrer_HTS_screening/HTS_experiment/out/docking_results/vina_output/3elj/1209_docked.pdbqt
 OpenBabel03192218103D

 24 27  0  0  1  0  0  0  0  0999 V2000
   19.3760    9.3130   33.2120 S   0  0  0  0  0  0  0  0  0  0  0  0
   17.6540    8.7400   33.2350 C   0  0  0  0  0  2  0  0  0  0  0  0
   17.6650    7.2720   32.8520 C   0  0  0  0  0  2  0  0  0  0  0  0
   18.7710    6.5470   33.5890 C   0  0  0  0  0  2  0  0  0  0  0  0
   19.9820    6.7260   32.8040 N   0  0  0  0  0  0  0  0  0  0  0  0
   20.3680    7.9800   32.5600 C   0  0  2  0  0  3  0  0  0  0  0  0
   21.5240    7.9490   31.8090 N   0  0  0  0  0  0  0  0  0  0  0  0
   21.8540    6.6870   31.5870 C   0  0  0  0  0  0  0  0  0  0  0  0
   20.8710    5.9310   32.2210 C   0  0  0  0  0  3  0  0  0  0  0  0
   22.9710    6.1070   30.8580 C   0  0  0  0  0  0  0  0  0  0  0  0
   23.5000    4.8790   31.2790 C   0  0  0  0  0  3  0  0  0  0  0  0
   24.5500    4.2850   30.6340 C   0  0  0  0  0  3  0  0  0  0  0  0
   25.1610    4.8410   29.5330 C   0  0  0  0  0  0  0  0  0  0  0  0
   24.6510    6.0420   29.1140 C   0  0  0  0  0  3  0  0  0  0  0  0
   23.5760    6.6690   29.7600 C   0  0  0  0  0  3  0  0  0  0  0  0
   26.2240    4.2070   28.9050 O   0  0  0  0  0  0  0  0  0  0  0  0
   26.2780    4.1350   27.4920 C   0  0  0  0  0  1  0  0  0  0  0  0
   22.1820    9.1420   31.3890 C   0  0  0  0  0  0  0  0  0  0  0  0
   23.2120    9.6840   32.1360 C   0  0  0  0  0  3  0  0  0  0  0  0
   23.8890   10.8210   31.7420 C   0  0  0  0  0  3  0  0  0  0  0  0
   23.5100   11.4240   30.5580 C   0  0  0  0  0  0  0  0  0  0  0  0
   22.4820   10.8770   29.8210 C   0  0  0  0  0  3  0  0  0  0  0  0
   24.3930   13.0100   29.9280 Br  0  0  0  0  0  0  0  0  0  0  0  0
   21.7930    9.7430   30.1950 C   0  0  0  0  0  3  0  0  0  0  0  0
  1  2  1  0  0  0  0
  3  2  1  0  0  0  0
  3  4  1  0  0  0  0
  5  4  1  0  0  0  0
  6  5  1  0  0  0  0
  6  1  1  1  0  0  0
  7  6  1  0  0  0  0
  8  7  1  0  0  0  0
  8  9  2  0  0  0  0
  9  5  1  0  0  0  0
 10 11  1  0  0  0  0
 10  8  1  0  0  0  0
 12 11  2  0  0  0  0
 13 12  1  0  0  0  0
 14 13  2  0  0  0  0
 14 15  1  0  0  0  0
 15 10  2  0  0  0  0
 16 13  1  0  0  0  0
 17 16  1  0  0  0  0
 18  7  1  0  0  0  0
 18 19  1  0  0  0  0
 20 19  2  0  0  0  0
 21 20  1  0  0  0  0
 22 24  1  0  0  0  0
 22 21  2  0  0  0  0
 23 21  1  0  0  0  0
 24 18  2  0  0  0  0
M  END
>  <Pose>
1

>  <Score>
-8.050

$$$$
