MODEL 1
REMARK VINA RESULT:    -6.325      0.000      0.000
REMARK INTER + INTRA:          -7.572
REMARK INTER:                  -7.620
REMARK INTRA:                   0.048
REMARK UNBOUND:                 0.048
REMARK  4 active torsions:
REMARK  status: ('A' for Active; 'I' for Inactive)
REMARK    1  A    between atoms: N_7  and  C_19 
REMARK    2  A    between atoms: C_8  and  O_10 
REMARK    3  A    between atoms: C_8  and  C_11 
REMARK    4  A    between atoms: C_14  and  O_17 
ROOT
ATOM      1  S   UNK d   1      22.172   8.951  29.675  0.00  0.00    -0.094 SA
ATOM      2  C   UNK d   1      22.751   7.211  29.757  0.00  0.00     0.084 C 
ATOM      3  C   UNK d   1      23.420   7.098  31.129  0.00  0.00     0.030 C 
ATOM      4  C   UNK d   1      24.670   7.972  31.107  0.00  0.00     0.126 C 
ATOM      5  N   UNK d   1      24.255   9.320  31.411  0.00  0.00    -0.356 N 
ATOM      6  C   UNK d   1      23.193   9.834  30.849  0.00  0.00     0.148 C 
ATOM      7  N   UNK d   1      23.038  11.180  31.373  0.00  0.00    -0.289 N 
ATOM      8  C   UNK d   1      24.417  11.599  31.493  0.00  0.00     0.185 C 
ATOM      9  C   UNK d   1      24.821  10.322  32.320  0.00  0.00     0.192 C 
ENDROOT
BRANCH   8  10
ATOM     10  O   UNK d   1      24.634  12.741  32.198  0.00  0.00    -0.365 OA
ATOM     11  H   UNK d   1      25.331  13.284  31.716  0.00  0.00     0.213 HD
ENDBRANCH   8  10
BRANCH   8  12
ATOM     12  C   UNK d   1      25.074  11.519  30.184  0.00  0.00    -0.001 A 
ATOM     13  C   UNK d   1      26.258  10.834  29.973  0.00  0.00     0.015 A 
ATOM     14  C   UNK d   1      26.843  10.831  28.697  0.00  0.00     0.037 A 
ATOM     15  C   UNK d   1      26.298  11.476  27.653  0.00  0.00     0.068 A 
ATOM     16  C   UNK d   1      25.090  12.182  27.832  0.00  0.00     0.037 A 
ATOM     17  C   UNK d   1      24.545  12.160  29.104  0.00  0.00     0.015 A 
BRANCH  15  18
ATOM     18  O   UNK d   1      26.859  11.500  26.349  0.00  0.00    -0.356 OA
ATOM     19  C   UNK d   1      27.977  10.695  26.040  0.00  0.00     0.210 C 
ENDBRANCH  15  18
ENDBRANCH   8  12
BRANCH   7  20
ATOM     20  C   UNK d   1      21.833  11.819  31.729  0.00  0.00     0.040 A 
ATOM     21  C   UNK d   1      20.986  11.158  32.652  0.00  0.00     0.031 A 
ATOM     22  C   UNK d   1      19.759  11.682  33.020  0.00  0.00     0.021 A 
ATOM     23  C   UNK d   1      19.312  12.867  32.502  0.00  0.00     0.011 A 
ATOM     24  C   UNK d   1      20.115  13.534  31.600  0.00  0.00     0.021 A 
ATOM     25 Br   UNK d   1      17.619  13.619  32.964  0.00  0.00    -0.051 Br
ATOM     26  C   UNK d   1      21.363  12.996  31.232  0.00  0.00     0.031 A 
ENDBRANCH   7  20
TORSDOF 4
ENDMDL
