MODEL 1
REMARK VINA RESULT:    -5.849      0.000      0.000
REMARK INTER + INTRA:          -8.305
REMARK INTER:                  -7.388
REMARK INTRA:                  -0.918
REMARK UNBOUND:                -0.918
REMARK  5 active torsions:
REMARK  status: ('A' for Active; 'I' for Inactive)
REMARK    1  A    between atoms: C_6  and  O_20 
REMARK    2  A    between atoms: C_6  and  C_21 
REMARK    3  A    between atoms: N_8  and  C_10 
REMARK    4  A    between atoms: C_11  and  O_18 
REMARK    5  A    between atoms: C_14  and  O_16 
ROOT
ATOM      1  S   UNK d   1      26.835   4.054  31.379  0.00  0.00    -0.094 SA
ATOM      2  C   UNK d   1      28.144   2.860  31.487  0.00  0.00     0.084 C 
ATOM      3  C   UNK d   1      29.089   3.034  30.315  0.00  0.00     0.030 C 
ATOM      4  C   UNK d   1      28.327   2.817  29.020  0.00  0.00     0.129 C 
ATOM      5  N   UNK d   1      27.495   3.965  28.740  0.00  0.00    -0.324 N 
ATOM      6  C   UNK d   1      27.410   4.828  27.606  0.00  0.00     0.181 C 
ATOM      7  C   UNK d   1      25.923   5.144  27.637  0.00  0.00     0.198 C 
ATOM      8  N   UNK d   1      25.634   5.208  29.052  0.00  0.00    -0.320 N 
ATOM      9  C   UNK d   1      26.514   4.487  29.654  0.00  0.00     0.148 C 
ENDROOT
BRANCH   8  10
ATOM     10  C   UNK d   1      24.605   5.950  29.690  0.00  0.00     0.072 A 
ATOM     11  C   UNK d   1      24.811   7.315  29.839  0.00  0.00     0.095 A 
ATOM     12  C   UNK d   1      23.855   8.110  30.481  0.00  0.00     0.042 A 
ATOM     13  C   UNK d   1      22.699   7.529  30.971  0.00  0.00     0.039 A 
ATOM     14  C   UNK d   1      22.463   6.181  30.840  0.00  0.00     0.070 A 
ATOM     15  C   UNK d   1      23.463   5.437  30.185  0.00  0.00     0.069 A 
BRANCH  11  16
ATOM     16  O   UNK d   1      25.966   7.889  29.352  0.00  0.00    -0.354 OA
ATOM     17  C   UNK d   1      26.355   9.228  29.555  0.00  0.00     0.210 C 
ENDBRANCH  11  16
BRANCH  14  18
ATOM     18  O   UNK d   1      21.328   5.541  31.308  0.00  0.00    -0.356 OA
ATOM     19  C   UNK d   1      20.547   5.943  32.396  0.00  0.00     0.210 C 
ENDBRANCH  14  18
ENDBRANCH   8  10
BRANCH   6  20
ATOM     20  O   UNK d   1      27.750   4.137  26.447  0.00  0.00    -0.365 OA
ATOM     21  H   UNK d   1      27.382   3.224  26.475  0.00  0.00     0.213 HD
ENDBRANCH   6  20
BRANCH   6  22
ATOM     22  C   UNK d   1      28.138   6.107  27.719  0.00  0.00    -0.002 A 
ATOM     23  C   UNK d   1      28.999   6.459  28.711  0.00  0.00     0.013 A 
ATOM     24  C   UNK d   1      29.607   7.716  28.738  0.00  0.00     0.020 A 
ATOM     25  C   UNK d   1      29.356   8.652  27.757  0.00  0.00     0.011 A 
ATOM     26  C   UNK d   1      28.496   8.310  26.759  0.00  0.00     0.020 A 
ATOM     27 Br   UNK d   1      30.194  10.376  27.811  0.00  0.00    -0.051 Br
ATOM     28  C   UNK d   1      27.901   7.079  26.733  0.00  0.00     0.013 A 
ENDBRANCH   6  22
TORSDOF 5
ENDMDL
