MODEL 1
REMARK VINA RESULT:    -7.594      0.000      0.000
REMARK INTER + INTRA:          -9.379
REMARK INTER:                  -9.148
REMARK INTRA:                  -0.231
REMARK UNBOUND:                -0.231
REMARK  4 active torsions:
REMARK  status: ('A' for Active; 'I' for Inactive)
REMARK    1  A    between atoms: C_6  and  O_17 
REMARK    2  A    between atoms: C_6  and  C_18 
REMARK    3  A    between atoms: N_8  and  C_10 
REMARK    4  A    between atoms: C_20  and  N_24 
ROOT
ATOM      1  S   UNK d   1      24.601   9.487  31.811  0.00  0.00    -0.094 SA
ATOM      2  C   UNK d   1      25.510  10.645  30.705  0.00  0.00     0.084 C 
ATOM      3  C   UNK d   1      25.728   9.974  29.360  0.00  0.00     0.030 C 
ATOM      4  C   UNK d   1      26.213   8.558  29.531  0.00  0.00     0.129 C 
ATOM      5  N   UNK d   1      25.107   7.695  29.802  0.00  0.00    -0.324 N 
ATOM      6  C   UNK d   1      24.664   6.379  29.381  0.00  0.00     0.181 C 
ATOM      7  C   UNK d   1      23.154   6.467  29.514  0.00  0.00     0.198 C 
ATOM      8  N   UNK d   1      23.015   7.475  30.585  0.00  0.00    -0.323 N 
ATOM      9  C   UNK d   1      24.093   8.138  30.719  0.00  0.00     0.147 C 
ENDROOT
BRANCH   6  10
ATOM     10  O   UNK d   1      25.059   6.077  28.092  0.00  0.00    -0.365 OA
ATOM     11  H   UNK d   1      26.012   6.002  27.946  0.00  0.00     0.213 HD
ENDBRANCH   6  10
BRANCH   6  12
ATOM     12  C   UNK d   1      25.139   5.320  30.302  0.00  0.00     0.001 A 
ATOM     13  C   UNK d   1      26.491   5.059  30.407  0.00  0.00     0.048 A 
ATOM     14  C   UNK d   1      26.894   4.054  31.287  0.00  0.00     0.103 A 
ATOM     15  C   UNK d   1      25.986   3.352  32.020  0.00  0.00     0.036 A 
ATOM     16  C   UNK d   1      24.629   3.604  31.926  0.00  0.00     0.003 A 
ATOM     17  C   UNK d   1      24.232   4.614  31.041  0.00  0.00     0.012 A 
BRANCH  14  18
ATOM     18  N   UNK d   1      28.280   3.778  31.402  0.00  0.00    -0.116 N 
ATOM     19  O   UNK d   1      29.145   4.599  31.040  0.00  0.00    -0.532 OA
ATOM     20  O   UNK d   1      28.726   2.594  31.917  0.00  0.00    -0.532 OA
ENDBRANCH  14  18
ENDBRANCH   6  12
BRANCH   8  21
ATOM     21  C   UNK d   1      21.825   7.677  31.342  0.00  0.00     0.036 A 
ATOM     22  C   UNK d   1      21.047   6.703  31.897  0.00  0.00     0.031 A 
ATOM     23  C   UNK d   1      19.907   6.973  32.641  0.00  0.00     0.021 A 
ATOM     24  C   UNK d   1      19.518   8.282  32.843  0.00  0.00     0.011 A 
ATOM     25  C   UNK d   1      20.286   9.300  32.291  0.00  0.00     0.021 A 
ATOM     26 Br   UNK d   1      17.960   8.755  33.848  0.00  0.00    -0.051 Br
ATOM     27  C   UNK d   1      21.423   9.006  31.550  0.00  0.00     0.031 A 
ENDBRANCH   8  21
TORSDOF 4
ENDMDL
