/Users/jonathanwahrer/Desktop/Msc/3_Semester/Drug_Design_Praktikum/waehrer_HTS_screening/HTS_experiment/out/docking_results/vina_output/3elj/1219_docked.pdbqt
 OpenBabel03192218103D

 27 30  0  0  1  0  0  0  0  0999 V2000
   24.6010    9.4870   31.8110 S   0  0  0  0  0  0  0  0  0  0  0  0
   25.5100   10.6450   30.7050 C   0  0  0  0  0  2  0  0  0  0  0  0
   25.7280    9.9740   29.3600 C   0  0  0  0  0  2  0  0  0  0  0  0
   26.2130    8.5580   29.5310 C   0  0  0  0  0  2  0  0  0  0  0  0
   25.1070    7.6950   29.8020 N   0  0  2  0  0  0  0  0  0  0  0  0
   24.6640    6.3790   29.3810 C   0  0  1  0  0  0  0  0  0  0  0  0
   23.1540    6.4670   29.5140 C   0  0  0  0  0  2  0  0  0  0  0  0
   23.0150    7.4750   30.5850 N   0  0  0  0  0  0  0  0  0  0  0  0
   24.0930    8.1380   30.7190 C   0  0  1  0  0  3  0  0  0  0  0  0
   25.0590    6.0770   28.0920 O   0  0  0  0  0  0  0  0  0  0  0  0
   26.0120    6.0020   27.9460 H   0  0  0  0  0  0  0  0  0  0  0  0
   25.1390    5.3200   30.3020 C   0  0  0  0  0  0  0  0  0  0  0  0
   26.4910    5.0590   30.4070 C   0  0  0  0  0  3  0  0  0  0  0  0
   26.8940    4.0540   31.2870 C   0  0  0  0  0  0  0  0  0  0  0  0
   25.9860    3.3520   32.0200 C   0  0  0  0  0  3  0  0  0  0  0  0
   24.6290    3.6040   31.9260 C   0  0  0  0  0  3  0  0  0  0  0  0
   24.2320    4.6140   31.0410 C   0  0  0  0  0  3  0  0  0  0  0  0
   28.2800    3.7780   31.4020 N   0  0  0  0  0  0  0  0  0  0  0  0
   29.1450    4.5990   31.0400 O   0  0  0  0  0  0  0  0  0  0  0  0
   28.7260    2.5940   31.9170 O   0  0  0  0  0  0  0  0  0  0  0  0
   21.8250    7.6770   31.3420 C   0  0  0  0  0  0  0  0  0  0  0  0
   21.0470    6.7030   31.8970 C   0  0  0  0  0  3  0  0  0  0  0  0
   19.9070    6.9730   32.6410 C   0  0  0  0  0  3  0  0  0  0  0  0
   19.5180    8.2820   32.8430 C   0  0  0  0  0  0  0  0  0  0  0  0
   20.2860    9.3000   32.2910 C   0  0  0  0  0  3  0  0  0  0  0  0
   17.9600    8.7550   33.8480 Br  0  0  0  0  0  0  0  0  0  0  0  0
   21.4230    9.0060   31.5500 C   0  0  0  0  0  3  0  0  0  0  0  0
  2  1  1  0  0  0  0
  3  4  1  0  0  0  0
  3  2  1  0  0  0  0
  5  4  1  6  0  0  0
  5  9  1  0  0  0  0
  6 10  1  6  0  0  0
  6  7  1  0  0  0  0
  6  5  1  0  0  0  0
  6 12  1  0  0  0  0
  7  8  1  0  0  0  0
  8  9  1  0  0  0  0
  8 21  1  0  0  0  0
  9  1  1  1  0  0  0
 11 10  1  0  0  0  0
 12 13  2  0  0  0  0
 12 17  1  0  0  0  0
 13 14  1  0  0  0  0
 14 18  1  0  0  0  0
 14 15  2  0  0  0  0
 16 15  1  0  0  0  0
 17 16  2  0  0  0  0
 18 20  2  0  0  0  0
 19 18  2  0  0  0  0
 21 27  2  0  0  0  0
 21 22  1  0  0  0  0
 22 23  2  0  0  0  0
 23 24  1  0  0  0  0
 24 26  1  0  0  0  0
 25 24  2  0  0  0  0
 27 25  1  0  0  0  0
M  END
>  <Pose>
1

>  <Score>
-7.594

$$$$
