/Users/jonathanwahrer/Desktop/Msc/3_Semester/Drug_Design_Praktikum/waehrer_HTS_screening/HTS_experiment/out/docking_results/vina_output/3elj/1220_docked.pdbqt
 OpenBabel03192218103D

 27 30  0  0  1  0  0  0  0  0999 V2000
   20.3010   11.5640   33.3990 S   0  0  0  0  0  0  0  0  0  0  0  0
   18.8280   12.5650   32.9440 C   0  0  0  0  0  2  0  0  0  0  0  0
   19.1550   13.7700   32.1660 C   0  0  0  0  0  2  0  0  0  0  0  0
   20.5590   14.1970   32.0420 C   0  0  0  0  0  2  0  0  0  0  0  0
   21.5200   13.2410   31.6700 N   0  0  1  0  0  0  0  0  0  0  0  0
   22.7690   13.2980   30.9730 C   0  0  2  0  0  0  0  0  0  0  0  0
   22.7510   11.9650   30.2580 C   0  0  0  0  0  2  0  0  0  0  0  0
   22.0770   11.1220   31.2220 N   0  0  0  0  0  0  0  0  0  0  0  0
   21.3940   11.8310   31.9910 C   0  0  1  0  0  3  0  0  0  0  0  0
   23.8140   13.2340   31.8980 O   0  0  0  0  0  0  0  0  0  0  0  0
   23.9490   14.1150   32.2830 H   0  0  0  0  0  0  0  0  0  0  0  0
   22.9410   14.4220   30.0350 C   0  0  0  0  0  0  0  0  0  0  0  0
   23.6490   14.1710   28.8630 C   0  0  0  0  0  3  0  0  0  0  0  0
   23.8610   15.1550   27.9240 C   0  0  0  0  0  3  0  0  0  0  0  0
   23.3790   16.4410   28.0970 C   0  0  0  0  0  0  0  0  0  0  0  0
   22.6730   16.6960   29.2570 C   0  0  0  0  0  3  0  0  0  0  0  0
   22.4610   15.6940   30.2100 C   0  0  0  0  0  3  0  0  0  0  0  0
   23.6070   17.4350   27.1150 N   0  0  0  0  0  0  0  0  0  0  0  0
   23.8010   18.6260   27.3810 O   0  0  0  0  0  0  0  0  0  0  0  0
   23.6230   17.0710   25.7930 O   0  0  0  0  0  0  0  0  0  0  0  0
   22.1950    9.6960   31.2900 C   0  0  0  0  0  0  0  0  0  0  0  0
   23.3850    9.1110   30.8810 C   0  0  0  0  0  3  0  0  0  0  0  0
   23.5650    7.7300   30.8980 C   0  0  0  0  0  3  0  0  0  0  0  0
   22.5540    6.8970   31.3250 C   0  0  0  0  0  0  0  0  0  0  0  0
   21.3700    7.4610   31.7330 C   0  0  0  0  0  3  0  0  0  0  0  0
   22.8030    4.9890   31.3310 Br  0  0  0  0  0  0  0  0  0  0  0  0
   21.2180    8.8530   31.7030 C   0  0  0  0  0  3  0  0  0  0  0  0
  2  1  1  0  0  0  0
  3  2  1  0  0  0  0
  4  3  1  0  0  0  0
  5  9  1  0  0  0  0
  5  4  1  1  0  0  0
  6  5  1  0  0  0  0
  6 10  1  1  0  0  0
  7  6  1  0  0  0  0
  7  8  1  0  0  0  0
  8 21  1  0  0  0  0
  8  9  1  0  0  0  0
  9  1  1  1  0  0  0
 10 11  1  0  0  0  0
 12 17  1  0  0  0  0
 12  6  1  0  0  0  0
 13 12  2  0  0  0  0
 14 15  2  0  0  0  0
 14 13  1  0  0  0  0
 15 16  1  0  0  0  0
 16 17  2  0  0  0  0
 18 19  2  0  0  0  0
 18 15  1  0  0  0  0
 20 18  2  0  0  0  0
 21 27  1  0  0  0  0
 22 23  1  0  0  0  0
 22 21  2  0  0  0  0
 23 24  2  0  0  0  0
 24 26  1  0  0  0  0
 24 25  1  0  0  0  0
 27 25  2  0  0  0  0
M  END
>  <Pose>
1

>  <Score>
-8.717

$$$$
