MODEL 1
REMARK VINA RESULT:    -7.578      0.000      0.000
REMARK INTER + INTRA:          -8.610
REMARK INTER:                  -8.686
REMARK INTRA:                   0.076
REMARK UNBOUND:                 0.076
REMARK  3 active torsions:
REMARK  status: ('A' for Active; 'I' for Inactive)
REMARK    1  A    between atoms: C_6  and  O_17 
REMARK    2  A    between atoms: C_6  and  C_18 
REMARK    3  A    between atoms: N_8  and  C_10 
ROOT
ATOM      1  S   UNK d   1      24.440   9.310  32.186  0.00  0.00    -0.094 SA
ATOM      2  C   UNK d   1      25.296  10.615  31.195  0.00  0.00     0.084 C 
ATOM      3  C   UNK d   1      25.700  10.069  29.851  0.00  0.00     0.030 C 
ATOM      4  C   UNK d   1      25.965   8.578  29.851  0.00  0.00     0.129 C 
ATOM      5  N   UNK d   1      24.805   7.784  29.973  0.00  0.00    -0.324 N 
ATOM      6  C   UNK d   1      24.230   6.522  29.476  0.00  0.00     0.181 C 
ATOM      7  C   UNK d   1      22.792   6.973  29.387  0.00  0.00     0.198 C 
ATOM      8  N   UNK d   1      22.651   7.728  30.623  0.00  0.00    -0.323 N 
ATOM      9  C   UNK d   1      23.762   8.235  30.880  0.00  0.00     0.147 C 
ENDROOT
BRANCH   6  10
ATOM     10  O   UNK d   1      24.699   6.165  28.249  0.00  0.00    -0.365 OA
ATOM     11  H   UNK d   1      25.606   5.770  28.227  0.00  0.00     0.213 HD
ENDBRANCH   6  10
BRANCH   6  12
ATOM     12  C   UNK d   1      24.353   5.442  30.510  0.00  0.00    -0.002 A 
ATOM     13  C   UNK d   1      23.257   4.825  31.084  0.00  0.00     0.012 A 
ATOM     14  C   UNK d   1      23.459   3.829  32.030  0.00  0.00     0.001 A 
ATOM     15  C   UNK d   1      24.724   3.417  32.429  0.00  0.00     0.000 A 
ATOM     16  C   UNK d   1      25.813   4.022  31.865  0.00  0.00     0.001 A 
ATOM     17  C   UNK d   1      25.614   5.025  30.917  0.00  0.00     0.012 A 
ENDBRANCH   6  12
BRANCH   8  18
ATOM     18  C   UNK d   1      21.452   7.804  31.424  0.00  0.00     0.036 A 
ATOM     19  C   UNK d   1      20.679   6.745  31.781  0.00  0.00     0.031 A 
ATOM     20  C   UNK d   1      19.505   6.868  32.515  0.00  0.00     0.021 A 
ATOM     21  C   UNK d   1      19.083   8.109  32.911  0.00  0.00     0.011 A 
ATOM     22  C   UNK d   1      19.866   9.189  32.550  0.00  0.00     0.021 A 
ATOM     23 Br   UNK d   1      17.474   8.377  33.923  0.00  0.00    -0.051 Br
ATOM     24  C   UNK d   1      21.021   9.066  31.828  0.00  0.00     0.031 A 
ENDBRANCH   8  18
TORSDOF 3
ENDMDL
