MODEL 1
REMARK VINA RESULT:    -5.955      0.000      0.000
REMARK INTER + INTRA:          -7.620
REMARK INTER:                  -7.174
REMARK INTRA:                  -0.447
REMARK UNBOUND:                -0.447
REMARK  4 active torsions:
REMARK  status: ('A' for Active; 'I' for Inactive)
REMARK    1  A    between atoms: C_6  and  O_18 
REMARK    2  A    between atoms: C_6  and  C_19 
REMARK    3  A    between atoms: N_8  and  C_10 
REMARK    4  A    between atoms: C_13  and  O_16 
ROOT
ATOM      1  S   UNK d   1      27.143   8.559  29.042  0.00  0.00    -0.094 SA
ATOM      2  C   UNK d   1      28.139   9.171  27.622  0.00  0.00     0.084 C 
ATOM      3  C   UNK d   1      29.165   8.079  27.354  0.00  0.00     0.030 C 
ATOM      4  C   UNK d   1      28.534   6.843  26.794  0.00  0.00     0.129 C 
ATOM      5  N   UNK d   1      27.619   6.184  27.674  0.00  0.00    -0.324 N 
ATOM      6  C   UNK d   1      27.317   4.792  28.023  0.00  0.00     0.181 C 
ATOM      7  C   UNK d   1      25.784   4.938  28.052  0.00  0.00     0.198 C 
ATOM      8  N   UNK d   1      25.629   6.205  28.743  0.00  0.00    -0.323 N 
ATOM      9  C   UNK d   1      26.668   6.899  28.510  0.00  0.00     0.147 C 
ENDROOT
BRANCH   6  10
ATOM     10  O   UNK d   1      27.720   3.958  27.008  0.00  0.00    -0.365 OA
ATOM     11  H   UNK d   1      28.597   4.205  26.629  0.00  0.00     0.213 HD
ENDBRANCH   6  10
BRANCH   6  12
ATOM     12  C   UNK d   1      27.809   4.419  29.361  0.00  0.00    -0.002 A 
ATOM     13  C   UNK d   1      29.018   4.793  29.905  0.00  0.00     0.013 A 
ATOM     14  C   UNK d   1      29.383   4.395  31.180  0.00  0.00     0.020 A 
ATOM     15  C   UNK d   1      28.544   3.619  31.926  0.00  0.00     0.011 A 
ATOM     16  C   UNK d   1      27.331   3.235  31.397  0.00  0.00     0.020 A 
ATOM     17 Br   UNK d   1      28.992   3.032  33.700  0.00  0.00    -0.051 Br
ATOM     18  C   UNK d   1      26.981   3.636  30.133  0.00  0.00     0.013 A 
ENDBRANCH   6  12
BRANCH   8  19
ATOM     19  C   UNK d   1      24.461   6.524  29.532  0.00  0.00     0.036 A 
ATOM     20  C   UNK d   1      23.770   5.509  30.188  0.00  0.00     0.032 A 
ATOM     21  C   UNK d   1      22.652   5.780  30.945  0.00  0.00     0.039 A 
ATOM     22  C   UNK d   1      22.153   7.056  31.098  0.00  0.00     0.068 A 
ATOM     23  C   UNK d   1      22.828   8.064  30.454  0.00  0.00     0.039 A 
ATOM     24  C   UNK d   1      23.967   7.784  29.683  0.00  0.00     0.032 A 
BRANCH  22  25
ATOM     25  O   UNK d   1      21.022   7.292  31.872  0.00  0.00    -0.356 OA
ATOM     26  C   UNK d   1      20.121   6.317  32.315  0.00  0.00     0.210 C 
ENDBRANCH  22  25
ENDBRANCH   8  19
TORSDOF 4
ENDMDL
