MODEL 1
REMARK VINA RESULT:    -7.912      0.000      0.000
REMARK INTER + INTRA:          -9.655
REMARK INTER:                  -9.068
REMARK INTRA:                  -0.587
REMARK UNBOUND:                -0.587
REMARK  3 active torsions:
REMARK  status: ('A' for Active; 'I' for Inactive)
REMARK    1  A    between atoms: C_6  and  O_16 
REMARK    2  A    between atoms: C_6  and  C_17 
REMARK    3  A    between atoms: N_8  and  C_10 
ROOT
ATOM      1  S   UNK d   1      20.750   8.909  33.202  0.00  0.00    -0.094 SA
ATOM      2  C   UNK d   1      19.196   7.990  33.386  0.00  0.00     0.084 C 
ATOM      3  C   UNK d   1      19.068   7.115  32.135  0.00  0.00     0.030 C 
ATOM      4  C   UNK d   1      20.208   6.084  32.162  0.00  0.00     0.129 C 
ATOM      5  N   UNK d   1      21.403   6.726  31.600  0.00  0.00    -0.324 N 
ATOM      6  C   UNK d   1      22.399   6.295  30.707  0.00  0.00     0.181 C 
ATOM      7  C   UNK d   1      23.122   7.570  30.287  0.00  0.00     0.198 C 
ATOM      8  N   UNK d   1      22.621   8.570  31.180  0.00  0.00    -0.323 N 
ATOM      9  C   UNK d   1      21.705   8.079  31.910  0.00  0.00     0.147 C 
ENDROOT
BRANCH   6  10
ATOM     10  O   UNK d   1      21.791   5.803  29.530  0.00  0.00    -0.365 OA
ATOM     11  H   UNK d   1      22.087   6.403  28.797  0.00  0.00     0.213 HD
ENDBRANCH   6  10
BRANCH   6  12
ATOM     12  C   UNK d   1      23.389   5.319  31.160  0.00  0.00    -0.002 A 
ATOM     13  C   UNK d   1      24.699   5.523  30.730  0.00  0.00     0.013 A 
ATOM     14  C   UNK d   1      25.760   4.714  31.092  0.00  0.00     0.020 A 
ATOM     15  C   UNK d   1      25.547   3.642  31.915  0.00  0.00     0.011 A 
ATOM     16  C   UNK d   1      24.253   3.422  32.353  0.00  0.00     0.020 A 
ATOM     17 Br   UNK d   1      26.985   2.481  32.469  0.00  0.00    -0.051 Br
ATOM     18  C   UNK d   1      23.195   4.246  31.981  0.00  0.00     0.013 A 
ENDBRANCH   6  12
BRANCH   8  19
ATOM     19  C   UNK d   1      23.100   9.924  31.158  0.00  0.00     0.036 A 
ATOM     20  C   UNK d   1      24.290  10.214  31.743  0.00  0.00     0.029 A 
ATOM     21  C   UNK d   1      24.744  11.527  31.681  0.00  0.00     0.002 A 
ATOM     22  C   UNK d   1      24.041  12.533  31.056  0.00  0.00     0.000 A 
ATOM     23  C   UNK d   1      22.836  12.190  30.478  0.00  0.00     0.002 A 
ATOM     24  C   UNK d   1      22.357  10.903  30.520  0.00  0.00     0.029 A 
ENDBRANCH   8  19
TORSDOF 3
ENDMDL
