/Users/jonathanwahrer/Desktop/Msc/3_Semester/Drug_Design_Praktikum/waehrer_HTS_screening/HTS_experiment/out/docking_results/vina_output/3elj/1226_docked.pdbqt
 OpenBabel03192218113D

 24 27  0  0  1  0  0  0  0  0999 V2000
   20.7500    8.9090   33.2020 S   0  0  0  0  0  0  0  0  0  0  0  0
   19.1960    7.9900   33.3860 C   0  0  0  0  0  2  0  0  0  0  0  0
   19.0680    7.1150   32.1350 C   0  0  0  0  0  2  0  0  0  0  0  0
   20.2080    6.0840   32.1620 C   0  0  0  0  0  2  0  0  0  0  0  0
   21.4030    6.7260   31.6000 N   0  0  1  0  0  0  0  0  0  0  0  0
   22.3990    6.2950   30.7070 C   0  0  2  0  0  0  0  0  0  0  0  0
   23.1220    7.5700   30.2870 C   0  0  0  0  0  2  0  0  0  0  0  0
   22.6210    8.5700   31.1800 N   0  0  0  0  0  0  0  0  0  0  0  0
   21.7050    8.0790   31.9100 C   0  0  1  0  0  3  0  0  0  0  0  0
   21.7910    5.8030   29.5300 O   0  0  0  0  0  0  0  0  0  0  0  0
   22.0870    6.4030   28.7970 H   0  0  0  0  0  0  0  0  0  0  0  0
   23.3890    5.3190   31.1600 C   0  0  0  0  0  0  0  0  0  0  0  0
   24.6990    5.5230   30.7300 C   0  0  0  0  0  3  0  0  0  0  0  0
   25.7600    4.7140   31.0920 C   0  0  0  0  0  3  0  0  0  0  0  0
   25.5470    3.6420   31.9150 C   0  0  0  0  0  0  0  0  0  0  0  0
   24.2530    3.4220   32.3530 C   0  0  0  0  0  3  0  0  0  0  0  0
   26.9850    2.4810   32.4690 Br  0  0  0  0  0  0  0  0  0  0  0  0
   23.1950    4.2460   31.9810 C   0  0  0  0  0  3  0  0  0  0  0  0
   23.1000    9.9240   31.1580 C   0  0  0  0  0  0  0  0  0  0  0  0
   24.2900   10.2140   31.7430 C   0  0  0  0  0  3  0  0  0  0  0  0
   24.7440   11.5270   31.6810 C   0  0  0  0  0  3  0  0  0  0  0  0
   24.0410   12.5330   31.0560 C   0  0  0  0  0  3  0  0  0  0  0  0
   22.8360   12.1900   30.4780 C   0  0  0  0  0  3  0  0  0  0  0  0
   22.3570   10.9030   30.5200 C   0  0  0  0  0  3  0  0  0  0  0  0
  1  2  1  0  0  0  0
  3  4  1  0  0  0  0
  3  2  1  0  0  0  0
  5  9  1  0  0  0  0
  5  4  1  6  0  0  0
  6 10  1  6  0  0  0
  6 12  1  0  0  0  0
  6  5  1  0  0  0  0
  7  6  1  0  0  0  0
  7  8  1  0  0  0  0
  8  9  1  0  0  0  0
  9  1  1  6  0  0  0
 11 10  1  0  0  0  0
 12 18  1  0  0  0  0
 13 14  1  0  0  0  0
 13 12  2  0  0  0  0
 14 15  2  0  0  0  0
 15 16  1  0  0  0  0
 15 17  1  0  0  0  0
 18 16  2  0  0  0  0
 19  8  1  0  0  0  0
 19 20  1  0  0  0  0
 21 20  2  0  0  0  0
 22 21  1  0  0  0  0
 23 24  1  0  0  0  0
 23 22  2  0  0  0  0
 24 19  2  0  0  0  0
M  END
>  <Pose>
1

>  <Score>
-7.912

$$$$
