MODEL 1
REMARK VINA RESULT:    -5.425      0.000      0.000
REMARK INTER + INTRA:          -7.314
REMARK INTER:                  -6.377
REMARK INTRA:                  -0.937
REMARK UNBOUND:                -0.937
REMARK  3 active torsions:
REMARK  status: ('A' for Active; 'I' for Inactive)
REMARK    1  A    between atoms: C_9  and  C_12 
REMARK    2  A    between atoms: C_12  and  C_13 
REMARK    3  A    between atoms: C_12  and  C_24 
ROOT
ATOM      1  C   UNK d   1      29.196  16.034  23.909  0.00  0.00     0.063 C 
ENDROOT
BRANCH   1   2
ATOM      2  C   UNK d   1      28.392  14.906  24.453  0.00  0.00     0.182 C 
ATOM      3  C   UNK d   1      26.969  15.341  24.471  0.00  0.00     0.259 C 
ATOM      4  N   UNK d   1      26.250  15.294  23.223  0.00  0.00    -0.188 NA
ATOM      5  O   UNK d   1      26.448  15.727  25.547  0.00  0.00    -0.270 OA
ATOM      6  C   UNK d   1      26.602  14.554  22.260  0.00  0.00     0.174 C 
ATOM      7  S   UNK d   1      25.939  14.278  20.629  0.00  0.00    -0.090 SA
ATOM      8  N   UNK d   1      27.719  13.699  22.364  0.00  0.00    -0.295 N 
ATOM      9  C   UNK d   1      26.746  12.618  20.435  0.00  0.00     0.103 C 
ATOM     10  C   UNK d   1      28.015  12.937  21.184  0.00  0.00     0.144 C 
ATOM     11  C   UNK d   1      28.457  13.687  23.614  0.00  0.00     0.239 C 
ATOM     12  O   UNK d   1      29.101  12.649  23.902  0.00  0.00    -0.272 OA
ENDBRANCH   1   2
BRANCH   1  13
ATOM     13  C   UNK d   1      30.172  15.625  22.833  0.00  0.00     0.182 C 
ATOM     14  C   UNK d   1      31.564  15.499  23.294  0.00  0.00     0.239 C 
ATOM     15  O   UNK d   1      31.922  14.472  23.971  0.00  0.00    -0.272 OA
ATOM     16  N   UNK d   1      32.533  16.533  22.986  0.00  0.00    -0.295 N 
ATOM     17  C   UNK d   1      33.846  16.673  23.552  0.00  0.00     0.144 C 
ATOM     18  C   UNK d   1      32.195  17.504  22.017  0.00  0.00     0.174 C 
ATOM     19  C   UNK d   1      34.250  18.125  23.611  0.00  0.00     0.103 C 
ATOM     20  S   UNK d   1      33.605  18.605  21.941  0.00  0.00    -0.090 SA
ATOM     21  N   UNK d   1      31.077  17.508  21.400  0.00  0.00    -0.188 NA
ATOM     22  C   UNK d   1      30.068  16.516  21.651  0.00  0.00     0.259 C 
ATOM     23  O   UNK d   1      29.111  16.435  20.841  0.00  0.00    -0.270 OA
ENDBRANCH   1  13
BRANCH   1  24
ATOM     24  C   UNK d   1      29.860  16.738  25.029  0.00  0.00    -0.050 A 
ATOM     25  C   UNK d   1      30.170  16.069  26.206  0.00  0.00     0.026 A 
ATOM     26  C   UNK d   1      30.792  16.714  27.255  0.00  0.00     0.011 A 
ATOM     27  C   UNK d   1      31.122  18.048  27.155  0.00  0.00     0.019 A 
ATOM     28 Br   UNK d   1      31.223  15.804  28.876  0.00  0.00    -0.051 Br
ATOM     29  C   UNK d   1      30.816  18.701  26.000  0.00  0.00     0.002 A 
ATOM     30  C   UNK d   1      30.194  18.070  24.942  0.00  0.00     0.007 A 
ENDBRANCH   1  24
TORSDOF 3
ENDMDL
