/Users/jonathanwahrer/Desktop/Msc/3_Semester/Drug_Design_Praktikum/waehrer_HTS_screening/HTS_experiment/out/docking_results/vina_output/3elj/1236_docked.pdbqt
 OpenBabel03192218113D

 30 34  0  0  1  0  0  0  0  0999 V2000
   29.1960   16.0340   23.9090 C   0  0  2  0  0  3  0  0  0  0  0  0
   28.3920   14.9060   24.4530 C   0  0  1  0  0  3  0  0  0  0  0  0
   26.9690   15.3410   24.4710 C   0  0  0  0  0  0  0  0  0  0  0  0
   26.2500   15.2940   23.2230 N   0  0  0  0  0  0  0  0  0  0  0  0
   26.4480   15.7270   25.5470 O   0  0  0  0  0  0  0  0  0  0  0  0
   26.6020   14.5540   22.2600 C   0  0  0  0  0  0  0  0  0  0  0  0
   25.9390   14.2780   20.6290 S   0  0  0  0  0  0  0  0  0  0  0  0
   27.7190   13.6990   22.3640 N   0  0  0  0  0  0  0  0  0  0  0  0
   26.7460   12.6180   20.4350 C   0  0  0  0  0  2  0  0  0  0  0  0
   28.0150   12.9370   21.1840 C   0  0  0  0  0  2  0  0  0  0  0  0
   28.4570   13.6870   23.6140 C   0  0  0  0  0  0  0  0  0  0  0  0
   29.1010   12.6490   23.9020 O   0  0  0  0  0  0  0  0  0  0  0  0
   30.1720   15.6250   22.8330 C   0  0  2  0  0  3  0  0  0  0  0  0
   31.5640   15.4990   23.2940 C   0  0  0  0  0  0  0  0  0  0  0  0
   31.9220   14.4720   23.9710 O   0  0  0  0  0  0  0  0  0  0  0  0
   32.5330   16.5330   22.9860 N   0  0  0  0  0  0  0  0  0  0  0  0
   33.8460   16.6730   23.5520 C   0  0  0  0  0  2  0  0  0  0  0  0
   32.1950   17.5040   22.0170 C   0  0  0  0  0  0  0  0  0  0  0  0
   34.2500   18.1250   23.6110 C   0  0  0  0  0  2  0  0  0  0  0  0
   33.6050   18.6050   21.9410 S   0  0  0  0  0  0  0  0  0  0  0  0
   31.0770   17.5080   21.4000 N   0  0  0  0  0  0  0  0  0  0  0  0
   30.0680   16.5160   21.6510 C   0  0  0  0  0  0  0  0  0  0  0  0
   29.1110   16.4350   20.8410 O   0  0  0  0  0  0  0  0  0  0  0  0
   29.8600   16.7380   25.0290 C   0  0  0  0  0  0  0  0  0  0  0  0
   30.1700   16.0690   26.2060 C   0  0  0  0  0  3  0  0  0  0  0  0
   30.7920   16.7140   27.2550 C   0  0  0  0  0  0  0  0  0  0  0  0
   31.1220   18.0480   27.1550 C   0  0  0  0  0  3  0  0  0  0  0  0
   31.2230   15.8040   28.8760 Br  0  0  0  0  0  0  0  0  0  0  0  0
   30.8160   18.7010   26.0000 C   0  0  0  0  0  3  0  0  0  0  0  0
   30.1940   18.0700   24.9420 C   0  0  0  0  0  3  0  0  0  0  0  0
  1 24  1  1  0  0  0
  2  1  1  6  0  0  0
  2  3  1  0  0  0  0
  3  5  2  0  0  0  0
  4  3  1  0  0  0  0
  6  8  1  0  0  0  0
  6  4  2  0  0  0  0
  7  6  1  0  0  0  0
  8 11  1  0  0  0  0
  9  7  1  0  0  0  0
  9 10  1  0  0  0  0
 10  8  1  0  0  0  0
 11 12  2  0  0  0  0
 11  2  1  0  0  0  0
 13 14  1  0  0  0  0
 13  1  1  1  0  0  0
 14 15  2  0  0  0  0
 16 14  1  0  0  0  0
 16 17  1  0  0  0  0
 17 19  1  0  0  0  0
 18 16  1  0  0  0  0
 20 18  1  0  0  0  0
 20 19  1  0  0  0  0
 21 22  1  0  0  0  0
 21 18  2  0  0  0  0
 22 13  1  0  0  0  0
 23 22  2  0  0  0  0
 24 25  1  0  0  0  0
 25 26  2  0  0  0  0
 26 28  1  0  0  0  0
 27 26  1  0  0  0  0
 29 27  2  0  0  0  0
 30 24  2  0  0  0  0
 30 29  1  0  0  0  0
M  END
>  <Pose>
1

>  <Score>
-5.425

$$$$
