MODEL 1
REMARK VINA RESULT:    -5.767      0.000      0.000
REMARK INTER + INTRA:          -8.367
REMARK INTER:                  -6.779
REMARK INTRA:                  -1.588
REMARK UNBOUND:                -1.588
REMARK  3 active torsions:
REMARK  status: ('A' for Active; 'I' for Inactive)
REMARK    1  A    between atoms: C_9  and  C_12 
REMARK    2  A    between atoms: C_12  and  C_13 
REMARK    3  A    between atoms: C_12  and  C_24 
ROOT
ATOM      1  C   UNK d   1      27.752   5.317  27.679  0.00  0.00     0.063 C 
ENDROOT
BRANCH   1   2
ATOM      2  C   UNK d   1      28.580   5.931  26.630  0.00  0.00     0.182 C 
ATOM      3  C   UNK d   1      28.029   6.624  25.499  0.00  0.00     0.259 C 
ATOM      4  N   UNK d   1      27.826   8.057  25.636  0.00  0.00    -0.188 NA
ATOM      5  O   UNK d   1      27.687   6.184  24.375  0.00  0.00    -0.270 OA
ATOM      6  C   UNK d   1      28.541   8.747  26.466  0.00  0.00     0.174 C 
ATOM      7  S   UNK d   1      28.537  10.515  26.864  0.00  0.00    -0.090 SA
ATOM      8  N   UNK d   1      29.518   8.195  27.321  0.00  0.00    -0.295 N 
ATOM      9  C   UNK d   1      29.397  10.303  28.484  0.00  0.00     0.103 C 
ATOM     10  C   UNK d   1      30.220   9.098  28.152  0.00  0.00     0.144 C 
ATOM     11  C   UNK d   1      29.691   6.763  27.226  0.00  0.00     0.239 C 
ATOM     12  O   UNK d   1      30.743   6.236  27.631  0.00  0.00    -0.272 OA
ENDBRANCH   1   2
BRANCH   1  13
ATOM     13  C   UNK d   1      27.787   5.786  29.070  0.00  0.00     0.182 C 
ATOM     14  C   UNK d   1      26.522   6.611  29.304  0.00  0.00     0.239 C 
ATOM     15  O   UNK d   1      26.460   7.789  28.885  0.00  0.00    -0.272 OA
ATOM     16  N   UNK d   1      25.398   6.031  30.008  0.00  0.00    -0.295 N 
ATOM     17  C   UNK d   1      24.057   6.502  30.032  0.00  0.00     0.144 C 
ATOM     18  C   UNK d   1      25.653   4.873  30.781  0.00  0.00     0.174 C 
ATOM     19  C   UNK d   1      23.079   5.369  30.221  0.00  0.00     0.103 C 
ATOM     20  S   UNK d   1      24.070   4.416  31.466  0.00  0.00    -0.090 SA
ATOM     21  N   UNK d   1      26.798   4.325  30.892  0.00  0.00    -0.188 NA
ATOM     22  C   UNK d   1      27.942   4.902  30.194  0.00  0.00     0.259 C 
ATOM     23  O   UNK d   1      29.053   4.574  30.649  0.00  0.00    -0.270 OA
ENDBRANCH   1  13
BRANCH   1  24
ATOM     24  C   UNK d   1      27.682   3.811  27.551  0.00  0.00    -0.051 A 
ATOM     25  C   UNK d   1      26.472   3.158  27.528  0.00  0.00     0.009 A 
ATOM     26  C   UNK d   1      26.450   1.791  27.417  0.00  0.00     0.019 A 
ATOM     27  C   UNK d   1      27.577   1.037  27.327  0.00  0.00     0.011 A 
ATOM     28  C   UNK d   1      28.800   1.660  27.348  0.00  0.00     0.019 A 
ATOM     29 Br   UNK d   1      27.535  -0.874  27.172  0.00  0.00    -0.051 Br
ATOM     30  C   UNK d   1      28.824   3.051  27.461  0.00  0.00     0.009 A 
ENDBRANCH   1  24
TORSDOF 3
ENDMDL
