/Users/jonathanwahrer/Desktop/Msc/3_Semester/Drug_Design_Praktikum/waehrer_HTS_screening/HTS_experiment/out/docking_results/vina_output/3elj/1237_docked.pdbqt
 OpenBabel03192218123D

 30 34  0  0  1  0  0  0  0  0999 V2000
   27.7520    5.3170   27.6790 C   0  0  2  0  0  3  0  0  0  0  0  0
   28.5800    5.9310   26.6300 C   0  0  1  0  0  3  0  0  0  0  0  0
   28.0290    6.6240   25.4990 C   0  0  0  0  0  0  0  0  0  0  0  0
   27.8260    8.0570   25.6360 N   0  0  0  0  0  0  0  0  0  0  0  0
   27.6870    6.1840   24.3750 O   0  0  0  0  0  0  0  0  0  0  0  0
   28.5410    8.7470   26.4660 C   0  0  0  0  0  0  0  0  0  0  0  0
   28.5370   10.5150   26.8640 S   0  0  0  0  0  0  0  0  0  0  0  0
   29.5180    8.1950   27.3210 N   0  0  0  0  0  0  0  0  0  0  0  0
   29.3970   10.3030   28.4840 C   0  0  0  0  0  2  0  0  0  0  0  0
   30.2200    9.0980   28.1520 C   0  0  0  0  0  2  0  0  0  0  0  0
   29.6910    6.7630   27.2260 C   0  0  0  0  0  0  0  0  0  0  0  0
   30.7430    6.2360   27.6310 O   0  0  0  0  0  0  0  0  0  0  0  0
   27.7870    5.7860   29.0700 C   0  0  1  0  0  3  0  0  0  0  0  0
   26.5220    6.6110   29.3040 C   0  0  0  0  0  0  0  0  0  0  0  0
   26.4600    7.7890   28.8850 O   0  0  0  0  0  0  0  0  0  0  0  0
   25.3980    6.0310   30.0080 N   0  0  0  0  0  0  0  0  0  0  0  0
   24.0570    6.5020   30.0320 C   0  0  0  0  0  2  0  0  0  0  0  0
   25.6530    4.8730   30.7810 C   0  0  0  0  0  0  0  0  0  0  0  0
   23.0790    5.3690   30.2210 C   0  0  0  0  0  2  0  0  0  0  0  0
   24.0700    4.4160   31.4660 S   0  0  0  0  0  0  0  0  0  0  0  0
   26.7980    4.3250   30.8920 N   0  0  0  0  0  0  0  0  0  0  0  0
   27.9420    4.9020   30.1940 C   0  0  0  0  0  0  0  0  0  0  0  0
   29.0530    4.5740   30.6490 O   0  0  0  0  0  0  0  0  0  0  0  0
   27.6820    3.8110   27.5510 C   0  0  0  0  0  0  0  0  0  0  0  0
   26.4720    3.1580   27.5280 C   0  0  0  0  0  3  0  0  0  0  0  0
   26.4500    1.7910   27.4170 C   0  0  0  0  0  3  0  0  0  0  0  0
   27.5770    1.0370   27.3270 C   0  0  0  0  0  0  0  0  0  0  0  0
   28.8000    1.6600   27.3480 C   0  0  0  0  0  3  0  0  0  0  0  0
   27.5350   -0.8740   27.1720 Br  0  0  0  0  0  0  0  0  0  0  0  0
   28.8240    3.0510   27.4610 C   0  0  0  0  0  3  0  0  0  0  0  0
  1 24  1  1  0  0  0
  2 11  1  0  0  0  0
  2  1  1  1  0  0  0
  3  4  1  0  0  0  0
  3  2  1  0  0  0  0
  4  6  2  0  0  0  0
  5  3  2  0  0  0  0
  6  7  1  0  0  0  0
  6  8  1  0  0  0  0
  7  9  1  0  0  0  0
  8 10  1  0  0  0  0
 10  9  1  0  0  0  0
 11  8  1  0  0  0  0
 11 12  2  0  0  0  0
 13  1  1  6  0  0  0
 13 14  1  0  0  0  0
 13 22  1  0  0  0  0
 14 16  1  0  0  0  0
 15 14  2  0  0  0  0
 16 17  1  0  0  0  0
 16 18  1  0  0  0  0
 17 19  1  0  0  0  0
 18 21  2  0  0  0  0
 18 20  1  0  0  0  0
 19 20  1  0  0  0  0
 22 23  2  0  0  0  0
 22 21  1  0  0  0  0
 25 24  1  0  0  0  0
 26 25  2  0  0  0  0
 27 28  2  0  0  0  0
 27 26  1  0  0  0  0
 28 30  1  0  0  0  0
 29 27  1  0  0  0  0
 30 24  2  0  0  0  0
M  END
>  <Pose>
1

>  <Score>
-5.767

$$$$
