MODEL 1
REMARK VINA RESULT:    -7.796      0.000      0.000
REMARK INTER + INTRA:          -8.697
REMARK INTER:                  -8.708
REMARK INTRA:                   0.010
REMARK UNBOUND:                 0.010
REMARK  2 active torsions:
REMARK  status: ('A' for Active; 'I' for Inactive)
REMARK    1  A    between atoms: C_4  and  C_7 
REMARK    2  A    between atoms: C_14  and  C_15 
ROOT
ATOM      1  S   UNK d   1      24.142  11.721  30.935  0.00  0.00    -0.025 SA
ATOM      2  C   UNK d   1      23.908  10.039  31.196  0.00  0.00     0.219 A 
ATOM      3  N   UNK d   1      22.612  10.002  31.501  0.00  0.00    -0.184 N 
ATOM      4  C   UNK d   1      22.360   8.667  31.723  0.00  0.00     0.205 A 
ATOM      5  N   UNK d   1      23.481   7.968  31.550  0.00  0.00    -0.125 NA
ATOM      6  N   UNK d   1      24.462   8.784  31.222  0.00  0.00    -0.120 NA
ATOM      7  N   UNK d   1      21.949  11.087  31.521  0.00  0.00    -0.154 NA
ATOM      8  C   UNK d   1      22.526  12.240  31.245  0.00  0.00     0.153 A 
ENDROOT
BRANCH   8   9
ATOM      9  C   UNK d   1      21.965  13.594  31.209  0.00  0.00     0.133 A 
ATOM     10  N   UNK d   1      22.437  14.638  30.516  0.00  0.00    -0.171 NA
ATOM     11  N   UNK d   1      21.653  15.705  30.737  0.00  0.00    -0.287 N 
ATOM     12  C   UNK d   1      20.664  15.349  31.581  0.00  0.00     0.131 A 
ATOM     13  H   UNK d   1      21.802  16.650  30.315  0.00  0.00     0.188 HD
ATOM     14  C   UNK d   1      20.865  13.999  31.881  0.00  0.00     0.061 A 
ATOM     15 Br   UNK d   1      19.751  13.002  33.030  0.00  0.00    -0.047 Br
ENDBRANCH   8   9
BRANCH   4  16
ATOM     16  C   UNK d   1      21.057   8.079  32.097  0.00  0.00     0.123 A 
ATOM     17  N   UNK d   1      20.031   8.856  32.491  0.00  0.00    -0.254 NA
ATOM     18  C   UNK d   1      18.844   8.306  32.831  0.00  0.00     0.136 A 
ATOM     19  C   UNK d   1      18.670   6.951  32.778  0.00  0.00     0.135 A 
ATOM     20  N   UNK d   1      19.695   6.194  32.384  0.00  0.00    -0.269 NA
ATOM     21  C   UNK d   1      20.892   6.717  32.039  0.00  0.00     0.151 A 
ENDBRANCH   4  16
TORSDOF 2
ENDMDL
