/Users/jonathanwahrer/Desktop/Msc/3_Semester/Drug_Design_Praktikum/waehrer_HTS_screening/HTS_experiment/out/docking_results/vina_output/3elj/1255_docked.pdbqt
 OpenBabel03192218123D

 34 38  0  0  1  0  0  0  0  0999 V2000
   25.6950    5.7160   29.3910 C   0  0  1  0  0  3  0  0  0  0  0  0
   25.0550    4.3580   29.4510 C   0  0  2  0  0  3  0  0  0  0  0  0
   24.4950    4.1560   30.8580 C   0  0  0  0  0  0  0  0  0  0  0  0
   25.4660    4.0910   31.9280 N   0  0  0  0  0  0  0  0  0  0  0  0
   23.2760    4.0640   30.9910 O   0  0  0  0  0  0  0  0  0  0  0  0
   26.6540    3.6380   31.6860 C   0  0  0  0  0  0  0  0  0  0  0  0
   28.0670    3.4280   32.7560 S   0  0  0  0  0  0  0  0  0  0  0  0
   27.0640    3.1820   30.4150 N   0  0  0  0  0  0  0  0  0  0  0  0
   29.1360    2.7510   31.4960 C   0  0  0  0  0  0  0  0  0  0  0  0
   28.3500    2.7230   30.3230 N   0  0  0  0  0  0  0  0  0  0  0  0
   30.3980    2.3660   31.6630 C   0  0  0  0  0  2  0  0  0  0  0  0
   28.7880    2.3370   29.4130 H   0  0  0  0  0  0  0  0  0  0  0  0
   26.0560    3.2490   29.3640 C   0  0  0  0  0  0  0  0  0  0  0  0
   26.0570    2.3870   28.4380 O   0  0  0  0  0  0  0  0  0  0  0  0
   26.2230    6.1640   28.0870 C   0  0  2  0  0  3  0  0  0  0  0  0
   26.8460    5.1710   27.2250 C   0  0  0  0  0  0  0  0  0  0  0  0
   26.2020    4.6930   26.2300 O   0  0  0  0  0  0  0  0  0  0  0  0
   28.1990    4.7010   27.4610 N   0  0  0  0  0  0  0  0  0  0  0  0
   28.7560    3.5260   27.0700 N   0  0  0  0  0  0  0  0  0  0  0  0
   29.0220    5.5900   28.1810 C   0  0  0  0  0  0  0  0  0  0  0  0
   30.1110    3.3000   27.4180 C   0  0  0  0  0  0  0  0  0  0  0  0
   28.2490    2.7540   26.5130 H   0  0  0  0  0  0  0  0  0  0  0  0
   30.8820    2.2660   27.1620 C   0  0  0  0  0  2  0  0  0  0  0  0
   30.5980    4.7680   28.3210 S   0  0  0  0  0  0  0  0  0  0  0  0
   28.6360    6.7390   28.6110 N   0  0  0  0  0  0  0  0  0  0  0  0
   27.2950    7.2000   28.3770 C   0  0  0  0  0  0  0  0  0  0  0  0
   26.9500    8.3910   28.3940 O   0  0  0  0  0  0  0  0  0  0  0  0
   24.8050    6.7630   29.9710 C   0  0  0  0  0  0  0  0  0  0  0  0
   25.1810    7.4840   31.0810 C   0  0  0  0  0  3  0  0  0  0  0  0
   24.3630    8.4500   31.6200 C   0  0  0  0  0  3  0  0  0  0  0  0
   23.1410    8.7060   31.0400 C   0  0  0  0  0  0  0  0  0  0  0  0
   22.7210    7.9970   29.9130 C   0  0  0  0  0  3  0  0  0  0  0  0
   21.9830   10.0430   31.7660 Br  0  0  0  0  0  0  0  0  0  0  0  0
   23.5700    7.0360   29.4020 C   0  0  0  0  0  3  0  0  0  0  0  0
  1 28  1  6  0  0  0
  2  1  1  1  0  0  0
  2  3  1  0  0  0  0
  3  5  2  0  0  0  0
  3  4  1  0  0  0  0
  6  4  2  0  0  0  0
  6  7  1  0  0  0  0
  8  6  1  0  0  0  0
  9 11  2  0  0  0  0
  9  7  1  0  0  0  0
 10  8  1  0  0  0  0
 10  9  1  0  0  0  0
 12 10  1  0  0  0  0
 13  2  1  0  0  0  0
 13  8  1  0  0  0  0
 14 13  2  0  0  0  0
 15 26  1  0  0  0  0
 15  1  1  1  0  0  0
 16 18  1  0  0  0  0
 16 15  1  0  0  0  0
 17 16  2  0  0  0  0
 18 20  1  0  0  0  0
 19 21  1  0  0  0  0
 19 18  1  0  0  0  0
 20 24  1  0  0  0  0
 20 25  2  0  0  0  0
 21 24  1  0  0  0  0
 22 19  1  0  0  0  0
 23 21  2  0  0  0  0
 26 27  2  0  0  0  0
 26 25  1  0  0  0  0
 28 29  1  0  0  0  0
 29 30  2  0  0  0  0
 31 30  1  0  0  0  0
 31 33  1  0  0  0  0
 32 31  2  0  0  0  0
 34 32  1  0  0  0  0
 34 28  2  0  0  0  0
M  END
>  <Pose>
1

>  <Score>
-6.037

$$$$
