MODEL 1
REMARK VINA RESULT:    -6.037      0.000      0.000
REMARK INTER + INTRA:          -7.431
REMARK INTER:                  -7.095
REMARK INTRA:                  -0.336
REMARK UNBOUND:                -0.336
REMARK  3 active torsions:
REMARK  status: ('A' for Active; 'I' for Inactive)
REMARK    1  A    between atoms: C_6  and  C_13 
REMARK    2  A    between atoms: C_13  and  C_14 
REMARK    3  A    between atoms: C_13  and  C_26 
ROOT
ATOM      1  C   UNK d   1      25.695   5.716  29.391  0.00  0.00     0.063 C 
ENDROOT
BRANCH   1   2
ATOM      2  C   UNK d   1      25.055   4.358  29.451  0.00  0.00     0.184 C 
ATOM      3  C   UNK d   1      24.495   4.156  30.858  0.00  0.00     0.259 C 
ATOM      4  N   UNK d   1      25.466   4.091  31.928  0.00  0.00    -0.186 NA
ATOM      5  O   UNK d   1      23.276   4.064  30.991  0.00  0.00    -0.270 OA
ATOM      6  C   UNK d   1      26.654   3.638  31.686  0.00  0.00     0.200 A 
ATOM      7  S   UNK d   1      28.067   3.428  32.756  0.00  0.00    -0.032 SA
ATOM      8  N   UNK d   1      27.064   3.182  30.415  0.00  0.00    -0.197 N 
ATOM      9  C   UNK d   1      29.136   2.751  31.496  0.00  0.00     0.083 A 
ATOM     10  N   UNK d   1      28.350   2.723  30.323  0.00  0.00    -0.283 N 
ATOM     11  C   UNK d   1      30.398   2.366  31.663  0.00  0.00     0.052 C 
ATOM     12  H   UNK d   1      28.788   2.337  29.413  0.00  0.00     0.188 HD
ATOM     13  C   UNK d   1      26.056   3.249  29.364  0.00  0.00     0.259 C 
ATOM     14  O   UNK d   1      26.057   2.387  28.438  0.00  0.00    -0.270 OA
ENDBRANCH   1   2
BRANCH   1  15
ATOM     15  C   UNK d   1      26.223   6.164  28.087  0.00  0.00     0.184 C 
ATOM     16  C   UNK d   1      26.846   5.171  27.225  0.00  0.00     0.259 C 
ATOM     17  O   UNK d   1      26.202   4.693  26.230  0.00  0.00    -0.270 OA
ATOM     18  N   UNK d   1      28.199   4.701  27.461  0.00  0.00    -0.197 N 
ATOM     19  N   UNK d   1      28.756   3.526  27.070  0.00  0.00    -0.283 N 
ATOM     20  C   UNK d   1      29.022   5.590  28.181  0.00  0.00     0.200 A 
ATOM     21  C   UNK d   1      30.111   3.300  27.418  0.00  0.00     0.083 A 
ATOM     22  H   UNK d   1      28.249   2.754  26.513  0.00  0.00     0.188 HD
ATOM     23  C   UNK d   1      30.882   2.266  27.162  0.00  0.00     0.052 C 
ATOM     24  S   UNK d   1      30.598   4.768  28.321  0.00  0.00    -0.032 SA
ATOM     25  N   UNK d   1      28.636   6.739  28.611  0.00  0.00    -0.186 NA
ATOM     26  C   UNK d   1      27.295   7.200  28.377  0.00  0.00     0.259 C 
ATOM     27  O   UNK d   1      26.950   8.391  28.394  0.00  0.00    -0.270 OA
ENDBRANCH   1  15
BRANCH   1  28
ATOM     28  C   UNK d   1      24.805   6.763  29.971  0.00  0.00    -0.051 A 
ATOM     29  C   UNK d   1      25.181   7.484  31.081  0.00  0.00     0.009 A 
ATOM     30  C   UNK d   1      24.363   8.450  31.620  0.00  0.00     0.019 A 
ATOM     31  C   UNK d   1      23.141   8.706  31.040  0.00  0.00     0.011 A 
ATOM     32  C   UNK d   1      22.721   7.997  29.913  0.00  0.00     0.019 A 
ATOM     33 Br   UNK d   1      21.983  10.043  31.766  0.00  0.00    -0.051 Br
ATOM     34  C   UNK d   1      23.570   7.036  29.402  0.00  0.00     0.009 A 
ENDBRANCH   1  28
TORSDOF 3
ENDMDL
