/Users/jonathanwahrer/Desktop/Msc/3_Semester/Drug_Design_Praktikum/waehrer_HTS_screening/HTS_experiment/out/docking_results/vina_output/3elj/1256_docked.pdbqt
 OpenBabel03192218123D

 30 33  0  0  0  0  0  0  0  0999 V2000
   23.6730   14.0390   29.5670 S   0  0  0  0  0  0  0  0  0  0  0  0
   22.2730   14.2940   30.5190 C   0  0  0  0  0  0  0  0  0  0  0  0
   21.4220   15.3520   30.7040 N   0  0  0  0  0  0  0  0  0  0  0  0
   20.3550   15.2510   31.5130 C   0  0  0  0  0  0  0  0  0  0  0  0
   19.5300   16.1560   31.7410 O   0  0  0  0  0  0  0  0  0  0  0  0
   20.1970   14.0280   32.1220 C   0  0  0  0  0  3  0  0  0  0  0  0
   21.0390   12.9700   31.9430 C   0  0  0  0  0  0  0  0  0  0  0  0
   22.1210   13.1040   31.1080 N   0  0  0  0  0  0  0  0  0  0  0  0
   22.9690   12.1910   30.8320 N   0  0  0  0  0  0  0  0  0  0  0  0
   23.9570   12.3930   30.0070 C   0  0  0  0  0  0  0  0  0  0  0  0
   20.7330   11.7280   32.6500 C   0  0  0  0  0  0  0  0  0  0  0  0
   19.9960   11.7700   33.7030 O   0  0  0  0  0  0  0  0  0  0  0  0
   21.1940   10.4520   32.2690 N   0  0  0  0  0  0  0  0  0  0  0  0
   21.8120   10.3230   31.4450 H   0  0  0  0  0  0  0  0  0  0  0  0
   20.8090    9.2810   33.0480 C   0  0  0  0  0  2  0  0  0  0  0  0
   21.1180    8.0330   32.3060 C   0  0  0  0  0  0  0  0  0  0  0  0
   20.2870    6.9340   32.4580 C   0  0  0  0  0  0  0  0  0  0  0  0
   20.5870    5.7630   31.8100 C   0  0  0  0  0  3  0  0  0  0  0  0
   21.6910    5.6340   31.0080 C   0  0  0  0  0  3  0  0  0  0  0  0
   22.5250    6.7250   30.8510 C   0  0  0  0  0  0  0  0  0  0  0  0
   22.2180    7.9060   31.5060 C   0  0  0  0  0  3  0  0  0  0  0  0
   24.0800    6.6320   29.7470 Br  0  0  0  0  0  0  0  0  0  0  0  0
   19.1810    7.0750   33.2670 O   0  0  0  0  0  0  0  0  0  0  0  0
   17.9040    7.2220   32.6460 C   0  0  0  0  0  1  0  0  0  0  0  0
   24.9960   11.4930   29.5540 N   0  0  0  0  0  0  0  0  0  0  0  0
   25.2780   10.3050   30.2660 C   0  0  0  0  0  2  0  0  0  0  0  0
   26.4580    9.5920   29.6490 C   0  0  0  0  0  2  0  0  0  0  0  0
   27.4220   10.5280   29.2640 O   0  0  0  0  0  0  0  0  0  0  0  0
   26.9890   11.2300   28.1330 C   0  0  0  0  0  2  0  0  0  0  0  0
   25.6750   11.9080   28.3740 C   0  0  0  0  0  2  0  0  0  0  0  0
  1 10  1  0  0  0  0
  1  2  1  0  0  0  0
  2  3  2  0  0  0  0
  2  8  1  0  0  0  0
  3  4  1  0  0  0  0
  4  5  2  0  0  0  0
  4  6  1  0  0  0  0
  7  6  2  0  0  0  0
  7 11  1  0  0  0  0
  8  7  1  0  0  0  0
  9  8  1  0  0  0  0
 10  9  2  0  0  0  0
 11 12  2  0  0  0  0
 13 11  1  0  0  0  0
 13 15  1  0  0  0  0
 14 13  1  0  0  0  0
 16 17  1  0  0  0  0
 16 15  1  0  0  0  0
 17 23  1  0  0  0  0
 18 17  2  0  0  0  0
 19 18  1  0  0  0  0
 20 19  2  0  0  0  0
 20 21  1  0  0  0  0
 21 16  2  0  0  0  0
 22 20  1  0  0  0  0
 24 23  1  0  0  0  0
 25 10  1  0  0  0  0
 25 26  1  0  0  0  0
 27 26  1  0  0  0  0
 28 27  1  0  0  0  0
 29 30  1  0  0  0  0
 29 28  1  0  0  0  0
 30 25  1  0  0  0  0
M  END
>  <Pose>
1

>  <Score>
-9.237

$$$$
