MODEL 1
REMARK VINA RESULT:    -8.070      0.000      0.000
REMARK INTER + INTRA:         -10.344
REMARK INTER:                  -9.957
REMARK INTRA:                  -0.387
REMARK UNBOUND:                -0.387
REMARK  4 active torsions:
REMARK  status: ('A' for Active; 'I' for Inactive)
REMARK    1  A    between atoms: N_3  and  C_15 
REMARK    2  A    between atoms: C_7  and  C_9 
REMARK    3  A    between atoms: C_15  and  C_16 
REMARK    4  A    between atoms: C_16  and  C_18 
ROOT
ATOM      1  S   UNK d   1      23.716   8.777  31.313  0.00  0.00    -0.063 SA
ATOM      2  C   UNK d   1      23.403   7.017  31.270  0.00  0.00     0.149 A 
ATOM      3  N   UNK d   1      23.967   5.883  31.009  0.00  0.00    -0.352 N 
ATOM      4  C   UNK d   1      23.075   4.801  31.196  0.00  0.00     0.145 A 
ATOM      5  C   UNK d   1      21.798   5.436  31.639  0.00  0.00     0.151 A 
ATOM      6  N   UNK d   1      22.063   6.894  31.679  0.00  0.00    -0.325 N 
ATOM      7  C   UNK d   1      21.394   8.085  31.985  0.00  0.00     0.053 A 
ATOM      8  C   UNK d   1      22.070   9.205  31.862  0.00  0.00     0.083 A 
ENDROOT
BRANCH   3   9
ATOM      9  C   UNK d   1      25.376   5.806  30.585  0.00  0.00     0.208 C 
BRANCH   9  10
ATOM     10  C   UNK d   1      25.379   5.352  29.180  0.00  0.00     0.177 C 
ATOM     11  O   UNK d   1      24.885   6.050  28.271  0.00  0.00    -0.291 OA
BRANCH  10  12
ATOM     12  C   UNK d   1      25.964   4.066  28.830  0.00  0.00     0.011 A 
ATOM     13  C   UNK d   1      26.115   3.060  29.786  0.00  0.00     0.016 A 
ATOM     14  C   UNK d   1      26.675   1.833  29.483  0.00  0.00     0.020 A 
ATOM     15  C   UNK d   1      27.086   1.625  28.193  0.00  0.00     0.011 A 
ATOM     16  C   UNK d   1      26.959   2.588  27.210  0.00  0.00     0.020 A 
ATOM     17 Br   UNK d   1      27.861  -0.081  27.783  0.00  0.00    -0.051 Br
ATOM     18  C   UNK d   1      26.390   3.820  27.541  0.00  0.00     0.016 A 
ENDBRANCH  10  12
ENDBRANCH   9  10
ENDBRANCH   3   9
BRANCH   7  19
ATOM     19  C   UNK d   1      19.971   8.162  32.453  0.00  0.00    -0.009 A 
ATOM     20  C   UNK d   1      19.506   9.246  33.164  0.00  0.00     0.014 A 
ATOM     21  C   UNK d   1      18.211   9.366  33.621  0.00  0.00     0.001 A 
ATOM     22  C   UNK d   1      17.298   8.367  33.373  0.00  0.00     0.000 A 
ATOM     23  C   UNK d   1      17.736   7.280  32.670  0.00  0.00     0.001 A 
ATOM     24  C   UNK d   1      19.061   7.167  32.208  0.00  0.00     0.014 A 
ENDBRANCH   7  19
TORSDOF 4
ENDMDL
