MODEL 1
REMARK VINA RESULT:    -8.833      0.000      0.000
REMARK INTER + INTRA:         -10.135
REMARK INTER:                  -9.865
REMARK INTRA:                  -0.270
REMARK UNBOUND:                -0.270
REMARK  2 active torsions:
REMARK  status: ('A' for Active; 'I' for Inactive)
REMARK    1  A    between atoms: C_3  and  C_8 
REMARK       I    between atoms: N_12  and  C_14 
REMARK    2  A    between atoms: C_14  and  C_16 
ROOT
ATOM      1  C   UNK d   1      20.372  12.821  33.041  0.00  0.00     0.273 C 
ATOM      2  N   UNK d   1      19.052  12.929  32.431  0.00  0.00     0.095 NA
ATOM      3  C   UNK d   1      18.746  14.041  31.662  0.00  0.00     0.290 C 
ATOM      4  C   UNK d   1      19.864  14.805  30.983  0.00  0.00     0.155 C 
ATOM      5  N   UNK d   1      21.093  14.707  31.642  0.00  0.00    -0.355 N 
ATOM      6  C   UNK d   1      21.132  14.060  32.919  0.00  0.00     0.165 C 
ATOM      7  C   UNK d   1      22.340  15.188  31.168  0.00  0.00     0.189 C 
ATOM      8  O   UNK d   1      23.282  15.083  32.077  0.00  0.00    -0.171 OA
ATOM      9  H   UNK d   1      18.785  12.028  31.984  0.00  0.00     0.316 HD
ENDROOT
BRANCH   7  10
ATOM     10  C   UNK d   1      22.766  15.740  29.933  0.00  0.00     0.038 A 
ATOM     11  C   UNK d   1      23.419  14.871  29.026  0.00  0.00     0.135 A 
ATOM     12  N   UNK d   1      23.733  15.269  27.793  0.00  0.00    -0.234 NA
ATOM     13  C   UNK d   1      23.450  16.498  27.357  0.00  0.00     0.192 A 
ATOM     14  C   UNK d   1      22.819  17.383  28.189  0.00  0.00     0.089 A 
ATOM     15  O   UNK d   1      23.790  16.899  26.060  0.00  0.00    -0.323 OA
ATOM     16  C   UNK d   1      22.475  17.006  29.485  0.00  0.00     0.051 A 
ATOM     17  N   UNK d   1      22.479  18.692  27.721  0.00  0.00    -0.322 N 
ATOM     18  C   UNK d   1      22.813  19.043  26.377  0.00  0.00     0.246 C 
ATOM     19  H   UNK d   1      21.998  19.377  28.323  0.00  0.00     0.169 HD
ATOM     20  O   UNK d   1      22.230  19.925  25.714  0.00  0.00    -0.271 OA
ATOM     21  C   UNK d   1      23.937  18.292  25.737  0.00  0.00     0.280 C 
ENDBRANCH   7  10
BRANCH   1  22
ATOM     22  C   UNK d   1      21.005  11.639  32.357  0.00  0.00    -0.002 A 
ATOM     23  C   UNK d   1      20.610  10.358  32.774  0.00  0.00     0.042 A 
ATOM     24 Cl   UNK d   1      19.522  10.262  34.174  0.00  0.00    -0.084 Cl
ATOM     25  C   UNK d   1      21.028   9.201  32.153  0.00  0.00     0.024 A 
ATOM     26  C   UNK d   1      21.883   9.291  31.060  0.00  0.00     0.002 A 
ATOM     27  C   UNK d   1      22.271  10.555  30.650  0.00  0.00     0.001 A 
ATOM     28  C   UNK d   1      21.844  11.709  31.283  0.00  0.00     0.011 A 
ENDBRANCH   1  22
TORSDOF 2
ENDMDL
