MODEL 1
REMARK VINA RESULT:   -10.020      0.000      0.000
REMARK INTER + INTRA:         -15.313
REMARK INTER:                 -14.414
REMARK INTRA:                  -0.899
REMARK UNBOUND:                -0.899
REMARK  8 active torsions:
REMARK  status: ('A' for Active; 'I' for Inactive)
REMARK    1  A    between atoms: C_4  and  C_8 
REMARK    2  A    between atoms: C_8  and  N_10 
REMARK    3  A    between atoms: N_10  and  N_11 
REMARK       I    between atoms: N_11  and  C_12 
REMARK    4  A    between atoms: C_12  and  C_14 
REMARK    5  A    between atoms: N_17  and  C_26 
REMARK    6  A    between atoms: C_18  and  C_19 
REMARK    7  A    between atoms: C_19  and  N_20 
REMARK    8  A    between atoms: C_30  and  N_31 
ROOT
ATOM      1  C   UNK d   1      24.657  13.235  28.651  0.00  0.00     0.176 A 
ATOM      2  N   UNK d   1      25.565  13.795  27.840  0.00  0.00    -0.124 NA
ATOM      3  N   UNK d   1      25.168  15.024  27.629  0.00  0.00    -0.058 NA
ATOM      4  N   UNK d   1      24.034  15.266  28.281  0.00  0.00    -0.191 N 
ATOM      5  C   UNK d   1      23.662  14.180  28.941  0.00  0.00     0.104 A 
ENDROOT
BRANCH   1   6
ATOM      6  C   UNK d   1      24.734  11.870  29.139  0.00  0.00     0.292 C 
ATOM      7  N   UNK d   1      23.585  11.078  29.373  0.00  0.00    -0.264 N 
ATOM      8  H   UNK d   1      22.608  11.440  29.210  0.00  0.00     0.190 HD
ATOM      9  O   UNK d   1      25.864  11.379  29.359  0.00  0.00    -0.264 OA
BRANCH   7  10
ATOM     10  N   UNK d   1      23.671   9.765  29.836  0.00  0.00    -0.298 N 
ATOM     11  H   UNK d   1      23.884   8.937  29.254  0.00  0.00     0.187 HD
BRANCH  10  12
ATOM     12  C   UNK d   1      23.449   9.527  31.243  0.00  0.00     0.049 C 
ATOM     13  C   UNK d   1      24.298  10.029  32.104  0.00  0.00     0.045 C 
BRANCH  12  14
ATOM     14  C   UNK d   1      22.305   8.729  31.637  0.00  0.00    -0.008 A 
ATOM     15  C   UNK d   1      21.220   9.329  32.273  0.00  0.00     0.032 A 
ATOM     16  C   UNK d   1      20.123   8.588  32.638  0.00  0.00     0.011 A 
ATOM     17 Br   UNK d   1      18.638   9.396  33.509  0.00  0.00    -0.051 Br
ATOM     18  C   UNK d   1      20.052   7.228  32.391  0.00  0.00     0.019 A 
ATOM     19  C   UNK d   1      21.105   6.630  31.770  0.00  0.00     0.002 A 
ATOM     20  C   UNK d   1      22.217   7.388  31.401  0.00  0.00     0.014 A 
ENDBRANCH  12  14
ENDBRANCH  10  12
ENDBRANCH   7  10
ENDBRANCH   1   6
BRANCH   5  21
ATOM     21  C   UNK d   1      22.513  13.870  29.761  0.00  0.00     0.334 C 
BRANCH  21  22
ATOM     22  N   UNK d   1      22.745  13.794  31.190  0.00  0.00     0.094 NA
ATOM     23  C   UNK d   1      22.280  15.007  31.855  0.00  0.00     0.273 C 
ATOM     24  C   UNK d   1      20.890  15.399  31.406  0.00  0.00     0.030 C 
ATOM     25  C   UNK d   1      19.923  14.256  31.658  0.00  0.00     0.003 C 
ATOM     26  C   UNK d   1      20.623  13.093  32.302  0.00  0.00     0.030 C 
ATOM     27  C   UNK d   1      21.941  12.714  31.754  0.00  0.00     0.273 C 
ENDBRANCH  21  22
ENDBRANCH   5  21
BRANCH   4  28
ATOM     28  C   UNK d   1      23.347  16.502  28.226  0.00  0.00     0.229 A 
ATOM     29  N   UNK d   1      22.763  17.075  29.315  0.00  0.00    -0.081 NA
ATOM     30  O   UNK d   1      22.221  18.186  28.928  0.00  0.00    -0.103 OA
ATOM     31  N   UNK d   1      22.400  18.386  27.673  0.00  0.00    -0.083 NA
ATOM     32  C   UNK d   1      23.103  17.353  27.188  0.00  0.00     0.201 A 
BRANCH  32  33
ATOM     33  N   UNK d   1      23.526  17.154  25.866  0.00  0.00    -0.379 N 
ATOM     34  H   UNK d   1      23.002  17.426  25.005  0.00  0.00     0.158 HD
ATOM     35  H   UNK d   1      24.446  16.692  25.700  0.00  0.00     0.158 HD
ENDBRANCH  32  33
ENDBRANCH   4  28
TORSDOF 8
ENDMDL
