/Users/jonathanwahrer/Desktop/Msc/3_Semester/Drug_Design_Praktikum/waehrer_HTS_screening/HTS_experiment/out/docking_results/vina_output/3elj/1271_docked.pdbqt
 OpenBabel03192218133D

 35 38  0  0  0  0  0  0  0  0999 V2000
   24.6570   13.2350   28.6510 C   0  0  0  0  0  0  0  0  0  0  0  0
   25.5650   13.7950   27.8400 N   0  0  0  0  0  0  0  0  0  0  0  0
   25.1680   15.0240   27.6290 N   0  0  0  0  0  0  0  0  0  0  0  0
   24.0340   15.2660   28.2810 N   0  0  0  0  0  0  0  0  0  0  0  0
   23.6620   14.1800   28.9410 C   0  0  0  0  0  0  0  0  0  0  0  0
   24.7340   11.8700   29.1390 C   0  0  0  0  0  0  0  0  0  0  0  0
   23.5850   11.0780   29.3730 N   0  0  0  0  0  0  0  0  0  0  0  0
   22.6080   11.4400   29.2100 H   0  0  0  0  0  0  0  0  0  0  0  0
   25.8640   11.3790   29.3590 O   0  0  0  0  0  0  0  0  0  0  0  0
   23.6710    9.7650   29.8360 N   0  0  0  0  0  0  0  0  0  0  0  0
   23.8840    8.9370   29.2540 H   0  0  0  0  0  0  0  0  0  0  0  0
   23.4490    9.5270   31.2430 C   0  0  0  0  0  0  0  0  0  0  0  0
   24.2980   10.0290   32.1040 C   0  0  0  0  0  2  0  0  0  0  0  0
   22.3050    8.7290   31.6370 C   0  0  0  0  0  0  0  0  0  0  0  0
   21.2200    9.3290   32.2730 C   0  0  0  0  0  3  0  0  0  0  0  0
   20.1230    8.5880   32.6380 C   0  0  0  0  0  0  0  0  0  0  0  0
   18.6380    9.3960   33.5090 Br  0  0  0  0  0  0  0  0  0  0  0  0
   20.0520    7.2280   32.3910 C   0  0  0  0  0  3  0  0  0  0  0  0
   21.1050    6.6300   31.7700 C   0  0  0  0  0  3  0  0  0  0  0  0
   22.2170    7.3880   31.4010 C   0  0  0  0  0  3  0  0  0  0  0  0
   22.5130   13.8700   29.7610 C   0  0  0  0  0  2  0  0  0  0  0  0
   22.7450   13.7940   31.1900 N   0  0  0  0  0  0  0  0  0  0  0  0
   22.2800   15.0070   31.8550 C   0  0  0  0  0  2  0  0  0  0  0  0
   20.8900   15.3990   31.4060 C   0  0  0  0  0  2  0  0  0  0  0  0
   19.9230   14.2560   31.6580 C   0  0  0  0  0  2  0  0  0  0  0  0
   20.6230   13.0930   32.3020 C   0  0  0  0  0  2  0  0  0  0  0  0
   21.9410   12.7140   31.7540 C   0  0  0  0  0  2  0  0  0  0  0  0
   23.3470   16.5020   28.2260 C   0  0  0  0  0  0  0  0  0  0  0  0
   22.7630   17.0750   29.3150 N   0  0  0  0  0  0  0  0  0  0  0  0
   22.2210   18.1860   28.9280 O   0  0  0  0  0  0  0  0  0  0  0  0
   22.4000   18.3860   27.6730 N   0  0  0  0  0  0  0  0  0  0  0  0
   23.1030   17.3530   27.1880 C   0  0  0  0  0  0  0  0  0  0  0  0
   23.5260   17.1540   25.8660 N   0  0  0  0  0  0  0  0  0  0  0  0
   23.0020   17.4260   25.0050 H   0  0  0  0  0  0  0  0  0  0  0  0
   24.4460   16.6920   25.7000 H   0  0  0  0  0  0  0  0  0  0  0  0
  1  5  2  0  0  0  0
  1  6  1  0  0  0  0
  2  1  1  0  0  0  0
  3  2  2  0  0  0  0
  3  4  1  0  0  0  0
  4  5  1  0  0  0  0
  5 21  1  0  0  0  0
  6  9  2  0  0  0  0
  6  7  1  0  0  0  0
  7 10  1  0  0  0  0
  8  7  1  0  0  0  0
 10 12  1  0  0  0  0
 11 10  1  0  0  0  0
 12 14  1  0  0  0  0
 12 13  2  0  0  0  0
 14 15  1  0  0  0  0
 15 16  2  0  0  0  0
 16 17  1  0  0  0  0
 18 16  1  0  0  0  0
 19 18  2  0  0  0  0
 20 14  2  0  0  0  0
 20 19  1  0  0  0  0
 21 22  1  0  0  0  0
 22 27  1  0  0  0  0
 22 23  1  0  0  0  0
 24 25  1  0  0  0  0
 24 23  1  0  0  0  0
 25 26  1  0  0  0  0
 27 26  1  0  0  0  0
 28  4  1  0  0  0  0
 28 29  2  0  0  0  0
 30 29  1  0  0  0  0
 31 30  1  0  0  0  0
 32 31  2  0  0  0  0
 32 28  1  0  0  0  0
 33 32  1  0  0  0  0
 34 33  1  0  0  0  0
 35 33  1  0  0  0  0
M  END
>  <Pose>
1

>  <Score>
-10.020

$$$$
