MODEL 1
REMARK VINA RESULT:    -7.894      0.000      0.000
REMARK INTER + INTRA:         -12.588
REMARK INTER:                 -11.125
REMARK INTRA:                  -1.464
REMARK UNBOUND:                -1.464
REMARK  7 active torsions:
REMARK  status: ('A' for Active; 'I' for Inactive)
REMARK    1  A    between atoms: C_4  and  C_8 
REMARK    2  A    between atoms: N_9  and  C_26 
REMARK    3  A    between atoms: C_15  and  C_17 
REMARK    4  A    between atoms: C_20  and  O_23 
REMARK    5  A    between atoms: C_26  and  C_27 
REMARK    6  A    between atoms: C_27  and  C_28 
REMARK    7  A    between atoms: C_28  and  N_29 
ROOT
ATOM      1  C   UNK d   1      22.477  11.704  30.442  0.00  0.00     0.161 C 
ATOM      2  N   UNK d   1      23.625  12.564  30.647  0.00  0.00    -0.332 N 
ATOM      3  C   UNK d   1      24.408  11.970  31.668  0.00  0.00     0.295 C 
ATOM      4  O   UNK d   1      25.177  12.573  32.423  0.00  0.00    -0.264 OA
ATOM      5  C   UNK d   1      24.115  10.526  31.632  0.00  0.00     0.250 C 
ATOM      6  O   UNK d   1      24.599   9.627  32.362  0.00  0.00    -0.282 OA
ATOM      7  C   UNK d   1      23.141  10.363  30.560  0.00  0.00     0.062 C 
ATOM      8  C   UNK d   1      22.955   9.258  29.852  0.00  0.00     0.130 C 
ATOM      9  O   UNK d   1      21.984   9.350  28.827  0.00  0.00    -0.190 OA
ENDROOT
BRANCH   1  10
ATOM     10  C   UNK d   1      21.460  11.951  31.475  0.00  0.00    -0.029 A 
ATOM     11  C   UNK d   1      20.855  10.886  32.127  0.00  0.00     0.028 A 
ATOM     12  C   UNK d   1      19.901  11.091  33.130  0.00  0.00     0.011 A 
ATOM     13 Br   UNK d   1      19.084   9.592  34.013  0.00  0.00    -0.051 Br
ATOM     14  C   UNK d   1      19.543  12.364  33.491  0.00  0.00     0.019 A 
ATOM     15  C   UNK d   1      20.134  13.429  32.854  0.00  0.00     0.002 A 
ATOM     16  C   UNK d   1      21.079  13.207  31.861  0.00  0.00     0.009 A 
ENDBRANCH   1  10
BRANCH   8  17
ATOM     17  C   UNK d   1      23.677   8.011  30.077  0.00  0.00     0.007 A 
ATOM     18  C   UNK d   1      23.242   7.002  30.884  0.00  0.00    -0.046 A 
ATOM     19  C   UNK d   1      24.027   5.852  31.085  0.00  0.00     0.044 A 
ATOM     20  C   UNK d   1      21.909   7.077  31.527  0.00  0.00     0.049 C 
ATOM     21  C   UNK d   1      25.249   5.682  30.493  0.00  0.00     0.068 A 
ATOM     22  C   UNK d   1      25.690   6.701  29.675  0.00  0.00     0.037 A 
ATOM     23  C   UNK d   1      24.934   7.825  29.472  0.00  0.00     0.017 A 
BRANCH  21  24
ATOM     24  O   UNK d   1      26.031   4.543  30.687  0.00  0.00    -0.356 OA
ATOM     25  C   UNK d   1      25.476   3.382  31.250  0.00  0.00     0.210 C 
ENDBRANCH  21  24
ENDBRANCH   8  17
BRANCH   2  26
ATOM     26  C   UNK d   1      23.867  13.791  29.918  0.00  0.00     0.129 C 
BRANCH  26  27
ATOM     27  C   UNK d   1      24.249  13.574  28.487  0.00  0.00     0.048 C 
BRANCH  27  28
ATOM     28  C   UNK d   1      25.270  12.530  28.239  0.00  0.00     0.236 C 
BRANCH  28  29
ATOM     29  N   UNK d   1      26.490  12.985  27.675  0.00  0.00    -0.067 N 
ATOM     30  C   UNK d   1      27.044  12.078  26.656  0.00  0.00     0.261 C 
ATOM     31  C   UNK d   1      28.539  12.399  26.601  0.00  0.00     0.195 C 
ATOM     32  O   UNK d   1      28.844  13.570  27.272  0.00  0.00    -0.388 OA
ATOM     33  C   UNK d   1      28.013  14.613  26.860  0.00  0.00     0.195 C 
ATOM     34  C   UNK d   1      26.531  14.291  27.125  0.00  0.00     0.261 C 
ATOM     35  H   UNK d   1      27.214  12.964  28.457  0.00  0.00     0.280 HD
ENDBRANCH  28  29
ENDBRANCH  27  28
ENDBRANCH  26  27
ENDBRANCH   2  26
TORSDOF 7
ENDMDL
