MODEL 1
REMARK VINA RESULT:    -7.843      0.000      0.000
REMARK INTER + INTRA:         -11.403
REMARK INTER:                 -11.053
REMARK INTRA:                  -0.350
REMARK UNBOUND:                -0.350
REMARK  7 active torsions:
REMARK  status: ('A' for Active; 'I' for Inactive)
REMARK    1  A    between atoms: C_4  and  C_8 
REMARK    2  A    between atoms: N_9  and  C_29 
REMARK    3  A    between atoms: C_15  and  C_17 
REMARK    4  A    between atoms: N_19  and  C_22 
REMARK    5  A    between atoms: C_29  and  C_30 
REMARK    6  A    between atoms: C_30  and  C_31 
REMARK    7  A    between atoms: C_31  and  N_32 
ROOT
ATOM      1  C   UNK d   1      22.024   8.699  30.949  0.00  0.00     0.161 C 
ATOM      2  N   UNK d   1      22.445   9.879  31.606  0.00  0.00    -0.332 N 
ATOM      3  C   UNK d   1      23.833   9.802  31.885  0.00  0.00     0.295 C 
ATOM      4  O   UNK d   1      24.491  10.662  32.549  0.00  0.00    -0.264 OA
ATOM      5  C   UNK d   1      24.357   8.596  31.283  0.00  0.00     0.250 C 
ATOM      6  O   UNK d   1      25.574   8.280  31.383  0.00  0.00    -0.282 OA
ATOM      7  C   UNK d   1      23.252   7.926  30.625  0.00  0.00     0.062 C 
ATOM      8  C   UNK d   1      23.359   6.817  29.930  0.00  0.00     0.133 C 
ATOM      9  O   UNK d   1      22.224   6.240  29.408  0.00  0.00    -0.190 OA
ENDROOT
BRANCH   1  10
ATOM     10  C   UNK d   1      21.096   7.933  31.787  0.00  0.00    -0.029 A 
ATOM     11  C   UNK d   1      19.942   8.556  32.229  0.00  0.00     0.028 A 
ATOM     12  C   UNK d   1      18.974   7.981  32.995  0.00  0.00     0.011 A 
ATOM     13 Br   UNK d   1      17.397   8.889  33.575  0.00  0.00    -0.051 Br
ATOM     14  C   UNK d   1      19.177   6.641  33.362  0.00  0.00     0.019 A 
ATOM     15  C   UNK d   1      20.322   5.990  32.937  0.00  0.00     0.002 A 
ATOM     16  C   UNK d   1      21.285   6.604  32.159  0.00  0.00     0.009 A 
ENDBRANCH   1  10
BRANCH   8  17
ATOM     17  C   UNK d   1      24.641   6.199  29.699  0.00  0.00     0.045 A 
ATOM     18  C   UNK d   1      25.126   5.100  30.430  0.00  0.00     0.047 A 
ATOM     19  N   UNK d   1      26.323   4.747  29.946  0.00  0.00    -0.238 N 
ATOM     20  C   UNK d   1      24.387   4.460  31.556  0.00  0.00     0.071 C 
ATOM     21  N   UNK d   1      26.600   5.573  28.955  0.00  0.00    -0.179 NA
ATOM     22  C   UNK d   1      25.612   6.462  28.773  0.00  0.00     0.155 A 
BRANCH  19  23
ATOM     23  C   UNK d   1      27.150   3.679  30.390  0.00  0.00     0.058 A 
ATOM     24  C   UNK d   1      27.978   3.886  31.484  0.00  0.00     0.031 A 
ATOM     25  C   UNK d   1      28.799   2.891  31.976  0.00  0.00     0.002 A 
ATOM     26  C   UNK d   1      28.827   1.627  31.386  0.00  0.00     0.000 A 
ATOM     27  C   UNK d   1      28.002   1.421  30.295  0.00  0.00     0.002 A 
ATOM     28  C   UNK d   1      27.196   2.426  29.826  0.00  0.00     0.031 A 
ENDBRANCH  19  23
ENDBRANCH   8  17
BRANCH   2  29
ATOM     29  C   UNK d   1      21.603  11.060  31.949  0.00  0.00     0.129 C 
BRANCH  29  30
ATOM     30  C   UNK d   1      21.872  12.174  30.971  0.00  0.00     0.048 C 
BRANCH  30  31
ATOM     31  C   UNK d   1      21.776  13.538  31.578  0.00  0.00     0.235 C 
BRANCH  31  32
ATOM     32  N   UNK d   1      20.970  14.484  30.880  0.00  0.00    -0.079 N 
ATOM     33  C   UNK d   1      19.578  14.481  31.185  0.00  0.00     0.269 C 
ATOM     34  C   UNK d   1      21.474  15.848  31.114  0.00  0.00     0.269 C 
ATOM     35  H   UNK d   1      21.084  14.342  29.831  0.00  0.00     0.278 HD
ENDBRANCH  31  32
ENDBRANCH  30  31
ENDBRANCH  29  30
ENDBRANCH   2  29
TORSDOF 7
ENDMDL
