/Users/jonathanwahrer/Desktop/Msc/3_Semester/Drug_Design_Praktikum/waehrer_HTS_screening/HTS_experiment/out/docking_results/vina_output/3elj/1285_docked.pdbqt
 OpenBabel03192218153D

 34 37  0  0  1  0  0  0  0  0999 V2000
   23.2010    8.7270   31.9130 C   0  0  1  0  0  3  0  0  0  0  0  0
   23.2610    7.4880   31.1610 N   0  0  0  0  0  0  0  0  0  0  0  0
   22.8580    7.7730   29.8040 C   0  0  0  0  0  0  0  0  0  0  0  0
   22.3860    6.9880   28.9720 O   0  0  0  0  0  0  0  0  0  0  0  0
   23.1290    9.1960   29.6290 C   0  0  0  0  0  0  0  0  0  0  0  0
   22.9370    9.9160   28.6040 O   0  0  0  0  0  0  0  0  0  0  0  0
   23.6820    9.7060   30.8730 C   0  0  0  0  0  0  0  0  0  0  0  0
   24.4010   10.8000   31.0690 C   0  0  0  0  0  0  0  0  0  0  0  0
   24.7710   11.1130   32.4080 O   0  0  0  0  0  1  0  0  0  0  0  0
   21.8600    9.0940   32.3840 C   0  0  0  0  0  0  0  0  0  0  0  0
   21.5660   10.4540   32.5200 C   0  0  0  0  0  3  0  0  0  0  0  0
   20.3410   10.8600   32.9500 C   0  0  0  0  0  0  0  0  0  0  0  0
   19.9620   12.7240   33.1280 Br  0  0  0  0  0  0  0  0  0  0  0  0
   19.3630    9.9470   33.2600 C   0  0  0  0  0  3  0  0  0  0  0  0
   19.6190    8.6010   33.1370 C   0  0  0  0  0  3  0  0  0  0  0  0
   20.8710    8.1870   32.6980 C   0  0  0  0  0  3  0  0  0  0  0  0
   24.8090   11.6480   29.9770 C   0  0  0  0  0  0  0  0  0  0  0  0
   25.8450   11.4800   29.1280 N   0  0  0  0  0  0  0  0  0  0  0  0
   25.8360   12.4990   28.2340 C   0  0  0  0  0  0  0  0  0  0  0  0
   26.8270   10.5700   29.0160 C   0  0  0  0  0  3  0  0  0  0  0  0
   24.7900   13.3270   28.5060 N   0  0  0  0  0  0  0  0  0  0  0  0
   26.7530   12.6600   27.2280 C   0  0  0  0  0  0  0  0  0  0  0  0
   24.1660   12.7930   29.5820 C   0  0  0  0  0  0  0  0  0  0  0  0
   22.9590   13.3830   30.2240 C   0  0  0  0  0  1  0  0  0  0  0  0
   27.7550   11.7210   27.1220 C   0  0  0  0  0  3  0  0  0  0  0  0
   26.6940   13.8010   26.2690 C   0  0  0  0  0  1  0  0  0  0  0  0
   27.7710   10.6830   28.0310 C   0  0  0  0  0  3  0  0  0  0  0  0
   23.6480    6.1820   31.6670 C   0  0  0  0  0  2  0  0  0  0  0  0
   24.9490    5.6810   31.1410 C   0  0  0  0  0  2  0  0  0  0  0  0
   24.8370    4.7430   29.9650 C   0  0  0  0  0  2  0  0  0  0  0  0
   25.2560    5.4190   28.7600 N   0  0  0  0  0  4  0  0  0  0  0  0
   26.2110    6.4660   29.0710 C   0  0  0  0  0  1  0  0  0  0  0  0
   25.9500    4.4640   27.9180 C   0  0  0  0  0  1  0  0  0  0  0  0
   24.4520    5.7730   28.1990 H   0  0  0  0  0  0  0  0  0  0  0  0
  1 10  1  6  0  0  0
  2 28  1  0  0  0  0
  2  1  1  0  0  0  0
  3  2  1  0  0  0  0
  4  3  2  0  0  0  0
  5  3  1  0  0  0  0
  5  7  1  0  0  0  0
  6  5  2  0  0  0  0
  7  8  2  0  0  0  0
  7  1  1  0  0  0  0
  8  9  1  0  0  0  0
 10 11  2  0  0  0  0
 10 16  1  0  0  0  0
 11 12  1  0  0  0  0
 12 13  1  0  0  0  0
 12 14  2  0  0  0  0
 15 14  1  0  0  0  0
 16 15  2  0  0  0  0
 17  8  1  0  0  0  0
 18 17  1  0  0  0  0
 19 21  2  0  0  0  0
 19 18  1  0  0  0  0
 20 18  1  0  0  0  0
 21 23  1  0  0  0  0
 22 19  1  0  0  0  0
 23 17  2  0  0  0  0
 23 24  1  0  0  0  0
 25 22  2  0  0  0  0
 25 27  1  0  0  0  0
 26 22  1  0  0  0  0
 27 20  2  0  0  0  0
 29 28  1  0  0  0  0
 30 29  1  0  0  0  0
 31 32  1  0  0  0  0
 31 30  1  0  0  0  0
 33 31  1  0  0  0  0
 34 31  1  0  0  0  0
M  END
>  <Pose>
1

>  <Score>
-7.874

$$$$
