MODEL 1
REMARK VINA RESULT:    -9.098      0.000      0.000
REMARK INTER + INTRA:          -9.212
REMARK INTER:                  -9.629
REMARK INTRA:                   0.417
REMARK UNBOUND:                 0.417
REMARK  1 active torsions:
REMARK  status: ('A' for Active; 'I' for Inactive)
REMARK    1  A    between atoms: C_5  and  C_8 
ROOT
ATOM      1  C   UNK d   1      22.590  10.504  32.058  0.00  0.00     0.102 A 
ATOM      2  C   UNK d   1      21.954   9.206  32.008  0.00  0.00     0.068 A 
ATOM      3  C   UNK d   1      22.529   8.161  31.342  0.00  0.00     0.124 A 
ATOM      4  N   UNK d   1      23.795   8.282  30.681  0.00  0.00    -0.343 N 
ATOM      5  C   UNK d   1      24.418   9.557  30.763  0.00  0.00     0.048 A 
ATOM      6  C   UNK d   1      23.892  10.569  31.394  0.00  0.00     0.055 A 
ATOM      7  C   UNK d   1      24.829  11.731  31.306  0.00  0.00     0.292 A 
ATOM      8  O   UNK d   1      24.582  12.858  31.831  0.00  0.00    -0.259 OA
ATOM      9  O   UNK d   1      25.897  11.296  30.591  0.00  0.00    -0.312 OA
ATOM     10  C   UNK d   1      25.747   9.984  30.165  0.00  0.00     0.237 A 
ATOM     11  N   UNK d   1      21.889   6.948  31.308  0.00  0.00    -0.289 N 
ATOM     12  C   UNK d   1      20.711   6.783  31.919  0.00  0.00     0.332 A 
ATOM     13  O   UNK d   1      20.139   5.657  31.875  0.00  0.00    -0.246 OA
ATOM     14  N   UNK d   1      20.153   7.816  32.572  0.00  0.00    -0.270 N 
ATOM     15  C   UNK d   1      20.709   9.023  32.652  0.00  0.00     0.262 A 
ATOM     16  O   UNK d   1      20.195   9.995  33.260  0.00  0.00    -0.267 OA
ATOM     17  C   UNK d   1      18.864   7.587  33.225  0.00  0.00     0.164 C 
ATOM     18  C   UNK d   1      22.552   5.875  30.582  0.00  0.00     0.163 C 
ATOM     19  H   UNK d   1      24.196   7.465  30.186  0.00  0.00     0.167 HD
ENDROOT
BRANCH   1  20
ATOM     20  C   UNK d   1      21.733  11.644  31.748  0.00  0.00    -0.045 A 
ATOM     21  C   UNK d   1      21.485  12.044  30.469  0.00  0.00     0.009 A 
ATOM     22  C   UNK d   1      20.659  13.150  30.202  0.00  0.00     0.019 A 
ATOM     23  C   UNK d   1      20.091  13.837  31.244  0.00  0.00     0.011 A 
ATOM     24 Br   UNK d   1      18.953  15.355  30.928  0.00  0.00    -0.051 Br
ATOM     25  C   UNK d   1      20.331  13.445  32.529  0.00  0.00     0.019 A 
ATOM     26  C   UNK d   1      21.159  12.339  32.784  0.00  0.00     0.009 A 
ENDBRANCH   1  20
TORSDOF 1
ENDMDL
