/Users/jonathanwahrer/Desktop/Msc/3_Semester/Drug_Design_Praktikum/waehrer_HTS_screening/HTS_experiment/out/docking_results/vina_output/3elj/1295_docked.pdbqt
 OpenBabel03192218153D

 26 29  0  0  1  0  0  0  0  0999 V2000
   22.5900   10.5040   32.0580 C   0  0  0  0  0  0  0  0  0  0  0  0
   21.9540    9.2060   32.0080 C   0  0  0  0  0  0  0  0  0  0  0  0
   22.5290    8.1610   31.3420 C   0  0  1  0  0  3  0  0  0  0  0  0
   23.7950    8.2820   30.6810 N   0  0  0  0  0  0  0  0  0  0  0  0
   24.4180    9.5570   30.7630 C   0  0  0  0  0  0  0  0  0  0  0  0
   23.8920   10.5690   31.3940 C   0  0  0  0  0  0  0  0  0  0  0  0
   24.8290   11.7310   31.3060 C   0  0  0  0  0  0  0  0  0  0  0  0
   24.5820   12.8580   31.8310 O   0  0  0  0  0  0  0  0  0  0  0  0
   25.8970   11.2960   30.5910 O   0  0  0  0  0  0  0  0  0  0  0  0
   25.7470    9.9840   30.1650 C   0  0  0  0  0  2  0  0  0  0  0  0
   21.8890    6.9480   31.3080 N   0  0  0  0  0  0  0  0  0  0  0  0
   20.7110    6.7830   31.9190 C   0  0  0  0  0  0  0  0  0  0  0  0
   20.1390    5.6570   31.8750 O   0  0  0  0  0  0  0  0  0  0  0  0
   20.1530    7.8160   32.5720 N   0  0  0  0  0  0  0  0  0  0  0  0
   20.7090    9.0230   32.6520 C   0  0  0  0  0  0  0  0  0  0  0  0
   20.1950    9.9950   33.2600 O   0  0  0  0  0  0  0  0  0  0  0  0
   18.8640    7.5870   33.2250 C   0  0  0  0  0  1  0  0  0  0  0  0
   22.5520    5.8750   30.5820 C   0  0  0  0  0  1  0  0  0  0  0  0
   24.1960    7.4650   30.1860 H   0  0  0  0  0  0  0  0  0  0  0  0
   21.7330   11.6440   31.7480 C   0  0  0  0  0  0  0  0  0  0  0  0
   21.4850   12.0440   30.4690 C   0  0  0  0  0  3  0  0  0  0  0  0
   20.6590   13.1500   30.2020 C   0  0  0  0  0  3  0  0  0  0  0  0
   20.0910   13.8370   31.2440 C   0  0  0  0  0  0  0  0  0  0  0  0
   18.9530   15.3550   30.9280 Br  0  0  0  0  0  0  0  0  0  0  0  0
   20.3310   13.4450   32.5290 C   0  0  0  0  0  3  0  0  0  0  0  0
   21.1590   12.3390   32.7840 C   0  0  0  0  0  3  0  0  0  0  0  0
  2  1  2  0  0  0  0
  2 15  1  0  0  0  0
  3  2  1  1  0  0  0
  4  5  1  0  0  0  0
  4  3  1  0  0  0  0
  5  6  2  0  0  0  0
  6  1  1  0  0  0  0
  7  6  1  0  0  0  0
  7  8  2  0  0  0  0
  9  7  1  0  0  0  0
 10  9  1  0  0  0  0
 10  5  1  0  0  0  0
 11  3  1  0  0  0  0
 11 12  1  0  0  0  0
 12 14  1  0  0  0  0
 13 12  2  0  0  0  0
 14 15  1  0  0  0  0
 14 17  1  0  0  0  0
 15 16  2  0  0  0  0
 18 11  1  0  0  0  0
 19  4  1  0  0  0  0
 20  1  1  0  0  0  0
 20 26  1  0  0  0  0
 21 20  2  0  0  0  0
 22 21  1  0  0  0  0
 22 23  2  0  0  0  0
 23 25  1  0  0  0  0
 24 23  1  0  0  0  0
 25 26  2  0  0  0  0
M  END
>  <Pose>
1

>  <Score>
-9.098

$$$$
