MODEL 1
REMARK VINA RESULT:    -8.432      0.000      0.000
REMARK INTER + INTRA:          -8.943
REMARK INTER:                  -9.417
REMARK INTRA:                   0.475
REMARK UNBOUND:                 0.475
REMARK  2 active torsions:
REMARK  status: ('A' for Active; 'I' for Inactive)
REMARK    1  A    between atoms: C_3  and  N_11 
REMARK    2  A    between atoms: C_6  and  N_8 
ROOT
ATOM      1  N   UNK d   1      22.617  10.223  31.764  0.00  0.00    -0.250 N 
ATOM      2  C   UNK d   1      23.974   9.919  32.026  0.00  0.00     0.239 C 
ATOM      3  O   UNK d   1      24.820  10.677  32.545  0.00  0.00    -0.272 OA
ATOM      4  C   UNK d   1      24.287   8.541  31.593  0.00  0.00     0.127 C 
ATOM      5  C   UNK d   1      24.872   8.644  30.201  0.00  0.00     0.159 C 
ATOM      6  O   UNK d   1      23.693   8.930  29.462  0.00  0.00    -0.371 OA
ATOM      7  C   UNK d   1      23.005   7.735  29.805  0.00  0.00     0.159 C 
ATOM      8  C   UNK d   1      22.936   7.895  31.300  0.00  0.00     0.127 C 
ATOM      9  C   UNK d   1      21.958   8.964  31.605  0.00  0.00     0.239 C 
ATOM     10  O   UNK d   1      20.701   8.794  31.711  0.00  0.00    -0.272 OA
ATOM     11  C   UNK d   1      24.014   6.738  29.392  0.00  0.00     0.004 C 
ATOM     12  C   UNK d   1      25.190   7.296  29.668  0.00  0.00     0.004 C 
ENDROOT
BRANCH   1  13
ATOM     13  C   UNK d   1      21.948  11.471  31.662  0.00  0.00     0.062 A 
ATOM     14  C   UNK d   1      22.315  12.413  30.728  0.00  0.00     0.040 A 
ATOM     15 Br   UNK d   1      23.766  11.952  29.566  0.00  0.00    -0.049 Br
ATOM     16  C   UNK d   1      21.679  13.646  30.610  0.00  0.00     0.057 A 
ATOM     17  C   UNK d   1      20.631  13.978  31.447  0.00  0.00     0.104 A 
ATOM     18  C   UNK d   1      20.261  13.031  32.387  0.00  0.00     0.038 A 
ATOM     19  C   UNK d   1      20.888  11.813  32.503  0.00  0.00     0.034 A 
BRANCH  17  20
ATOM     20  N   UNK d   1      19.965  15.231  31.352  0.00  0.00    -0.116 N 
ATOM     21  O   UNK d   1      20.657  16.259  31.246  0.00  0.00    -0.532 OA
ATOM     22  O   UNK d   1      18.605  15.384  31.369  0.00  0.00    -0.532 OA
ENDBRANCH  17  20
ENDBRANCH   1  13
TORSDOF 2
ENDMDL
