MODEL 1
REMARK VINA RESULT:    -7.841      0.000      0.000
REMARK INTER + INTRA:          -9.257
REMARK INTER:                  -8.987
REMARK INTRA:                  -0.270
REMARK UNBOUND:                -0.270
REMARK  3 active torsions:
REMARK  status: ('A' for Active; 'I' for Inactive)
REMARK    1  A    between atoms: C_6  and  N_8 
REMARK    2  A    between atoms: C_12  and  C_21 
REMARK    3  A    between atoms: C_21  and  O_22 
ROOT
ATOM      1  N   UNK d   1      22.992  10.935  31.979  0.00  0.00    -0.252 N 
ATOM      2  C   UNK d   1      24.319  10.425  32.044  0.00  0.00     0.239 C 
ATOM      3  O   UNK d   1      24.748   9.516  32.788  0.00  0.00    -0.272 OA
ATOM      4  C   UNK d   1      25.179  11.149  31.060  0.00  0.00     0.136 C 
ATOM      5  C   UNK d   1      25.135  10.522  29.707  0.00  0.00     0.114 C 
ATOM      6  O   UNK d   1      23.901  10.982  29.182  0.00  0.00    -0.358 OA
ATOM      7  C   UNK d   1      24.177  12.365  29.331  0.00  0.00     0.089 C 
ATOM      8  C   UNK d   1      24.408  12.442  30.805  0.00  0.00     0.133 C 
ATOM      9  C   UNK d   1      23.131  12.280  31.539  0.00  0.00     0.239 C 
ATOM     10  O   UNK d   1      22.302  13.192  31.739  0.00  0.00    -0.272 OA
ATOM     11  C   UNK d   1      25.472  12.431  28.589  0.00  0.00     0.010 C 
ATOM     12  C   UNK d   1      26.077  11.252  28.817  0.00  0.00     0.013 C 
ATOM     13  C   UNK d   1      23.116  13.229  28.796  0.00  0.00     0.051 C 
ENDROOT
BRANCH   1  14
ATOM     14  C   UNK d   1      21.815  10.204  32.291  0.00  0.00     0.046 A 
ATOM     15  C   UNK d   1      20.693  10.792  32.838  0.00  0.00     0.031 A 
ATOM     16  C   UNK d   1      19.534  10.070  33.144  0.00  0.00     0.010 A 
ATOM     17  C   UNK d   1      19.468   8.716  32.907  0.00  0.00    -0.044 A 
ATOM     18  C   UNK d   1      20.578   8.115  32.362  0.00  0.00     0.019 A 
ATOM     19  C   UNK d   1      18.231   7.949  33.237  0.00  0.00     0.049 C 
ATOM     20 Br   UNK d   1      20.524   6.244  32.020  0.00  0.00    -0.051 Br
ATOM     21  C   UNK d   1      21.732   8.842  32.058  0.00  0.00     0.050 A 
ENDBRANCH   1  14
BRANCH   5  22
ATOM     22  C   UNK d   1      25.272   9.055  29.673  0.00  0.00     0.207 C 
BRANCH  22  23
ATOM     23  O   UNK d   1      24.075   8.425  29.343  0.00  0.00    -0.398 OA
ATOM     24  H   UNK d   1      23.328   9.067  29.180  0.00  0.00     0.209 HD
ENDBRANCH  22  23
ENDBRANCH   5  22
TORSDOF 3
ENDMDL
