/Users/jonathanwahrer/Desktop/Msc/3_Semester/Drug_Design_Praktikum/waehrer_HTS_screening/HTS_experiment/out/docking_results/vina_output/3elj/1310_docked.pdbqt
 OpenBabel03192218153D

 32 35  0  0  1  0  0  0  0  0999 V2000
   22.3780   11.7770   30.5160 C   0  0  1  0  0  3  0  0  0  0  0  0
   23.5260   12.6360   30.7070 N   0  0  0  0  0  0  0  0  0  0  0  0
   24.3580   12.0030   31.6620 C   0  0  0  0  0  0  0  0  0  0  0  0
   25.1760   12.5380   32.4520 O   0  0  0  0  0  0  0  0  0  0  0  0
   24.0790   10.5700   31.5540 C   0  0  0  0  0  0  0  0  0  0  0  0
   24.5740    9.6190   32.2000 O   0  0  0  0  0  0  0  0  0  0  0  0
   23.0610   10.4460   30.4980 C   0  0  0  0  0  0  0  0  0  0  0  0
   22.8430    9.3710   29.7750 C   0  0  0  0  0  0  0  0  0  0  0  0
   21.7950    9.4320   28.8480 O   0  0  0  0  0  1  0  0  0  0  0  0
   21.3520   11.8980   31.5560 C   0  0  0  0  0  0  0  0  0  0  0  0
   20.7020   10.8470   32.1510 C   0  0  0  0  0  3  0  0  0  0  0  0
   19.7360   11.0190   33.1440 C   0  0  0  0  0  0  0  0  0  0  0  0
   18.8670    9.4930   33.9290 Br  0  0  0  0  0  0  0  0  0  0  0  0
   19.4030   12.2890   33.5630 C   0  0  0  0  0  3  0  0  0  0  0  0
   20.0400   13.3640   32.9830 C   0  0  0  0  0  3  0  0  0  0  0  0
   20.9900   13.1800   32.0050 C   0  0  0  0  0  3  0  0  0  0  0  0
   23.6550    8.1450   29.9080 C   0  0  0  0  0  0  0  0  0  0  0  0
   24.8010    7.8620   29.3640 O   0  0  0  0  0  0  0  0  0  0  0  0
   25.2240    6.6690   29.7180 C   0  0  0  0  0  0  0  0  0  0  0  0
   24.2920    6.0980   30.5700 C   0  0  0  0  0  0  0  0  0  0  0  0
   26.3530    5.9280   29.4180 C   0  0  0  0  0  3  0  0  0  0  0  0
   23.3010    7.0540   30.6790 C   0  0  0  0  0  3  0  0  0  0  0  0
   24.4990    4.8380   31.0880 C   0  0  0  0  0  3  0  0  0  0  0  0
   25.6220    4.1000   30.7900 C   0  0  0  0  0  3  0  0  0  0  0  0
   26.5590    4.6540   29.9440 C   0  0  0  0  0  3  0  0  0  0  0  0
   23.8660   13.9070   30.0700 C   0  0  0  0  0  2  0  0  0  0  0  0
   24.0130   13.7270   28.5710 C   0  0  0  0  0  2  0  0  0  0  0  0
   25.1450   12.8050   28.2040 C   0  0  0  0  0  2  0  0  0  0  0  0
   26.2630   13.5710   27.7540 N   0  0  0  0  0  4  0  0  0  0  0  0
   27.0860   12.8710   26.7910 C   0  0  0  0  0  1  0  0  0  0  0  0
   25.9450   14.8540   27.2060 C   0  0  0  0  0  1  0  0  0  0  0  0
   26.8870   13.7410   28.5980 H   0  0  0  0  0  0  0  0  0  0  0  0
  1  2  1  0  0  0  0
  1 10  1  1  0  0  0
  2  3  1  0  0  0  0
  3  4  2  0  0  0  0
  5  3  1  0  0  0  0
  5  6  2  0  0  0  0
  7  1  1  0  0  0  0
  7  5  1  0  0  0  0
  8 17  1  0  0  0  0
  8  7  2  0  0  0  0
  9  8  1  0  0  0  0
 10 16  2  0  0  0  0
 10 11  1  0  0  0  0
 11 12  2  0  0  0  0
 12 14  1  0  0  0  0
 12 13  1  0  0  0  0
 15 14  2  0  0  0  0
 16 15  1  0  0  0  0
 17 22  2  0  0  0  0
 18 19  1  0  0  0  0
 18 17  1  0  0  0  0
 19 20  1  0  0  0  0
 20 22  1  0  0  0  0
 20 23  2  0  0  0  0
 21 19  2  0  0  0  0
 21 25  1  0  0  0  0
 24 23  1  0  0  0  0
 25 24  2  0  0  0  0
 26  2  1  0  0  0  0
 27 26  1  0  0  0  0
 28 27  1  0  0  0  0
 29 28  1  0  0  0  0
 29 32  1  0  0  0  0
 30 29  1  0  0  0  0
 31 29  1  0  0  0  0
M  END
>  <Pose>
1

>  <Score>
-7.815

$$$$
