MODEL 1
REMARK VINA RESULT:    -7.815      0.000      0.000
REMARK INTER + INTRA:         -11.769
REMARK INTER:                 -10.556
REMARK INTRA:                  -1.213
REMARK UNBOUND:                -1.213
REMARK  6 active torsions:
REMARK  status: ('A' for Active; 'I' for Inactive)
REMARK    1  A    between atoms: C_4  and  C_8 
REMARK    2  A    between atoms: N_9  and  C_26 
REMARK    3  A    between atoms: C_15  and  C_17 
REMARK    4  A    between atoms: C_26  and  C_27 
REMARK    5  A    between atoms: C_27  and  C_28 
REMARK    6  A    between atoms: C_28  and  N_29 
ROOT
ATOM      1  C   UNK d   1      22.378  11.777  30.516  0.00  0.00     0.161 C 
ATOM      2  N   UNK d   1      23.526  12.636  30.707  0.00  0.00    -0.332 N 
ATOM      3  C   UNK d   1      24.358  12.003  31.662  0.00  0.00     0.295 C 
ATOM      4  O   UNK d   1      25.176  12.538  32.452  0.00  0.00    -0.264 OA
ATOM      5  C   UNK d   1      24.079  10.570  31.554  0.00  0.00     0.251 C 
ATOM      6  O   UNK d   1      24.574   9.619  32.200  0.00  0.00    -0.282 OA
ATOM      7  C   UNK d   1      23.061  10.446  30.498  0.00  0.00     0.064 C 
ATOM      8  C   UNK d   1      22.843   9.371  29.775  0.00  0.00     0.153 C 
ATOM      9  O   UNK d   1      21.795   9.432  28.848  0.00  0.00    -0.188 OA
ENDROOT
BRANCH   1  10
ATOM     10  C   UNK d   1      21.352  11.898  31.556  0.00  0.00    -0.029 A 
ATOM     11  C   UNK d   1      20.702  10.847  32.151  0.00  0.00     0.028 A 
ATOM     12  C   UNK d   1      19.736  11.019  33.144  0.00  0.00     0.011 A 
ATOM     13 Br   UNK d   1      18.867   9.493  33.929  0.00  0.00    -0.051 Br
ATOM     14  C   UNK d   1      19.403  12.289  33.563  0.00  0.00     0.019 A 
ATOM     15  C   UNK d   1      20.040  13.364  32.983  0.00  0.00     0.002 A 
ATOM     16  C   UNK d   1      20.990  13.180  32.005  0.00  0.00     0.009 A 
ENDBRANCH   1  10
BRANCH   8  17
ATOM     17  C   UNK d   1      23.655   8.145  29.908  0.00  0.00     0.114 A 
ATOM     18  O   UNK d   1      24.801   7.862  29.364  0.00  0.00    -0.307 OA
ATOM     19  C   UNK d   1      25.224   6.669  29.718  0.00  0.00     0.086 A 
ATOM     20  C   UNK d   1      24.292   6.098  30.570  0.00  0.00     0.001 A 
ATOM     21  C   UNK d   1      26.353   5.928  29.418  0.00  0.00     0.038 A 
ATOM     22  C   UNK d   1      23.301   7.054  30.679  0.00  0.00     0.054 A 
ATOM     23  C   UNK d   1      24.499   4.838  31.088  0.00  0.00     0.014 A 
ATOM     24  C   UNK d   1      25.622   4.100  30.790  0.00  0.00     0.001 A 
ATOM     25  C   UNK d   1      26.559   4.654  29.944  0.00  0.00     0.003 A 
ENDBRANCH   8  17
BRANCH   2  26
ATOM     26  C   UNK d   1      23.866  13.907  30.070  0.00  0.00     0.129 C 
BRANCH  26  27
ATOM     27  C   UNK d   1      24.013  13.727  28.571  0.00  0.00     0.048 C 
BRANCH  27  28
ATOM     28  C   UNK d   1      25.145  12.805  28.204  0.00  0.00     0.235 C 
BRANCH  28  29
ATOM     29  N   UNK d   1      26.263  13.571  27.754  0.00  0.00    -0.079 N 
ATOM     30  C   UNK d   1      27.086  12.871  26.791  0.00  0.00     0.269 C 
ATOM     31  C   UNK d   1      25.945  14.854  27.206  0.00  0.00     0.269 C 
ATOM     32  H   UNK d   1      26.887  13.741  28.598  0.00  0.00     0.278 HD
ENDBRANCH  28  29
ENDBRANCH  27  28
ENDBRANCH  26  27
ENDBRANCH   2  26
TORSDOF 6
ENDMDL
