/Users/jonathanwahrer/Desktop/Msc/3_Semester/Drug_Design_Praktikum/waehrer_HTS_screening/HTS_experiment/out/docking_results/vina_output/3elj/1314_docked.pdbqt
 OpenBabel03192218163D

 32 35  0  0  0  0  0  0  0  0999 V2000
   24.3810   12.6400   29.2080 C   0  0  0  0  0  0  0  0  0  0  0  0
   25.1170   13.1060   28.2450 N   0  0  0  0  0  0  0  0  0  0  0  0
   24.8020   14.3350   28.0170 N   0  0  0  0  0  0  0  0  0  0  0  0
   23.7880   14.7810   28.8550 N   0  0  0  0  0  0  0  0  0  0  0  0
   23.5030   13.7470   29.6170 C   0  0  0  0  0  0  0  0  0  0  0  0
   24.1580   11.3270   29.6580 C   0  0  0  0  0  0  0  0  0  0  0  0
   23.0880   10.4140   29.0180 N   0  0  0  0  0  0  0  0  0  0  0  0
   22.6010   10.8310   28.2280 H   0  0  0  0  0  0  0  0  0  0  0  0
   24.7550   10.7850   30.5810 O   0  0  0  0  0  0  0  0  0  0  0  0
   23.1080    9.3510   29.7500 N   0  0  0  0  0  2  0  0  0  0  0  0
   22.8920    8.1660   30.0580 C   0  0  0  0  0  2  0  0  0  0  0  0
   21.9660    8.1250   31.2990 C   0  0  0  0  0  0  0  0  0  0  0  0
   21.4330    6.9000   31.6210 C   0  0  0  0  0  0  0  0  0  0  0  0
   22.1050    5.3390   30.8000 Br  0  0  0  0  0  0  0  0  0  0  0  0
   20.3550    6.8700   32.5110 C   0  0  0  0  0  3  0  0  0  0  0  0
   19.8580    8.0530   33.0680 C   0  0  0  0  0  3  0  0  0  0  0  0
   20.4210    9.2430   32.7510 C   0  0  0  0  0  3  0  0  0  0  0  0
   21.5080    9.2630   31.8230 C   0  0  0  0  0  3  0  0  0  0  0  0
   22.7010   13.4910   30.8100 C   0  0  0  0  0  2  0  0  0  0  0  0
   21.3990   13.2270   30.9590 N   0  0  0  0  0  0  0  0  0  0  0  0
   21.1140   12.8690   32.3410 C   0  0  0  0  0  2  0  0  0  0  0  0
   20.2530   13.7360   30.4140 C   0  0  0  0  0  2  0  0  0  0  0  0
   19.8950   13.6410   32.7510 C   0  0  0  0  0  2  0  0  0  0  0  0
   19.5300   14.5040   31.5480 C   0  0  0  0  0  2  0  0  0  0  0  0
   23.3250   16.0800   28.6580 C   0  0  0  0  0  0  0  0  0  0  0  0
   22.5550   16.7340   29.6210 N   0  0  0  0  0  0  0  0  0  0  0  0
   22.1750   17.8500   29.1400 O   0  0  0  0  0  0  0  0  0  0  0  0
   22.6090   18.0290   27.9570 N   0  0  0  0  0  0  0  0  0  0  0  0
   23.3370   16.9250   27.6270 C   0  0  0  0  0  0  0  0  0  0  0  0
   23.9450   16.8180   26.3340 N   0  0  0  0  0  0  0  0  0  0  0  0
   24.0410   15.8730   25.9370 H   0  0  0  0  0  0  0  0  0  0  0  0
   24.3220   17.6390   25.8640 H   0  0  0  0  0  0  0  0  0  0  0  0
  1  5  2  0  0  0  0
  1  6  1  0  0  0  0
  2  1  1  0  0  0  0
  3  2  2  0  0  0  0
  3  4  1  0  0  0  0
  4  5  1  0  0  0  0
  5 19  1  0  0  0  0
  6  9  2  0  0  0  0
  7  6  1  0  0  0  0
  7 10  1  0  0  0  0
  8  7  1  0  0  0  0
 10 11  1  0  0  0  0
 11 12  1  0  0  0  0
 12 13  2  0  0  0  0
 12 18  1  0  0  0  0
 13 15  1  0  0  0  0
 14 13  1  0  0  0  0
 15 16  2  0  0  0  0
 17 16  1  0  0  0  0
 18 17  2  0  0  0  0
 19 20  1  0  0  0  0
 20 21  1  0  0  0  0
 21 23  1  0  0  0  0
 22 20  1  0  0  0  0
 22 24  1  0  0  0  0
 24 23  1  0  0  0  0
 25  4  1  0  0  0  0
 25 26  2  0  0  0  0
 27 26  1  0  0  0  0
 28 27  1  0  0  0  0
 29 28  2  0  0  0  0
 29 25  1  0  0  0  0
 30 29  1  0  0  0  0
 31 30  1  0  0  0  0
 32 30  1  0  0  0  0
M  END
>  <Pose>
1

>  <Score>
-9.336

$$$$
