MODEL 1
REMARK VINA RESULT:    -8.411      0.000      0.000
REMARK INTER + INTRA:         -12.810
REMARK INTER:                 -11.607
REMARK INTRA:                  -1.202
REMARK UNBOUND:                -1.202
REMARK  7 active torsions:
REMARK  status: ('A' for Active; 'I' for Inactive)
REMARK    1  A    between atoms: C_4  and  C_8 
REMARK    2  A    between atoms: C_8  and  C_10 
REMARK    3  A    between atoms: C_10  and  N_11 
REMARK    4  A    between atoms: N_18  and  C_21 
REMARK    5  A    between atoms: C_19  and  N_20 
REMARK    6  A    between atoms: C_21  and  C_22 
REMARK    7  A    between atoms: C_22  and  N_23 
ROOT
ATOM      1  N   UNK d   1      22.703   9.647  30.249  0.00  0.00    -0.175 N 
ATOM      2  C   UNK d   1      21.776   9.721  31.258  0.00  0.00     0.079 A 
ATOM      3  C   UNK d   1      21.876  10.976  31.784  0.00  0.00     0.079 A 
ATOM      4  C   UNK d   1      21.045  11.342  32.848  0.00  0.00     0.032 A 
ATOM      5  C   UNK d   1      20.139  10.431  33.347  0.00  0.00     0.002 A 
ATOM      6  C   UNK d   1      20.035   9.163  32.817  0.00  0.00     0.002 A 
ATOM      7  C   UNK d   1      20.870   8.808  31.754  0.00  0.00     0.032 A 
ATOM      8  N   UNK d   1      22.838  11.635  31.101  0.00  0.00    -0.179 N 
ATOM      9  C   UNK d   1      23.351  10.840  30.160  0.00  0.00     0.681 A 
ENDROOT
BRANCH   1  10
ATOM     10  C   UNK d   1      22.880   8.496  29.391  0.00  0.00     0.216 C 
BRANCH  10  11
ATOM     11  C   UNK d   1      23.994   7.624  29.786  0.00  0.00     0.113 C 
ATOM     12  O   UNK d   1      25.195   8.063  29.487  0.00  0.00    -0.194 OA
BRANCH  11  13
ATOM     13  C   UNK d   1      23.995   6.349  30.457  0.00  0.00    -0.001 A 
ATOM     14  C   UNK d   1      25.093   5.574  30.698  0.00  0.00     0.033 A 
ATOM     15  C   UNK d   1      25.018   4.380  31.356  0.00  0.00     0.011 A 
ATOM     16 Br   UNK d   1      26.605   3.321  31.681  0.00  0.00    -0.051 Br
ATOM     17  C   UNK d   1      23.798   3.923  31.800  0.00  0.00     0.019 A 
ATOM     18  C   UNK d   1      22.655   4.659  31.588  0.00  0.00     0.002 A 
ATOM     19  C   UNK d   1      22.771   5.850  30.926  0.00  0.00     0.014 A 
ENDBRANCH  11  13
ENDBRANCH  10  11
ENDBRANCH   1  10
BRANCH   9  20
ATOM     20  N   UNK d   1      24.241  11.189  29.258  0.00  0.00    -0.234 N 
ATOM     21  H   UNK d   1      24.697  12.097  29.245  0.00  0.00     0.174 HD
ATOM     22  H   UNK d   1      24.465  10.520  28.508  0.00  0.00     0.174 HD
ENDBRANCH   9  20
BRANCH   8  23
ATOM     23  C   UNK d   1      23.166  13.021  31.387  0.00  0.00     0.178 C 
BRANCH  23  24
ATOM     24  C   UNK d   1      22.301  14.033  30.757  0.00  0.00     0.293 C 
BRANCH  24  25
ATOM     25  N   UNK d   1      21.291  14.664  31.527  0.00  0.00     0.094 N 
ATOM     26  C   UNK d   1      20.914  15.967  30.920  0.00  0.00     0.298 C 
ATOM     27  C   UNK d   1      22.091  16.869  30.750  0.00  0.00     0.198 C 
ATOM     28  O   UNK d   1      22.517  17.228  32.030  0.00  0.00    -0.388 OA
ATOM     29  C   UNK d   1      22.841  16.130  32.787  0.00  0.00     0.198 C 
ATOM     30  C   UNK d   1      21.776  15.069  32.857  0.00  0.00     0.298 C 
ENDBRANCH  24  25
ENDBRANCH  23  24
ENDBRANCH   8  23
TORSDOF 7
ENDMDL
