/Users/jonathanwahrer/Desktop/Msc/3_Semester/Drug_Design_Praktikum/waehrer_HTS_screening/HTS_experiment/out/docking_results/vina_output/3elj/1315_docked.pdbqt
 OpenBabel03192218163D

 30 33  0  0  1  0  0  0  0  0999 V2000
   22.7030    9.6470   30.2490 N   0  0  0  0  0  0  0  0  0  0  0  0
   21.7760    9.7210   31.2580 C   0  0  0  0  0  0  0  0  0  0  0  0
   21.8760   10.9760   31.7840 C   0  0  0  0  0  0  0  0  0  0  0  0
   21.0450   11.3420   32.8480 C   0  0  0  0  0  3  0  0  0  0  0  0
   20.1390   10.4310   33.3470 C   0  0  0  0  0  3  0  0  0  0  0  0
   20.0350    9.1630   32.8170 C   0  0  0  0  0  3  0  0  0  0  0  0
   20.8700    8.8080   31.7540 C   0  0  0  0  0  3  0  0  0  0  0  0
   22.8380   11.6350   31.1010 N   0  0  0  0  0  0  0  0  0  0  0  0
   23.3510   10.8400   30.1600 C   0  0  2  0  0  3  0  0  0  0  0  0
   22.8800    8.4960   29.3910 C   0  0  0  0  0  2  0  0  0  0  0  0
   23.9940    7.6240   29.7860 C   0  0  1  0  0  3  0  0  0  0  0  0
   25.1950    8.0630   29.4870 O   0  0  0  0  0  1  0  0  0  0  0  0
   23.9950    6.3490   30.4570 C   0  0  0  0  0  0  0  0  0  0  0  0
   25.0930    5.5740   30.6980 C   0  0  0  0  0  3  0  0  0  0  0  0
   25.0180    4.3800   31.3560 C   0  0  0  0  0  0  0  0  0  0  0  0
   26.6050    3.3210   31.6810 Br  0  0  0  0  0  0  0  0  0  0  0  0
   23.7980    3.9230   31.8000 C   0  0  0  0  0  3  0  0  0  0  0  0
   22.6550    4.6590   31.5880 C   0  0  0  0  0  3  0  0  0  0  0  0
   22.7710    5.8500   30.9260 C   0  0  0  0  0  3  0  0  0  0  0  0
   24.2410   11.1890   29.2580 N   0  0  0  0  0  0  0  0  0  0  0  0
   24.6970   12.0970   29.2450 H   0  0  0  0  0  0  0  0  0  0  0  0
   24.4650   10.5200   28.5080 H   0  0  0  0  0  0  0  0  0  0  0  0
   23.1660   13.0210   31.3870 C   0  0  0  0  0  2  0  0  0  0  0  0
   22.3010   14.0330   30.7570 C   0  0  0  0  0  2  0  0  0  0  0  0
   21.2910   14.6640   31.5270 N   0  0  0  0  0  0  0  0  0  0  0  0
   20.9140   15.9670   30.9200 C   0  0  0  0  0  2  0  0  0  0  0  0
   22.0910   16.8690   30.7500 C   0  0  0  0  0  2  0  0  0  0  0  0
   22.5170   17.2280   32.0300 O   0  0  0  0  0  0  0  0  0  0  0  0
   22.8410   16.1300   32.7870 C   0  0  0  0  0  2  0  0  0  0  0  0
   21.7760   15.0690   32.8570 C   0  0  0  0  0  2  0  0  0  0  0  0
  1  2  1  0  0  0  0
  2  7  2  0  0  0  0
  2  3  1  0  0  0  0
  3  4  2  0  0  0  0
  4  5  1  0  0  0  0
  6  5  2  0  0  0  0
  7  6  1  0  0  0  0
  8 23  1  0  0  0  0
  8  3  1  0  0  0  0
  9 20  1  6  0  0  0
  9  1  1  0  0  0  0
  9  8  1  0  0  0  0
 10 11  1  0  0  0  0
 10  1  1  0  0  0  0
 11 12  1  1  0  0  0
 11 13  1  0  0  0  0
 13 14  2  0  0  0  0
 13 19  1  0  0  0  0
 14 15  1  0  0  0  0
 15 16  1  0  0  0  0
 15 17  2  0  0  0  0
 18 17  1  0  0  0  0
 19 18  2  0  0  0  0
 21 20  1  0  0  0  0
 22 20  1  0  0  0  0
 24 23  1  0  0  0  0
 24 25  1  0  0  0  0
 25 30  1  0  0  0  0
 26 25  1  0  0  0  0
 27 26  1  0  0  0  0
 27 28  1  0  0  0  0
 28 29  1  0  0  0  0
 29 30  1  0  0  0  0
M  END
>  <Pose>
1

>  <Score>
-8.411

$$$$
