MODEL 1
REMARK VINA RESULT:   -10.147      0.000      0.000
REMARK INTER + INTRA:         -12.454
REMARK INTER:                 -11.927
REMARK INTRA:                  -0.528
REMARK UNBOUND:                -0.528
REMARK  3 active torsions:
REMARK  status: ('A' for Active; 'I' for Inactive)
REMARK    1  A    between atoms: C_4  and  C_8 
REMARK    2  A    between atoms: C_16  and  C_17 
REMARK    3  A    between atoms: C_17  and  N_18 
ROOT
ATOM      1  C   UNK d   1      21.275   5.503  31.857  0.00  0.00     0.053 C 
ATOM      2  C   UNK d   1      20.831   6.713  32.199  0.00  0.00     0.127 A 
ATOM      3  O   UNK d   1      21.491   7.929  32.034  0.00  0.00    -0.305 OA
ATOM      4  C   UNK d   1      20.724   8.963  32.496  0.00  0.00     0.101 A 
ATOM      5  C   UNK d   1      19.517   8.483  32.991  0.00  0.00     0.051 A 
ATOM      6  C   UNK d   1      18.606   9.396  33.498  0.00  0.00     0.021 A 
ATOM      7  C   UNK d   1      18.902  10.740  33.502  0.00  0.00     0.041 A 
ATOM      8  C   UNK d   1      20.126  11.186  32.997  0.00  0.00     0.118 A 
ATOM      9  C   UNK d   1      21.045  10.305  32.491  0.00  0.00     0.039 A 
ATOM     10  O   UNK d   1      20.329  12.556  33.046  0.00  0.00    -0.191 OA
ATOM     11  C   UNK d   1      19.544   7.020  32.818  0.00  0.00     0.218 A 
ATOM     12  O   UNK d   1      18.618   6.240  33.159  0.00  0.00    -0.284 OA
ENDROOT
BRANCH   9  13
ATOM     13  C   UNK d   1      22.343  10.814  32.047  0.00  0.00     0.279 C 
BRANCH  13  14
ATOM     14  N   UNK d   1      22.477  11.080  30.661  0.00  0.00    -0.064 N 
ATOM     15  C   UNK d   1      23.633  10.350  30.166  0.00  0.00     0.265 C 
ATOM     16  C   UNK d   1      24.454  11.073  29.155  0.00  0.00     0.299 C 
ATOM     17  N   UNK d   1      24.814  12.403  29.499  0.00  0.00     0.087 N 
ATOM     18  C   UNK d   1      24.045  12.898  30.593  0.00  0.00     0.299 C 
ATOM     19  C   UNK d   1      24.722  13.255  28.333  0.00  0.00     0.310 C 
ATOM     20  C   UNK d   1      22.617  12.498  30.431  0.00  0.00     0.265 C 
ATOM     21  H   UNK d   1      21.617  10.798  30.102  0.00  0.00     0.280 HD
ENDBRANCH  13  14
ENDBRANCH   9  13
BRANCH   1  22
ATOM     22  C   UNK d   1      22.574   5.329  31.237  0.00  0.00    -0.032 A 
ATOM     23  C   UNK d   1      23.464   4.388  31.705  0.00  0.00     0.030 A 
ATOM     24  C   UNK d   1      24.713   4.241  31.110  0.00  0.00     0.011 A 
ATOM     25 Br   UNK d   1      25.952   2.941  31.765  0.00  0.00    -0.051 Br
ATOM     26  C   UNK d   1      25.065   5.047  30.038  0.00  0.00     0.019 A 
ATOM     27  C   UNK d   1      24.149   5.976  29.601  0.00  0.00     0.002 A 
ATOM     28  C   UNK d   1      22.910   6.134  30.176  0.00  0.00     0.011 A 
ENDBRANCH   1  22
TORSDOF 3
ENDMDL
