/Users/jonathanwahrer/Desktop/Msc/3_Semester/Drug_Design_Praktikum/waehrer_HTS_screening/HTS_experiment/out/docking_results/vina_output/3elj/1329_docked.pdbqt
 OpenBabel03192218163D

 28 31  0  0  0  0  0  0  0  0999 V2000
   21.2750    5.5030   31.8570 C   0  0  0  0  0  3  0  0  0  0  0  0
   20.8310    6.7130   32.1990 C   0  0  0  0  0  0  0  0  0  0  0  0
   21.4910    7.9290   32.0340 O   0  0  0  0  0  0  0  0  0  0  0  0
   20.7240    8.9630   32.4960 C   0  0  0  0  0  0  0  0  0  0  0  0
   19.5170    8.4830   32.9910 C   0  0  0  0  0  0  0  0  0  0  0  0
   18.6060    9.3960   33.4980 C   0  0  0  0  0  3  0  0  0  0  0  0
   18.9020   10.7400   33.5020 C   0  0  0  0  0  3  0  0  0  0  0  0
   20.1260   11.1860   32.9970 C   0  0  0  0  0  0  0  0  0  0  0  0
   21.0450   10.3050   32.4910 C   0  0  0  0  0  0  0  0  0  0  0  0
   20.3290   12.5560   33.0460 O   0  0  0  0  0  1  0  0  0  0  0  0
   19.5440    7.0200   32.8180 C   0  0  0  0  0  0  0  0  0  0  0  0
   18.6180    6.2400   33.1590 O   0  0  0  0  0  0  0  0  0  0  0  0
   22.3430   10.8140   32.0470 C   0  0  0  0  0  2  0  0  0  0  0  0
   22.4770   11.0800   30.6610 N   0  0  0  0  0  4  0  0  0  0  0  0
   23.6330   10.3500   30.1660 C   0  0  0  0  0  2  0  0  0  0  0  0
   24.4540   11.0730   29.1550 C   0  0  0  0  0  2  0  0  0  0  0  0
   24.8140   12.4030   29.4990 N   0  0  0  0  0  0  0  0  0  0  0  0
   24.0450   12.8980   30.5930 C   0  0  0  0  0  2  0  0  0  0  0  0
   24.7220   13.2550   28.3330 C   0  0  0  0  0  1  0  0  0  0  0  0
   22.6170   12.4980   30.4310 C   0  0  0  0  0  2  0  0  0  0  0  0
   21.6170   10.7980   30.1020 H   0  0  0  0  0  0  0  0  0  0  0  0
   22.5740    5.3290   31.2370 C   0  0  0  0  0  0  0  0  0  0  0  0
   23.4640    4.3880   31.7050 C   0  0  0  0  0  3  0  0  0  0  0  0
   24.7130    4.2410   31.1100 C   0  0  0  0  0  0  0  0  0  0  0  0
   25.9520    2.9410   31.7650 Br  0  0  0  0  0  0  0  0  0  0  0  0
   25.0650    5.0470   30.0380 C   0  0  0  0  0  3  0  0  0  0  0  0
   24.1490    5.9760   29.6010 C   0  0  0  0  0  3  0  0  0  0  0  0
   22.9100    6.1340   30.1760 C   0  0  0  0  0  3  0  0  0  0  0  0
  1  2  2  0  0  0  0
  2 11  1  0  0  0  0
  3  2  1  0  0  0  0
  3  4  1  0  0  0  0
  4  5  1  0  0  0  0
  5  6  2  0  0  0  0
  6  7  1  0  0  0  0
  8 10  1  0  0  0  0
  8  7  2  0  0  0  0
  9  4  2  0  0  0  0
  9  8  1  0  0  0  0
 11  5  1  0  0  0  0
 11 12  2  0  0  0  0
 13  9  1  0  0  0  0
 14 13  1  0  0  0  0
 15 14  1  0  0  0  0
 16 17  1  0  0  0  0
 16 15  1  0  0  0  0
 17 18  1  0  0  0  0
 19 17  1  0  0  0  0
 20 18  1  0  0  0  0
 20 14  1  0  0  0  0
 21 14  1  0  0  0  0
 22 23  1  0  0  0  0
 22  1  1  0  0  0  0
 24 23  2  0  0  0  0
 24 25  1  0  0  0  0
 26 24  1  0  0  0  0
 27 26  2  0  0  0  0
 27 28  1  0  0  0  0
 28 22  2  0  0  0  0
M  END
>  <Pose>
1

>  <Score>
-10.147

$$$$
