MODEL 1
REMARK VINA RESULT:    -8.397      0.000      0.000
REMARK INTER + INTRA:         -11.270
REMARK INTER:                 -10.360
REMARK INTRA:                  -0.910
REMARK UNBOUND:                -0.910
REMARK  4 active torsions:
REMARK  status: ('A' for Active; 'I' for Inactive)
REMARK    1  A    between atoms: C_5  and  N_8 
REMARK       I    between atoms: N_8  and  C_9 
REMARK    2  A    between atoms: C_9  and  C_11 
REMARK    3  A    between atoms: C_11  and  N_12 
REMARK       I    between atoms: N_12  and  C_13 
REMARK    4  A    between atoms: C_13  and  C_15 
ROOT
ATOM      1  C   UNK d   1      24.917  11.480  30.756  0.00  0.00     0.248 C 
ATOM      2  O   UNK d   1      24.571  10.324  31.347  0.00  0.00    -0.341 OA
ATOM      3  C   UNK d   1      23.479  10.307  32.157  0.00  0.00     0.296 C 
ATOM      4  O   UNK d   1      23.119   8.967  32.359  0.00  0.00    -0.323 OA
ATOM      5  C   UNK d   1      22.251   8.616  31.354  0.00  0.00     0.160 C 
ATOM      6  O   UNK d   1      21.897   9.753  30.656  0.00  0.00    -0.343 OA
ATOM      7  C   UNK d   1      22.226  10.838  31.501  0.00  0.00     0.212 C 
ATOM      8  C   UNK d   1      22.466  12.088  30.745  0.00  0.00     0.191 C 
ATOM      9  O   UNK d   1      21.872  13.200  31.385  0.00  0.00    -0.345 OA
ATOM     10  C   UNK d   1      22.771  14.235  31.329  0.00  0.00     0.158 C 
ATOM     11  O   UNK d   1      23.997  13.624  31.344  0.00  0.00    -0.345 OA
ATOM     12  C   UNK d   1      23.859  12.493  30.526  0.00  0.00     0.195 C 
ATOM     13  C   UNK d   1      22.551  15.082  32.589  0.00  0.00     0.078 C 
ATOM     14  C   UNK d   1      22.553  15.158  30.159  0.00  0.00     0.078 C 
ATOM     15  C   UNK d   1      20.954   8.019  31.902  0.00  0.00     0.078 C 
ATOM     16  C   UNK d   1      22.837   7.573  30.416  0.00  0.00     0.078 C 
ENDROOT
BRANCH   1  17
ATOM     17  C   UNK d   1      25.647  11.176  29.497  0.00  0.00     0.249 C 
ATOM     18  N   UNK d   1      27.030  10.870  29.536  0.00  0.00    -0.350 N 
ATOM     19  H   UNK d   1      27.505  10.866  30.464  0.00  0.00     0.163 HD
ATOM     20  O   UNK d   1      25.078  11.180  28.372  0.00  0.00    -0.271 OA
BRANCH  18  21
ATOM     21  C   UNK d   1      27.809  10.566  28.373  0.00  0.00     0.225 C 
BRANCH  21  22
ATOM     22  C   UNK d   1      27.683   9.132  28.006  0.00  0.00     0.239 C 
ATOM     23  N   UNK d   1      27.464   8.121  28.959  0.00  0.00    -0.326 N 
ATOM     24  H   UNK d   1      27.396   8.462  29.972  0.00  0.00     0.169 HD
ATOM     25  O   UNK d   1      27.781   8.859  26.793  0.00  0.00    -0.271 OA
BRANCH  23  26
ATOM     26  C   UNK d   1      27.328   6.751  28.762  0.00  0.00     0.034 A 
ATOM     27  C   UNK d   1      26.074   6.225  28.484  0.00  0.00     0.031 A 
ATOM     28  C   UNK d   1      25.836   4.886  28.274  0.00  0.00     0.021 A 
ATOM     29  C   UNK d   1      26.882   3.992  28.336  0.00  0.00     0.011 A 
ATOM     30 Br   UNK d   1      26.523   2.134  28.039  0.00  0.00    -0.051 Br
ATOM     31  C   UNK d   1      28.127   4.463  28.605  0.00  0.00     0.021 A 
ATOM     32  C   UNK d   1      28.351   5.832  28.817  0.00  0.00     0.031 A 
ENDBRANCH  23  26
ENDBRANCH  21  22
ENDBRANCH  18  21
ENDBRANCH   1  17
TORSDOF 4
ENDMDL
