/Users/jonathanwahrer/Desktop/Msc/3_Semester/Drug_Design_Praktikum/waehrer_HTS_screening/HTS_experiment/out/docking_results/vina_output/3elj/1337_docked.pdbqt
 OpenBabel03192218173D

 32 35  0  0  1  0  0  0  0  0999 V2000
   24.9170   11.4800   30.7560 C   0  0  2  0  0  3  0  0  0  0  0  0
   24.5710   10.3240   31.3470 O   0  0  0  0  0  0  0  0  0  0  0  0
   23.4790   10.3070   32.1570 C   0  0  2  0  0  3  0  0  0  0  0  0
   23.1190    8.9670   32.3590 O   0  0  0  0  0  0  0  0  0  0  0  0
   22.2510    8.6160   31.3540 C   0  0  0  0  0  0  0  0  0  0  0  0
   21.8970    9.7530   30.6560 O   0  0  0  0  0  0  0  0  0  0  0  0
   22.2260   10.8380   31.5010 C   0  0  2  0  0  3  0  0  0  0  0  0
   22.4660   12.0880   30.7450 C   0  0  1  0  0  3  0  0  0  0  0  0
   21.8720   13.2000   31.3850 O   0  0  0  0  0  0  0  0  0  0  0  0
   22.7710   14.2350   31.3290 C   0  0  0  0  0  0  0  0  0  0  0  0
   23.9970   13.6240   31.3440 O   0  0  0  0  0  0  0  0  0  0  0  0
   23.8590   12.4930   30.5260 C   0  0  1  0  0  3  0  0  0  0  0  0
   22.5510   15.0820   32.5890 C   0  0  0  0  0  1  0  0  0  0  0  0
   22.5530   15.1580   30.1590 C   0  0  0  0  0  1  0  0  0  0  0  0
   20.9540    8.0190   31.9020 C   0  0  0  0  0  1  0  0  0  0  0  0
   22.8370    7.5730   30.4160 C   0  0  0  0  0  1  0  0  0  0  0  0
   25.6470   11.1760   29.4970 C   0  0  0  0  0  0  0  0  0  0  0  0
   27.0300   10.8700   29.5360 N   0  0  0  0  0  0  0  0  0  0  0  0
   27.5050   10.8660   30.4640 H   0  0  0  0  0  0  0  0  0  0  0  0
   25.0780   11.1800   28.3720 O   0  0  0  0  0  0  0  0  0  0  0  0
   27.8090   10.5660   28.3730 C   0  0  0  0  0  2  0  0  0  0  0  0
   27.6830    9.1320   28.0060 C   0  0  0  0  0  0  0  0  0  0  0  0
   27.4640    8.1210   28.9590 N   0  0  0  0  0  0  0  0  0  0  0  0
   27.3960    8.4620   29.9720 H   0  0  0  0  0  0  0  0  0  0  0  0
   27.7810    8.8590   26.7930 O   0  0  0  0  0  0  0  0  0  0  0  0
   27.3280    6.7510   28.7620 C   0  0  0  0  0  0  0  0  0  0  0  0
   26.0740    6.2250   28.4840 C   0  0  0  0  0  3  0  0  0  0  0  0
   25.8360    4.8860   28.2740 C   0  0  0  0  0  3  0  0  0  0  0  0
   26.8820    3.9920   28.3360 C   0  0  0  0  0  0  0  0  0  0  0  0
   26.5230    2.1340   28.0390 Br  0  0  0  0  0  0  0  0  0  0  0  0
   28.1270    4.4630   28.6050 C   0  0  0  0  0  3  0  0  0  0  0  0
   28.3510    5.8320   28.8170 C   0  0  0  0  0  3  0  0  0  0  0  0
  1 17  1  6  0  0  0
  1  2  1  0  0  0  0
  3  2  1  6  0  0  0
  3  4  1  0  0  0  0
  5 15  1  0  0  0  0
  5  4  1  0  0  0  0
  6  5  1  0  0  0  0
  7  6  1  6  0  0  0
  7  3  1  0  0  0  0
  8  9  1  1  0  0  0
  8  7  1  0  0  0  0
 10 11  1  0  0  0  0
 10  9  1  0  0  0  0
 10 13  1  0  0  0  0
 12  8  1  0  0  0  0
 12  1  1  0  0  0  0
 12 11  1  1  0  0  0
 14 10  1  0  0  0  0
 16  5  1  0  0  0  0
 17 18  1  0  0  0  0
 18 19  1  0  0  0  0
 20 17  2  0  0  0  0
 21 18  1  0  0  0  0
 22 21  1  0  0  0  0
 22 23  1  0  0  0  0
 23 24  1  0  0  0  0
 25 22  2  0  0  0  0
 26 32  1  0  0  0  0
 26 23  1  0  0  0  0
 27 26  2  0  0  0  0
 28 29  2  0  0  0  0
 28 27  1  0  0  0  0
 29 31  1  0  0  0  0
 30 29  1  0  0  0  0
 31 32  2  0  0  0  0
M  END
>  <Pose>
1

>  <Score>
-8.397

$$$$
