MODEL 1
REMARK VINA RESULT:    -8.901      0.000      0.000
REMARK INTER + INTRA:         -12.157
REMARK INTER:                 -11.502
REMARK INTRA:                  -0.655
REMARK UNBOUND:                -0.655
REMARK  5 active torsions:
REMARK  status: ('A' for Active; 'I' for Inactive)
REMARK    1  A    between atoms: C_5  and  C_8 
REMARK    2  A    between atoms: N_11  and  C_13 
REMARK    3  A    between atoms: C_13  and  C_14 
REMARK       I    between atoms: C_14  and  N_16 
REMARK    4  A    between atoms: N_16  and  C_17 
REMARK    5  A    between atoms: C_20  and  C_23 
ROOT
ATOM      1  C   UNK d   1      21.935  10.319  31.472  0.00  0.00     0.061 A 
ATOM      2  N   UNK d   1      21.160   9.392  32.082  0.00  0.00    -0.335 N 
ATOM      3  C   UNK d   1      21.461   8.179  31.575  0.00  0.00     0.086 A 
ATOM      4  N   UNK d   1      22.425   8.290  30.636  0.00  0.00    -0.336 N 
ATOM      5  C   UNK d   1      22.710   9.611  30.581  0.00  0.00     0.123 A 
ATOM      6  C   UNK d   1      20.625   7.140  32.229  0.00  0.00     0.078 A 
ATOM      7  C   UNK d   1      19.700   7.865  33.143  0.00  0.00     0.028 A 
ATOM      8  C   UNK d   1      20.126   9.285  33.088  0.00  0.00     0.131 A 
ENDROOT
BRANCH   4   9
ATOM      9  C   UNK d   1      23.040   7.242  29.846  0.00  0.00     0.232 C 
BRANCH   9  10
ATOM     10  C   UNK d   1      23.799   6.317  30.735  0.00  0.00     0.240 C 
ATOM     11  O   UNK d   1      24.792   6.759  31.315  0.00  0.00    -0.271 OA
ATOM     12  N   UNK d   1      23.338   5.004  30.856  0.00  0.00    -0.326 N 
ATOM     13  H   UNK d   1      22.465   4.673  30.325  0.00  0.00     0.169 HD
BRANCH  12  14
ATOM     14  C   UNK d   1      23.942   4.007  31.665  0.00  0.00     0.034 A 
ATOM     15  C   UNK d   1      23.256   3.550  32.798  0.00  0.00     0.030 A 
ATOM     16  C   UNK d   1      23.812   2.610  33.605  0.00  0.00     0.009 A 
ATOM     17  C   UNK d   1      25.063   2.079  33.334  0.00  0.00    -0.058 A 
ATOM     18  C   UNK d   1      25.724   2.531  32.228  0.00  0.00     0.009 A 
ATOM     19  C   UNK d   1      25.177   3.499  31.377  0.00  0.00     0.030 A 
BRANCH  17  20
ATOM     20  C   UNK d   1      25.651   1.051  34.230  0.00  0.00     0.034 C 
ATOM     21  C   UNK d   1      24.894   1.092  35.562  0.00  0.00     0.010 C 
ENDBRANCH  17  20
ENDBRANCH  12  14
ENDBRANCH   9  10
ENDBRANCH   4   9
BRANCH   1  22
ATOM     22  C   UNK d   1      21.990  11.767  31.665  0.00  0.00    -0.008 A 
ATOM     23  C   UNK d   1      23.117  12.487  31.318  0.00  0.00     0.015 A 
ATOM     24  C   UNK d   1      23.196  13.857  31.492  0.00  0.00     0.024 A 
ATOM     25  C   UNK d   1      22.143  14.571  32.021  0.00  0.00     0.034 A 
ATOM     26 Cl   UNK d   1      22.236  16.313  32.244  0.00  0.00    -0.084 Cl
ATOM     27  C   UNK d   1      21.011  13.866  32.373  0.00  0.00     0.024 A 
ATOM     28  C   UNK d   1      20.935  12.480  32.196  0.00  0.00     0.015 A 
ENDBRANCH   1  22
TORSDOF 5
ENDMDL
