MODEL 1
REMARK VINA RESULT:    -8.412      0.000      0.000
REMARK INTER + INTRA:         -14.571
REMARK INTER:                 -13.084
REMARK INTRA:                  -1.487
REMARK UNBOUND:                -1.487
REMARK  12 active torsions:
REMARK  status: ('A' for Active; 'I' for Inactive)
REMARK    1  A    between atoms: C_3  and  C_12 
REMARK    2  A    between atoms: C_5  and  O_10 
REMARK    3  A    between atoms: C_6  and  O_8 
REMARK    4  A    between atoms: N_13  and  N_14 
REMARK    5  A    between atoms: N_14  and  C_15 
REMARK    6  A    between atoms: N_16  and  C_26 
REMARK    7  A    between atoms: C_19  and  N_25 
REMARK    8  A    between atoms: C_21  and  O_24 
REMARK    9  A    between atoms: C_28  and  C_33 
REMARK   10  A    between atoms: C_29  and  O_32 
REMARK   11  A    between atoms: C_30  and  O_31 
REMARK   12  A    between atoms: C_33  and  O_34 
ROOT
ATOM      1  C   UNK d   1      23.879  13.532  29.755  0.00  0.00     0.727 A 
ATOM      2  N   UNK d   1      24.284  14.192  28.640  0.00  0.00    -0.130 N 
ATOM      3  C   UNK d   1      23.692  15.414  28.619  0.00  0.00     0.201 A 
ATOM      4  N   UNK d   1      23.729  16.454  27.778  0.00  0.00    -0.042 NA
ATOM      5  C   UNK d   1      23.026  17.580  27.999  0.00  0.00     0.724 A 
ATOM      6  N   UNK d   1      22.258  17.663  29.108  0.00  0.00    -0.036 NA
ATOM      7  C   UNK d   1      22.173  16.670  29.986  0.00  0.00     0.215 A 
ATOM      8  C   UNK d   1      22.897  15.518  29.754  0.00  0.00     0.176 A 
ATOM      9  N   UNK d   1      23.041  14.373  30.398  0.00  0.00    -0.055 NA
ENDROOT
BRANCH   1  10
ATOM     10  N   UNK d   1      24.273  12.222  30.146  0.00  0.00    -0.107 N 
ATOM     11  H   UNK d   1      25.276  11.986  30.190  0.00  0.00     0.208 HD
BRANCH  10  12
ATOM     12  N   UNK d   1      23.253  11.303  30.461  0.00  0.00    -0.172 NA
ATOM     13  C   UNK d   1      23.050  10.847  31.628  0.00  0.00     0.152 C 
BRANCH  13  14
ATOM     14  C   UNK d   1      22.003   9.896  31.983  0.00  0.00     0.003 A 
ATOM     15  C   UNK d   1      20.829  10.317  32.569  0.00  0.00     0.025 A 
ATOM     16 Br   UNK d   1      20.596  12.173  32.910  0.00  0.00    -0.050 Br
ATOM     17  C   UNK d   1      19.822   9.411  32.913  0.00  0.00     0.059 A 
ATOM     18  C   UNK d   1      19.967   8.060  32.677  0.00  0.00     0.102 A 
ATOM     19  C   UNK d   1      21.142   7.639  32.091  0.00  0.00     0.102 A 
ATOM     20  C   UNK d   1      22.129   8.542  31.755  0.00  0.00     0.054 A 
BRANCH  18  21
ATOM     21  O   UNK d   1      18.972   7.141  33.013  0.00  0.00    -0.353 OA
ATOM     22  C   UNK d   1      17.611   7.374  32.808  0.00  0.00     0.210 C 
ENDBRANCH  18  21
BRANCH  19  23
ATOM     23  O   UNK d   1      21.277   6.274  31.857  0.00  0.00    -0.353 OA
ATOM     24  C   UNK d   1      22.202   5.708  30.984  0.00  0.00     0.210 C 
ENDBRANCH  19  23
ENDBRANCH  13  14
ENDBRANCH  10  12
ENDBRANCH   1  10
BRANCH   2  25
ATOM     25  C   UNK d   1      25.184  13.681  27.653  0.00  0.00     0.279 C 
ATOM     26  O   UNK d   1      25.513  12.344  27.827  0.00  0.00    -0.353 OA
ATOM     27  C   UNK d   1      26.697  12.100  27.193  0.00  0.00     0.179 C 
ATOM     28  C   UNK d   1      27.345  13.389  26.817  0.00  0.00     0.182 C 
ATOM     29  C   UNK d   1      26.515  14.404  27.606  0.00  0.00     0.199 C 
BRANCH  27  30
ATOM     30  C   UNK d   1      27.626  11.381  28.172  0.00  0.00     0.198 C 
BRANCH  30  31
ATOM     31  O   UNK d   1      27.107  11.462  29.469  0.00  0.00    -0.398 OA
ATOM     32  H   UNK d   1      27.766  11.853  30.098  0.00  0.00     0.209 HD
ENDBRANCH  30  31
ENDBRANCH  27  30
BRANCH  28  33
ATOM     33  O   UNK d   1      27.097  13.683  25.460  0.00  0.00    -0.390 OA
ATOM     34  H   UNK d   1      27.917  13.958  24.996  0.00  0.00     0.210 HD
ENDBRANCH  28  33
BRANCH  29  35
ATOM     35  O   UNK d   1      26.426  15.611  26.913  0.00  0.00    -0.388 OA
ATOM     36  H   UNK d   1      25.697  15.563  26.242  0.00  0.00     0.210 HD
ENDBRANCH  29  35
ENDBRANCH   2  25
BRANCH   7  37
ATOM     37  O   UNK d   1      21.388  16.727  31.142  0.00  0.00    -0.343 OA
ATOM     38  H   UNK d   1      21.472  15.941  31.776  0.00  0.00     0.219 HD
ENDBRANCH   7  37
BRANCH   5  39
ATOM     39  N   UNK d   1      23.078  18.686  27.086  0.00  0.00    -0.231 N 
ATOM     40  H   UNK d   1      23.827  18.838  26.403  0.00  0.00     0.174 HD
ATOM     41  H   UNK d   1      22.291  19.367  27.140  0.00  0.00     0.174 HD
ENDBRANCH   5  39
TORSDOF 12
ENDMDL
