MODEL 1
REMARK VINA RESULT:    -8.793      0.000      0.000
REMARK INTER + INTRA:         -11.503
REMARK INTER:                 -10.849
REMARK INTRA:                  -0.654
REMARK UNBOUND:                -0.654
REMARK  4 active torsions:
REMARK  status: ('A' for Active; 'I' for Inactive)
REMARK    1  A    between atoms: C_3  and  C_8 
REMARK    2  A    between atoms: C_11  and  C_13 
REMARK    3  A    between atoms: C_13  and  N_14 
REMARK       I    between atoms: N_14  and  C_15 
REMARK    4  A    between atoms: C_15  and  C_17 
ROOT
ATOM      1  N   UNK d   1      25.713  12.976  28.138  0.00  0.00    -0.353 N 
ATOM      2  C   UNK d   1      26.689  13.261  27.166  0.00  0.00     0.229 C 
ATOM      3  O   UNK d   1      27.106  12.344  26.425  0.00  0.00    -0.273 OA
ATOM      4  H   UNK d   1      25.370  13.743  28.750  0.00  0.00     0.162 HD
ENDROOT
BRANCH   1   5
ATOM      5  C   UNK d   1      25.179  11.637  28.301  0.00  0.00     0.211 C 
BRANCH   5   6
ATOM      6  C   UNK d   1      24.613  11.466  29.688  0.00  0.00     0.190 A 
ATOM      7  O   UNK d   1      25.208  11.696  30.831  0.00  0.00    -0.194 OA
ATOM      8  N   UNK d   1      24.386  11.429  31.824  0.00  0.00    -0.105 NA
ATOM      9  C   UNK d   1      23.210  11.008  31.329  0.00  0.00     0.191 A 
ATOM     10  N   UNK d   1      23.369  11.038  29.994  0.00  0.00    -0.202 NA
BRANCH   9  11
ATOM     11  C   UNK d   1      22.023  10.607  32.076  0.00  0.00     0.036 A 
ATOM     12  C   UNK d   1      21.069  11.513  32.489  0.00  0.00     0.048 A 
ATOM     13 Cl   UNK d   1      21.318  13.195  32.090  0.00  0.00    -0.083 Cl
ATOM     14  C   UNK d   1      19.936  11.136  33.202  0.00  0.00     0.025 A 
ATOM     15  C   UNK d   1      19.731   9.817  33.521  0.00  0.00     0.002 A 
ATOM     16  C   UNK d   1      20.687   8.881  33.109  0.00  0.00     0.001 A 
ATOM     17  C   UNK d   1      21.797   9.292  32.406  0.00  0.00     0.017 A 
ENDBRANCH   9  11
ENDBRANCH   5   6
ENDBRANCH   1   5
BRANCH   2  18
ATOM     18  C   UNK d   1      27.217  14.626  27.019  0.00  0.00     0.151 C 
ATOM     19  C   UNK d   1      28.655  14.633  26.534  0.00  0.00     0.022 C 
ATOM     20  C   UNK d   1      29.113  16.015  26.208  0.00  0.00     0.003 C 
ATOM     21  C   UNK d   1      28.916  16.428  24.786  0.00  0.00     0.022 C 
ATOM     22  C   UNK d   1      27.728  15.723  24.139  0.00  0.00     0.154 C 
ATOM     23  N   UNK d   1      26.574  15.971  24.971  0.00  0.00    -0.234 N 
ATOM     24  N   UNK d   1      25.564  16.714  24.604  0.00  0.00    -0.044 NA
ATOM     25  C   UNK d   1      26.358  15.500  26.206  0.00  0.00     0.161 A 
ATOM     26  N   UNK d   1      24.687  16.740  25.576  0.00  0.00    -0.023 NA
ATOM     27  N   UNK d   1      25.162  16.001  26.560  0.00  0.00    -0.113 NA
ENDBRANCH   2  18
TORSDOF 4
ENDMDL
