MODEL 1
REMARK VINA RESULT:    -7.942      0.000      0.000
REMARK INTER + INTRA:          -9.646
REMARK INTER:                 -10.728
REMARK INTRA:                   1.082
REMARK UNBOUND:                 1.082
REMARK  6 active torsions:
REMARK  status: ('A' for Active; 'I' for Inactive)
REMARK    1  A    between atoms: C_5  and  C_8 
REMARK    2  A    between atoms: C_8  and  C_10 
REMARK    3  A    between atoms: C_25  and  C_31 
REMARK    4  A    between atoms: C_26  and  C_27 
REMARK    5  A    between atoms: C_27  and  O_29 
REMARK    6  A    between atoms: C_31  and  O_33 
ROOT
ATOM      1  C   UNK d   1      24.251   6.332  31.259  0.00  0.00     0.162 C 
ATOM      2  N   UNK d   1      24.821   5.174  30.621  0.00  0.00    -0.339 N 
ATOM      3  C   UNK d   1      24.926   5.636  29.218  0.00  0.00     0.203 A 
ATOM      4  N   UNK d   1      25.636   4.638  28.515  0.00  0.00    -0.347 N 
ATOM      5  C   UNK d   1      25.844   3.540  29.408  0.00  0.00     0.143 A 
ATOM      6  C   UNK d   1      25.345   3.886  30.666  0.00  0.00     0.146 A 
ATOM      7  C   UNK d   1      25.438   2.968  31.691  0.00  0.00     0.281 A 
ATOM      8  O   UNK d   1      24.982   3.303  32.814  0.00  0.00    -0.265 OA
ATOM      9  N   UNK d   1      25.999   1.775  31.462  0.00  0.00    -0.269 N 
ATOM     10  C   UNK d   1      26.463   1.475  30.261  0.00  0.00     0.332 A 
ATOM     11  O   UNK d   1      26.984   0.339  30.088  0.00  0.00    -0.246 OA
ATOM     12  N   UNK d   1      26.400   2.342  29.205  0.00  0.00    -0.287 N 
ATOM     13  C   UNK d   1      26.941   1.890  27.943  0.00  0.00     0.163 C 
ATOM     14  C   UNK d   1      26.078   0.830  32.581  0.00  0.00     0.164 C 
ATOM     15  C   UNK d   1      26.066   4.650  27.141  0.00  0.00     0.153 C 
ATOM     16  C   UNK d   1      25.433   7.012  29.319  0.00  0.00     0.144 C 
ATOM     17  C   UNK d   1      25.294   7.367  30.806  0.00  0.00     0.132 C 
ENDROOT
BRANCH   1  18
ATOM     18  C   UNK d   1      22.963   6.680  30.705  0.00  0.00     0.118 C 
ATOM     19  O   UNK d   1      22.908   6.586  29.407  0.00  0.00    -0.194 OA
BRANCH  18  20
ATOM     20  C   UNK d   1      21.740   7.111  31.345  0.00  0.00    -0.002 A 
ATOM     21  C   UNK d   1      21.456   8.431  31.606  0.00  0.00     0.015 A 
ATOM     22  C   UNK d   1      20.286   8.757  32.246  0.00  0.00     0.020 A 
ATOM     23  C   UNK d   1      19.376   7.787  32.639  0.00  0.00     0.011 A 
ATOM     24 Br   UNK d   1      17.759   8.269  33.526  0.00  0.00    -0.051 Br
ATOM     25  C   UNK d   1      19.667   6.461  32.374  0.00  0.00     0.020 A 
ATOM     26  C   UNK d   1      20.834   6.121  31.735  0.00  0.00     0.015 A 
ENDBRANCH  18  20
ENDBRANCH   1  18
BRANCH  17  27
ATOM     27  C   UNK d   1      24.856   8.745  30.998  0.00  0.00     0.266 C 
ATOM     28  O   UNK d   1      24.879   9.264  32.164  0.00  0.00    -0.265 OA
BRANCH  27  29
ATOM     29  O   UNK d   1      24.412   9.520  29.960  0.00  0.00    -0.326 OA
ATOM     30  C   UNK d   1      25.007  10.772  29.612  0.00  0.00     0.213 C 
ENDBRANCH  27  29
ENDBRANCH  17  27
BRANCH  16  31
ATOM     31  C   UNK d   1      26.774   7.309  28.831  0.00  0.00     0.267 C 
ATOM     32  O   UNK d   1      26.941   8.200  27.958  0.00  0.00    -0.265 OA
BRANCH  31  33
ATOM     33  O   UNK d   1      27.884   6.640  29.300  0.00  0.00    -0.326 OA
ATOM     34  C   UNK d   1      29.027   6.456  28.494  0.00  0.00     0.213 C 
ENDBRANCH  31  33
ENDBRANCH  16  31
TORSDOF 6
ENDMDL
