MODEL 1
REMARK VINA RESULT:    -8.253      0.000      0.000
REMARK INTER + INTRA:         -10.358
REMARK INTER:                  -9.701
REMARK INTRA:                  -0.657
REMARK UNBOUND:                -0.657
REMARK  3 active torsions:
REMARK  status: ('A' for Active; 'I' for Inactive)
REMARK    1  A    between atoms: C_4  and  C_8 
REMARK       I    between atoms: C_8  and  N_10 
REMARK    2  A    between atoms: N_10  and  C_11 
REMARK    3  A    between atoms: C_11  and  C_13 
REMARK       I    between atoms: C_13  and  N_15 
ROOT
ATOM      1  C   UNK d   1      25.791   6.283  28.899  0.00  0.00     0.242 C 
ATOM      2  O   UNK d   1      25.974   7.480  29.204  0.00  0.00    -0.271 OA
ATOM      3  N   UNK d   1      26.451   5.730  27.796  0.00  0.00    -0.350 N 
ATOM      4  C   UNK d   1      27.597   6.179  27.081  0.00  0.00     0.129 C 
ATOM      5  C   UNK d   1      28.262   4.887  26.580  0.00  0.00     0.068 C 
ATOM      6  C   UNK d   1      28.009   3.725  27.508  0.00  0.00     0.206 C 
ATOM      7  N   UNK d   1      28.630   2.523  27.022  0.00  0.00     0.099 N 
ATOM      8  C   UNK d   1      28.255   1.430  27.931  0.00  0.00     0.277 C 
ATOM      9  C   UNK d   1      28.857   1.606  29.291  0.00  0.00     0.089 C 
ATOM     10  C   UNK d   1      28.989   3.028  29.679  0.00  0.00     0.039 A 
ATOM     11  N   UNK d   1      29.462   3.578  30.802  0.00  0.00    -0.352 N 
ATOM     12  C   UNK d   1      29.376   4.919  30.692  0.00  0.00     0.207 A 
ATOM     13  N   UNK d   1      28.844   5.186  29.492  0.00  0.00    -0.244 NA
ATOM     14  C   UNK d   1      28.584   4.056  28.817  0.00  0.00     0.097 A 
ATOM     15  C   UNK d   1      26.517   3.370  27.613  0.00  0.00     0.068 C 
ATOM     16  C   UNK d   1      25.815   4.557  27.108  0.00  0.00     0.129 C 
ATOM     17  H   UNK d   1      28.215   2.270  26.094  0.00  0.00     0.317 HD
ATOM     18  H   UNK d   1      29.849   3.125  31.659  0.00  0.00     0.166 HD
ENDROOT
BRANCH   1  19
ATOM     19  C   UNK d   1      24.866   5.481  29.757  0.00  0.00     0.173 C 
ATOM     20  C   UNK d   1      25.714   4.957  30.945  0.00  0.00     0.042 C 
BRANCH  19  21
ATOM     21  N   UNK d   1      23.838   6.264  30.399  0.00  0.00    -0.344 N 
ATOM     22  C   UNK d   1      22.656   5.591  30.909  0.00  0.00     0.252 C 
ATOM     23  O   UNK d   1      22.530   4.362  30.848  0.00  0.00    -0.268 OA
ATOM     24  H   UNK d   1      23.941   7.272  30.498  0.00  0.00     0.163 HD
BRANCH  22  25
ATOM     25  C   UNK d   1      21.620   6.464  31.487  0.00  0.00     0.033 A 
ATOM     26  C   UNK d   1      21.895   7.839  31.570  0.00  0.00     0.036 A 
ATOM     27  C   UNK d   1      21.017   8.749  32.102  0.00  0.00     0.011 A 
ATOM     28 Br   UNK d   1      21.482  10.621  32.163  0.00  0.00    -0.051 Br
ATOM     29  C   UNK d   1      19.809   8.294  32.578  0.00  0.00     0.019 A 
ATOM     30  C   UNK d   1      19.522   6.941  32.507  0.00  0.00     0.002 A 
ATOM     31  C   UNK d   1      20.422   6.028  31.967  0.00  0.00     0.017 A 
ENDBRANCH  22  25
ENDBRANCH  19  21
ENDBRANCH   1  19
TORSDOF 3
ENDMDL
