/Users/jonathanwahrer/Desktop/Msc/3_Semester/Drug_Design_Praktikum/waehrer_HTS_screening/HTS_experiment/out/docking_results/vina_output/3elj/1381_docked.pdbqt
 OpenBabel03192218193D

 31 34  0  0  0  0  0  0  0  0999 V2000
   23.7060   10.6920   31.3510 C   0  0  0  0  0  0  0  0  0  0  0  0
   24.6210   10.2470   32.0320 O   0  0  0  0  0  0  0  0  0  0  0  0
   23.8490   10.3210   29.9870 O   0  0  0  0  0  0  0  0  0  0  0  0
   22.8750    9.4770   29.4350 C   0  0  0  0  0  2  0  0  0  0  0  0
   23.3260    8.0870   29.6420 C   0  0  0  0  0  0  0  0  0  0  0  0
   24.5840    7.7370   29.3280 N   0  0  0  0  0  0  0  0  0  0  0  0
   25.0480    6.4880   29.4950 C   0  0  0  0  0  0  0  0  0  0  0  0
   24.2570    5.5300   29.9900 N   0  0  0  0  0  0  0  0  0  0  0  0
   26.3380    6.1710   29.1630 C   0  0  0  0  0  3  0  0  0  0  0  0
   24.7200    4.2670   30.1610 C   0  0  0  0  0  3  0  0  0  0  0  0
   22.9790    5.7950   30.3320 C   0  0  0  0  0  0  0  0  0  0  0  0
   26.0190    3.9280   29.8310 C   0  0  0  0  0  0  0  0  0  0  0  0
   26.6550    2.1290   30.0820 Br  0  0  0  0  0  0  0  0  0  0  0  0
   26.8460    4.8980   29.3210 C   0  0  0  0  0  3  0  0  0  0  0  0
   22.5120    7.1050   30.1500 C   0  0  0  0  0  3  0  0  0  0  0  0
   22.2080    4.9200   30.7990 O   0  0  0  0  0  0  0  0  0  0  0  0
   22.5660   11.5010   31.7380 C   0  0  0  0  0  0  0  0  0  0  0  0
   22.5710   12.8510   31.5310 N   0  0  0  0  0  0  0  0  0  0  0  0
   21.5450   13.6100   31.8730 N   0  0  0  0  0  0  0  0  0  0  0  0
   20.4460   13.0870   32.4430 C   0  0  0  0  0  0  0  0  0  0  0  0
   19.4610   13.8300   32.7700 O   0  0  0  0  0  0  0  0  0  0  0  0
   20.3610   11.7360   32.6860 C   0  0  0  0  0  0  0  0  0  0  0  0
   21.4600   10.9570   32.3140 C   0  0  0  0  0  0  0  0  0  0  0  0
   19.2310   11.2250   33.2680 C   0  0  0  0  0  3  0  0  0  0  0  0
   21.3310    9.6150   32.5740 C   0  0  0  0  0  3  0  0  0  0  0  0
   20.1890    9.0830   33.1640 C   0  0  0  0  0  3  0  0  0  0  0  0
   19.1260    9.8800   33.5190 C   0  0  0  0  0  3  0  0  0  0  0  0
   21.5630   15.0410   31.6490 C   0  0  0  0  0  2  0  0  0  0  0  0
   22.5300   15.7530   32.5570 C   0  0  0  0  0  2  0  0  0  0  0  0
   22.5300   17.1230   32.3680 O   0  0  0  0  0  0  0  0  0  0  0  0
   22.6740   17.2900   31.4060 H   0  0  0  0  0  0  0  0  0  0  0  0
  1 17  1  0  0  0  0
  1  2  2  0  0  0  0
  3  1  1  0  0  0  0
  4  5  1  0  0  0  0
  4  3  1  0  0  0  0
  5 15  2  0  0  0  0
  6  7  2  0  0  0  0
  6  5  1  0  0  0  0
  7  8  1  0  0  0  0
  8 10  1  0  0  0  0
  8 11  1  0  0  0  0
  9 14  2  0  0  0  0
  9  7  1  0  0  0  0
 11 16  2  0  0  0  0
 12 13  1  0  0  0  0
 12 10  2  0  0  0  0
 14 12  1  0  0  0  0
 15 11  1  0  0  0  0
 17 23  1  0  0  0  0
 18 17  2  0  0  0  0
 18 19  1  0  0  0  0
 19 20  1  0  0  0  0
 20 22  1  0  0  0  0
 20 21  2  0  0  0  0
 22 24  1  0  0  0  0
 23 25  1  0  0  0  0
 23 22  2  0  0  0  0
 24 27  2  0  0  0  0
 25 26  2  0  0  0  0
 26 27  1  0  0  0  0
 28 19  1  0  0  0  0
 28 29  1  0  0  0  0
 30 29  1  0  0  0  0
 31 30  1  0  0  0  0
M  END
>  <Pose>
1

>  <Score>
-9.299

$$$$
