MODEL 1
REMARK VINA RESULT:    -9.299      0.000      0.000
REMARK INTER + INTRA:         -13.767
REMARK INTER:                 -12.833
REMARK INTRA:                  -0.934
REMARK UNBOUND:                -0.934
REMARK  7 active torsions:
REMARK  status: ('A' for Active; 'I' for Inactive)
REMARK    1  A    between atoms: C_7  and  C_11 
REMARK    2  A    between atoms: C_11  and  O_12 
REMARK    3  A    between atoms: O_12  and  C_13 
REMARK    4  A    between atoms: C_13  and  C_15 
REMARK    5  A    between atoms: N_17  and  C_26 
REMARK    6  A    between atoms: C_26  and  C_27 
REMARK    7  A    between atoms: C_27  and  O_28 
ROOT
ATOM      1  C   UNK d   1      23.706  10.692  31.351  0.00  0.00     0.315 C 
ATOM      2  O   UNK d   1      24.621  10.247  32.032  0.00  0.00    -0.257 OA
ENDROOT
BRANCH   1   3
ATOM      3  O   UNK d   1      23.849  10.321  29.987  0.00  0.00    -0.310 OA
BRANCH   3   4
ATOM      4  C   UNK d   1      22.875   9.477  29.435  0.00  0.00     0.238 C 
BRANCH   4   5
ATOM      5  C   UNK d   1      23.326   8.087  29.642  0.00  0.00     0.066 A 
ATOM      6  N   UNK d   1      24.584   7.737  29.328  0.00  0.00    -0.233 NA
ATOM      7  C   UNK d   1      25.048   6.488  29.495  0.00  0.00     0.137 A 
ATOM      8  N   UNK d   1      24.257   5.530  29.990  0.00  0.00    -0.272 N 
ATOM      9  C   UNK d   1      26.338   6.171  29.163  0.00  0.00     0.052 A 
ATOM     10  C   UNK d   1      24.720   4.267  30.161  0.00  0.00     0.121 A 
ATOM     11  C   UNK d   1      22.979   5.795  30.332  0.00  0.00     0.255 A 
ATOM     12  C   UNK d   1      26.019   3.928  29.831  0.00  0.00     0.027 A 
ATOM     13 Br   UNK d   1      26.655   2.129  30.082  0.00  0.00    -0.050 Br
ATOM     14  C   UNK d   1      26.846   4.898  29.321  0.00  0.00     0.024 A 
ATOM     15  C   UNK d   1      22.512   7.105  30.150  0.00  0.00     0.104 A 
ATOM     16  O   UNK d   1      22.208   4.920  30.799  0.00  0.00    -0.268 OA
ENDBRANCH   4   5
ENDBRANCH   3   4
ENDBRANCH   1   3
BRANCH   1  17
ATOM     17  C   UNK d   1      22.566  11.501  31.738  0.00  0.00     0.163 A 
ATOM     18  N   UNK d   1      22.571  12.851  31.531  0.00  0.00    -0.163 NA
ATOM     19  N   UNK d   1      21.545  13.610  31.873  0.00  0.00    -0.231 N 
ATOM     20  C   UNK d   1      20.446  13.087  32.443  0.00  0.00     0.274 A 
ATOM     21  O   UNK d   1      19.461  13.830  32.770  0.00  0.00    -0.266 OA
ATOM     22  C   UNK d   1      20.361  11.736  32.686  0.00  0.00     0.046 A 
ATOM     23  C   UNK d   1      21.460  10.957  32.314  0.00  0.00     0.016 A 
ATOM     24  C   UNK d   1      19.231  11.225  33.268  0.00  0.00     0.018 A 
ATOM     25  C   UNK d   1      21.331   9.615  32.574  0.00  0.00     0.015 A 
ATOM     26  C   UNK d   1      20.189   9.083  33.164  0.00  0.00     0.001 A 
ATOM     27  C   UNK d   1      19.126   9.880  33.519  0.00  0.00     0.001 A 
BRANCH  19  28
ATOM     28  C   UNK d   1      21.563  15.041  31.649  0.00  0.00     0.180 C 
BRANCH  28  29
ATOM     29  C   UNK d   1      22.530  15.753  32.557  0.00  0.00     0.186 C 
BRANCH  29  30
ATOM     30  O   UNK d   1      22.530  17.123  32.368  0.00  0.00    -0.399 OA
ATOM     31  H   UNK d   1      22.674  17.290  31.406  0.00  0.00     0.209 HD
ENDBRANCH  29  30
ENDBRANCH  28  29
ENDBRANCH  19  28
ENDBRANCH   1  17
TORSDOF 7
ENDMDL
