MODEL 1
REMARK VINA RESULT:    -9.008      0.000      0.000
REMARK INTER + INTRA:         -11.782
REMARK INTER:                 -11.378
REMARK INTRA:                  -0.404
REMARK UNBOUND:                -0.404
REMARK  5 active torsions:
REMARK  status: ('A' for Active; 'I' for Inactive)
REMARK    1  A    between atoms: C_6  and  C_12 
REMARK    2  A    between atoms: C_12  and  C_13 
REMARK    3  A    between atoms: C_13  and  C_14 
REMARK       I    between atoms: C_14  and  N_16 
REMARK    4  A    between atoms: C_18  and  N_24 
REMARK    5  A    between atoms: C_19  and  O_22 
ROOT
ATOM      1  C   UNK d   1      24.851  10.661  30.237  0.00  0.00     0.220 C 
ATOM      2  O   UNK d   1      25.918  11.157  30.663  0.00  0.00    -0.273 OA
ATOM      3  N   UNK d   1      23.725  11.532  29.996  0.00  0.00    -0.350 N 
ATOM      4  C   UNK d   1      23.867  12.939  30.253  0.00  0.00     0.154 C 
ATOM      5  C   UNK d   1      22.978  13.272  31.433  0.00  0.00     0.146 C 
ATOM      6  C   UNK d   1      21.750  12.438  31.507  0.00  0.00     0.078 C 
ATOM      7  C   UNK d   1      21.348  11.773  30.242  0.00  0.00     0.059 C 
ATOM      8  C   UNK d   1      22.450  11.082  29.509  0.00  0.00     0.129 C 
ATOM      9  C   UNK d   1      20.598  13.361  31.926  0.00  0.00     0.048 C 
ENDROOT
BRANCH   1  10
ATOM     10  C   UNK d   1      24.699   9.226  29.973  0.00  0.00     0.110 C 
BRANCH  10  11
ATOM     11  C   UNK d   1      24.489   8.331  31.121  0.00  0.00     0.088 C 
BRANCH  11  12
ATOM     12  C   UNK d   1      23.085   8.026  31.495  0.00  0.00     0.107 A 
ATOM     13  N   UNK d   1      22.248   8.901  32.154  0.00  0.00    -0.233 NA
ATOM     14  C   UNK d   1      21.075   8.298  32.393  0.00  0.00     0.087 A 
ATOM     15  C   UNK d   1      19.901   8.700  33.009  0.00  0.00     0.057 A 
ATOM     16  C   UNK d   1      21.133   7.018  31.893  0.00  0.00     0.064 A 
ATOM     17  C   UNK d   1      18.828   7.847  33.115  0.00  0.00     0.036 A 
ATOM     18 Cl   UNK d   1      17.350   8.411  33.910  0.00  0.00    -0.084 Cl
ATOM     19  C   UNK d   1      18.903   6.565  32.605  0.00  0.00     0.026 A 
ATOM     20  C   UNK d   1      20.062   6.154  31.993  0.00  0.00     0.034 A 
ATOM     21  N   UNK d   1      22.383   6.906  31.357  0.00  0.00    -0.338 N 
ATOM     22  C   UNK d   1      22.823   5.654  30.768  0.00  0.00     0.158 C 
ENDBRANCH  11  12
ENDBRANCH  10  11
ENDBRANCH   1  10
BRANCH   5  23
ATOM     23  N   UNK d   1      22.715  14.690  31.401  0.00  0.00    -0.300 N 
ATOM     24  C   UNK d   1      22.390  15.294  30.242  0.00  0.00     0.102 A 
ATOM     25  C   UNK d   1      22.132  16.645  30.165  0.00  0.00     0.092 A 
ATOM     26  C   UNK d   1      22.209  17.392  31.318  0.00  0.00     0.250 A 
ATOM     27  O   UNK d   1      21.980  18.647  31.313  0.00  0.00    -0.268 OA
ATOM     28  N   UNK d   1      22.534  16.764  32.458  0.00  0.00    -0.275 N 
ATOM     29  C   UNK d   1      22.781  15.454  32.505  0.00  0.00     0.329 A 
ATOM     30  H   UNK d   1      22.606  17.304  33.372  0.00  0.00     0.173 HD
ATOM     31  O   UNK d   1      23.083  14.910  33.606  0.00  0.00    -0.246 OA
ENDBRANCH   5  23
BRANCH   6  32
ATOM     32  O   UNK d   1      21.818  11.457  32.508  0.00  0.00    -0.388 OA
ATOM     33  H   UNK d   1      20.961  11.498  33.037  0.00  0.00     0.210 HD
ENDBRANCH   6  32
TORSDOF 5
ENDMDL
