MODEL 1
REMARK VINA RESULT:    -8.925      0.000      0.000
REMARK INTER + INTRA:         -10.961
REMARK INTER:                 -10.491
REMARK INTRA:                  -0.470
REMARK UNBOUND:                -0.470
REMARK  3 active torsions:
REMARK  status: ('A' for Active; 'I' for Inactive)
REMARK    1  A    between atoms: C_4  and  C_8 
REMARK       I    between atoms: C_8  and  N_10 
REMARK    2  A    between atoms: N_10  and  C_11 
REMARK    3  A    between atoms: C_11  and  C_12 
REMARK       I    between atoms: C_12  and  N_14 
ROOT
ATOM      1  C   UNK d   1      24.745   7.923  29.823  0.00  0.00     0.237 C 
ATOM      2  O   UNK d   1      25.793   8.263  29.220  0.00  0.00    -0.272 OA
ATOM      3  N   UNK d   1      24.180   8.796  30.765  0.00  0.00    -0.351 N 
ATOM      4  C   UNK d   1      22.980   8.475  31.497  0.00  0.00     0.129 C 
ATOM      5  C   UNK d   1      21.927   9.477  31.075  0.00  0.00     0.068 C 
ATOM      6  C   UNK d   1      22.481  10.877  31.194  0.00  0.00     0.206 C 
ATOM      7  N   UNK d   1      22.502  11.463  29.871  0.00  0.00     0.099 N 
ATOM      8  C   UNK d   1      22.883  12.832  29.828  0.00  0.00     0.277 C 
ATOM      9  C   UNK d   1      22.373  13.711  30.911  0.00  0.00     0.089 C 
ATOM     10  C   UNK d   1      21.440  13.054  31.851  0.00  0.00     0.039 A 
ATOM     11  N   UNK d   1      20.465  13.543  32.677  0.00  0.00    -0.352 N 
ATOM     12  C   UNK d   1      19.934  12.489  33.308  0.00  0.00     0.207 A 
ATOM     13  N   UNK d   1      20.551  11.370  32.896  0.00  0.00    -0.244 NA
ATOM     14  C   UNK d   1      21.503  11.685  31.982  0.00  0.00     0.097 A 
ATOM     15  C   UNK d   1      23.832  10.955  31.828  0.00  0.00     0.068 C 
ATOM     16  C   UNK d   1      24.798  10.069  31.035  0.00  0.00     0.129 C 
ATOM     17  H   UNK d   1      23.182  10.917  29.279  0.00  0.00     0.317 HD
ATOM     18  H   UNK d   1      20.215  14.572  32.764  0.00  0.00     0.166 HD
ENDROOT
BRANCH   1  19
ATOM     19  C   UNK d   1      24.174   6.592  29.484  0.00  0.00     0.225 C 
BRANCH  19  20
ATOM     20  N   UNK d   1      24.677   5.556  30.360  0.00  0.00    -0.348 N 
ATOM     21  C   UNK d   1      23.814   4.749  31.136  0.00  0.00     0.252 C 
ATOM     22  O   UNK d   1      22.578   4.962  31.040  0.00  0.00    -0.268 OA
ATOM     23  H   UNK d   1      25.702   5.400  30.423  0.00  0.00     0.163 HD
BRANCH  21  24
ATOM     24  C   UNK d   1      24.294   3.701  32.026  0.00  0.00     0.033 A 
ATOM     25  C   UNK d   1      25.551   3.136  31.924  0.00  0.00     0.036 A 
ATOM     26  C   UNK d   1      25.981   2.141  32.784  0.00  0.00     0.011 A 
ATOM     27 Br   UNK d   1      27.720   1.424  32.572  0.00  0.00    -0.051 Br
ATOM     28  C   UNK d   1      25.137   1.676  33.794  0.00  0.00     0.019 A 
ATOM     29  C   UNK d   1      23.888   2.249  33.881  0.00  0.00     0.002 A 
ATOM     30  C   UNK d   1      23.455   3.238  33.029  0.00  0.00     0.017 A 
ENDBRANCH  21  24
ENDBRANCH  19  20
ENDBRANCH   1  19
TORSDOF 3
ENDMDL
