MODEL 1
REMARK VINA RESULT:    -5.786      0.000      0.000
REMARK INTER + INTRA:          -5.955
REMARK INTER:                  -5.955
REMARK INTRA:                   0.000
REMARK UNBOUND:                 0.000
REMARK  1 active torsions:
REMARK  status: ('A' for Active; 'I' for Inactive)
REMARK    1  A    between atoms: C_19  and  N_23 
ROOT
ATOM      1 Br   UNK d   1      28.174  10.273  26.689  0.00  0.00    -0.051 Br
ATOM      2  C   UNK d   1      28.848  11.644  25.515  0.00  0.00     0.011 A 
ATOM      3  C   UNK d   1      27.997  12.462  24.821  0.00  0.00     0.030 A 
ATOM      4  C   UNK d   1      28.503  13.437  23.987  0.00  0.00    -0.002 A 
ATOM      5  C   UNK d   1      29.864  13.545  23.888  0.00  0.00     0.045 A 
ATOM      6  C   UNK d   1      30.739  12.703  24.604  0.00  0.00     0.031 A 
ATOM      7  C   UNK d   1      30.219  11.740  25.427  0.00  0.00     0.021 A 
ATOM      8  N   UNK d   1      30.231  14.591  22.994  0.00  0.00    -0.320 N 
ATOM      9  C   UNK d   1      29.055  15.171  22.503  0.00  0.00     0.247 A 
ATOM     10  O   UNK d   1      29.004  16.135  21.680  0.00  0.00    -0.271 OA
ATOM     11  C   UNK d   1      27.877  14.461  23.115  0.00  0.00     0.145 A 
ATOM     12  C   UNK d   1      27.141  15.476  23.861  0.00  0.00     0.049 A 
ATOM     13  C   UNK d   1      25.871  15.821  23.519  0.00  0.00     0.200 A 
ATOM     14  N   UNK d   1      25.477  16.783  24.404  0.00  0.00    -0.148 NA
ATOM     15  N   UNK d   1      26.444  17.037  25.261  0.00  0.00    -0.280 N 
ATOM     16  C   UNK d   1      27.483  16.259  24.967  0.00  0.00     0.036 A 
ATOM     17  C   UNK d   1      28.817  16.168  25.639  0.00  0.00     0.070 C 
ATOM     18  O   UNK d   1      25.190  15.236  22.446  0.00  0.00    -0.272 OA
ATOM     19  C   UNK d   1      25.895  14.269  21.736  0.00  0.00     0.162 A 
ATOM     20  C   UNK d   1      27.116  13.895  22.016  0.00  0.00     0.100 A 
ATOM     21  C   UNK d   1      27.707  12.855  21.157  0.00  0.00     0.101 C 
ATOM     22  N   UNK d   1      28.195  12.031  20.488  0.00  0.00    -0.191 NA
ATOM     23  C   UNK d   1      31.599  14.999  22.639  0.00  0.00     0.159 C 
ATOM     24  H   UNK d   1      26.449  17.723  26.059  0.00  0.00     0.189 HD
ENDROOT
BRANCH  19  25
ATOM     25  N   UNK d   1      25.237  13.625  20.609  0.00  0.00    -0.379 N 
ATOM     26  H   UNK d   1      24.226  13.845  20.513  0.00  0.00     0.158 HD
ATOM     27  H   UNK d   1      25.716  13.005  19.958  0.00  0.00     0.158 HD
ENDBRANCH  19  25
TORSDOF 1
ENDMDL
