/Users/jonathanwahrer/Desktop/Msc/3_Semester/Drug_Design_Praktikum/waehrer_HTS_screening/HTS_experiment/out/docking_results/vina_output/3elj/1413_docked.pdbqt
 OpenBabel03192218193D

 24 27  0  0  0  0  0  0  0  0999 V2000
   24.3590   10.1000   32.0710 C   0  0  0  0  0  2  0  0  0  0  0  0
   24.8160    9.0740   31.1490 N   0  0  0  0  0  0  0  0  0  0  0  0
   25.7080    9.3080   30.1710 C   0  0  0  0  0  2  0  0  0  0  0  0
   26.1160    8.2950   29.3100 C   0  0  0  0  0  0  0  0  0  0  0  0
   25.6190    7.0170   29.4330 C   0  0  0  0  0  0  0  0  0  0  0  0
   26.9760    8.2280   28.2610 N   0  0  0  0  0  0  0  0  0  0  0  0
   24.7200    6.7750   30.4160 C   0  0  0  0  0  0  0  0  0  0  0  0
   26.1570    6.2130   28.4950 N   0  0  0  0  0  0  0  0  0  0  0  0
   24.0200    5.0260   30.6040 Br  0  0  0  0  0  0  0  0  0  0  0  0
   24.3350    7.8170   31.2590 C   0  0  0  0  0  3  0  0  0  0  0  0
   26.9770    7.0040   27.8100 N   0  0  0  0  0  0  0  0  0  0  0  0
   25.9680    4.8400   28.2130 C   0  0  0  0  0  1  0  0  0  0  0  0
   23.0840   10.7110   31.7060 C   0  0  0  0  0  0  0  0  0  0  0  0
   23.1360   11.6680   30.8740 O   0  0  0  0  0  0  0  0  0  0  0  0
   21.7660   10.3270   32.2030 C   0  0  0  0  0  0  0  0  0  0  0  0
   21.3480    9.0360   32.0430 C   0  0  0  0  0  3  0  0  0  0  0  0
   20.1140    8.6490   32.4940 C   0  0  0  0  0  0  0  0  0  0  0  0
   19.2520    9.5310   33.1210 C   0  0  0  0  0  0  0  0  0  0  0  0
   19.7120    7.3360   32.3220 C   0  0  0  0  0  3  0  0  0  0  0  0
   19.7080   10.8390   33.2670 C   0  0  0  0  0  3  0  0  0  0  0  0
   18.0060    9.1640   33.5840 C   0  0  0  0  0  3  0  0  0  0  0  0
   20.9400   11.2290   32.8190 C   0  0  0  0  0  3  0  0  0  0  0  0
   17.6180    7.8540   33.4040 C   0  0  0  0  0  3  0  0  0  0  0  0
   18.4690    6.9650   32.7810 C   0  0  0  0  0  3  0  0  0  0  0  0
  2 10  1  0  0  0  0
  2  1  1  0  0  0  0
  3  2  1  0  0  0  0
  4  5  2  0  0  0  0
  4  3  1  0  0  0  0
  5  7  1  0  0  0  0
  6  4  1  0  0  0  0
  7  9  1  0  0  0  0
  7 10  2  0  0  0  0
  8  5  1  0  0  0  0
 11  6  2  0  0  0  0
 11  8  1  0  0  0  0
 12  8  1  0  0  0  0
 13  1  1  0  0  0  0
 13 15  1  0  0  0  0
 14 13  2  0  0  0  0
 15 22  1  0  0  0  0
 16 15  2  0  0  0  0
 16 17  1  0  0  0  0
 17 18  1  0  0  0  0
 18 20  1  0  0  0  0
 18 21  2  0  0  0  0
 19 17  2  0  0  0  0
 19 24  1  0  0  0  0
 22 20  2  0  0  0  0
 23 21  1  0  0  0  0
 24 23  2  0  0  0  0
M  END
>  <Pose>
1

>  <Score>
-9.670

$$$$
