MODEL 1
REMARK VINA RESULT:    -6.063      0.000      0.000
REMARK INTER + INTRA:          -9.089
REMARK INTER:                  -7.481
REMARK INTRA:                  -1.608
REMARK UNBOUND:                -1.608
REMARK  4 active torsions:
REMARK  status: ('A' for Active; 'I' for Inactive)
REMARK    1  A    between atoms: C_12  and  C_15 
REMARK    2  A    between atoms: C_12  and  C_23 
REMARK    3  A    between atoms: C_15  and  N_16 
REMARK    4  A    between atoms: C_23  and  N_24 
ROOT
ATOM      1 Br   UNK d   1      26.949   1.288  32.125  0.00  0.00    -0.048 Br
ATOM      2  C   UNK d   1      26.722   1.526  30.236  0.00  0.00     0.052 A 
ATOM      3  C   UNK d   1      26.719   2.792  29.702  0.00  0.00     0.100 A 
ATOM      4  C   UNK d   1      26.557   3.010  28.323  0.00  0.00     0.047 A 
ATOM      5  C   UNK d   1      26.400   1.889  27.539  0.00  0.00     0.038 A 
ATOM      6  C   UNK d   1      26.399   0.608  28.049  0.00  0.00     0.019 A 
ATOM      7  C   UNK d   1      26.561   0.420  29.403  0.00  0.00    -0.024 A 
ATOM      8  C   UNK d   1      26.574  -0.918  30.048  0.00  0.00     0.051 C 
ATOM      9 Br   UNK d   1      26.181  -0.927  26.937  0.00  0.00    -0.051 Br
ATOM     10  C   UNK d   1      26.557   4.362  27.803  0.00  0.00     0.176 C 
ATOM     11  O   UNK d   1      26.518   4.559  26.584  0.00  0.00    -0.291 OA
ATOM     12  C   UNK d   1      26.603   5.499  28.740  0.00  0.00     0.095 C 
ATOM     13  C   UNK d   1      27.427   5.063  29.931  0.00  0.00     0.197 C 
ATOM     14  O   UNK d   1      26.881   3.901  30.527  0.00  0.00    -0.347 OA
ENDROOT
BRANCH  12  15
ATOM     15  C   UNK d   1      27.137   6.760  28.130  0.00  0.00     0.256 C 
BRANCH  15  16
ATOM     16  N   UNK d   1      28.505   7.027  28.355  0.00  0.00    -0.069 N 
ATOM     17  C   UNK d   1      29.252   6.806  27.152  0.00  0.00     0.239 C 
ATOM     18  C   UNK d   1      29.033   7.810  26.077  0.00  0.00     0.007 C 
ATOM     19  C   UNK d   1      28.257   9.016  26.439  0.00  0.00     0.007 C 
ATOM     20  C   UNK d   1      28.293   7.108  24.932  0.00  0.00     0.011 C 
ATOM     21  C   UNK d   1      28.217   9.376  27.873  0.00  0.00     0.028 C 
ATOM     22  C   UNK d   1      28.817   8.358  28.798  0.00  0.00     0.235 C 
ATOM     23  H   UNK d   1      28.885   6.369  29.081  0.00  0.00     0.279 HD
ENDBRANCH  15  16
ENDBRANCH  12  15
BRANCH  12  24
ATOM     24  C   UNK d   1      25.178   5.712  29.207  0.00  0.00     0.256 C 
BRANCH  24  25
ATOM     25  N   UNK d   1      25.040   6.196  30.538  0.00  0.00    -0.069 N 
ATOM     26  C   UNK d   1      23.911   5.545  31.200  0.00  0.00     0.239 C 
ATOM     27  C   UNK d   1      22.686   6.411  31.235  0.00  0.00     0.007 C 
ATOM     28  C   UNK d   1      22.524   7.114  29.906  0.00  0.00     0.007 C 
ATOM     29  C   UNK d   1      21.479   5.474  31.377  0.00  0.00     0.011 C 
ATOM     30  C   UNK d   1      23.658   8.080  29.759  0.00  0.00     0.028 C 
ATOM     31  C   UNK d   1      24.800   7.620  30.631  0.00  0.00     0.235 C 
ATOM     32  H   UNK d   1      25.870   5.970  31.093  0.00  0.00     0.279 HD
ENDBRANCH  24  25
ENDBRANCH  12  24
TORSDOF 4
ENDMDL
