MODEL 1
REMARK VINA RESULT:    -7.821      0.000      0.000
REMARK INTER + INTRA:          -8.808
REMARK INTER:                  -8.735
REMARK INTRA:                  -0.073
REMARK UNBOUND:                -0.073
REMARK  2 active torsions:
REMARK  status: ('A' for Active; 'I' for Inactive)
REMARK    1  A    between atoms: N_4  and  C_8 
REMARK    2  A    between atoms: C_8  and  C_9 
ROOT
ATOM      1  C   UNK d   1      20.581  10.781  32.924  0.00  0.00     0.168 A 
ATOM      2  N   UNK d   1      20.283   9.475  33.022  0.00  0.00    -0.148 NA
ATOM      3  N   UNK d   1      21.115   8.743  32.262  0.00  0.00    -0.206 N 
ATOM      4  C   UNK d   1      21.963   9.601  31.668  0.00  0.00     0.169 A 
ATOM      5  N   UNK d   1      21.631  10.840  32.077  0.00  0.00    -0.209 NA
ATOM      6  C   UNK d   1      22.924   9.075  30.827  0.00  0.00     0.079 A 
ATOM      7  C   UNK d   1      23.031   7.717  30.589  0.00  0.00     0.162 A 
ATOM      8  N   UNK d   1      24.047   7.471  29.733  0.00  0.00    -0.256 N 
ATOM      9  N   UNK d   1      24.567   8.649  29.443  0.00  0.00    -0.182 NA
ATOM     10  C   UNK d   1      23.925   9.646  30.076  0.00  0.00     0.158 A 
ATOM     11  C   UNK d   1      24.461   6.156  29.249  0.00  0.00     0.182 C 
ATOM     12  N   UNK d   1      22.150   6.919  31.216  0.00  0.00    -0.222 NA
ATOM     13  C   UNK d   1      21.211   7.419  32.036  0.00  0.00     0.239 A 
ENDROOT
BRANCH   1  14
ATOM     14  C   UNK d   1      19.922  11.938  33.590  0.00  0.00     0.232 C 
BRANCH  14  15
ATOM     15  N   UNK d   1      19.973  13.135  32.766  0.00  0.00    -0.272 N 
ATOM     16  C   UNK d   1      21.053  13.906  32.529  0.00  0.00     0.134 A 
ATOM     17  C   UNK d   1      20.670  14.950  31.690  0.00  0.00     0.054 A 
ATOM     18 Br   UNK d   1      21.749  16.363  31.003  0.00  0.00    -0.047 Br
ATOM     19  C   UNK d   1      19.327  14.765  31.440  0.00  0.00     0.069 A 
ATOM     20  N   UNK d   1      18.940  13.659  32.106  0.00  0.00    -0.176 NA
ATOM     21  C   UNK d   1      18.520  15.664  30.582  0.00  0.00     0.074 C 
ENDBRANCH  14  15
ENDBRANCH   1  14
TORSDOF 2
ENDMDL
