/Users/jonathanwahrer/Desktop/Msc/3_Semester/Drug_Design_Praktikum/waehrer_HTS_screening/HTS_experiment/out/docking_results/vina_output/3elj/1433_docked.pdbqt
 OpenBabel03192218203D

 28 31  0  0  1  0  0  0  0  0999 V2000
   25.7980    6.0870   29.1850 Br  0  0  0  0  0  0  0  0  0  0  0  0
   24.5590    5.3130   30.3930 C   0  0  0  0  0  0  0  0  0  0  0  0
   24.9120    4.1630   31.1060 C   0  0  0  0  0  0  0  0  0  0  0  0
   24.0450    3.5820   31.9980 C   0  0  0  0  0  0  0  0  0  0  0  0
   22.8140    4.1720   32.1640 C   0  0  0  0  0  3  0  0  0  0  0  0
   22.4360    5.3180   31.4670 C   0  0  0  0  0  0  0  0  0  0  0  0
   23.3310    5.8990   30.5640 C   0  0  0  0  0  0  0  0  0  0  0  0
   22.9400    7.1270   29.8180 C   0  0  0  0  0  1  0  0  0  0  0  0
   21.0850    5.9060   31.6660 C   0  0  0  0  0  1  0  0  0  0  0  0
   24.3510    2.3810   32.8270 C   0  0  2  0  0  3  0  0  0  0  0  0
   25.6270    1.6840   32.4650 C   0  0  2  0  0  0  0  0  0  0  0  0
   26.0130    2.0770   31.0510 C   0  0  0  0  0  2  0  0  0  0  0  0
   26.1350    3.5210   30.9710 O   0  0  0  0  0  0  0  0  0  0  0  0
   25.3300    0.2680   32.4650 N   0  0  0  0  0  0  0  0  0  0  0  0
   25.6730   -0.3900   33.6810 C   0  0  0  0  0  2  0  0  0  0  0  0
   25.7620   -1.8880   33.6050 C   0  0  0  0  0  2  0  0  0  0  0  0
   26.2780   -2.3850   32.4390 O   0  0  0  0  0  0  0  0  0  0  0  0
   25.4910   -1.9100   31.3830 C   0  0  0  0  0  2  0  0  0  0  0  0
   25.8500   -0.4030   31.3100 C   0  0  0  0  0  2  0  0  0  0  0  0
   26.8120    2.0280   33.2840 C   0  0  0  0  0  2  0  0  0  0  0  0
   28.1070    2.1040   32.7860 N   0  0  0  0  0  0  0  0  0  0  0  0
   28.9060    3.0720   33.6140 C   0  0  0  0  0  2  0  0  0  0  0  0
   28.8790    2.6980   35.0500 C   0  0  0  0  0  2  0  0  0  0  0  0
   28.7860    1.3550   35.2980 O   0  0  0  0  0  0  0  0  0  0  0  0
   29.2420    0.5310   34.3110 C   0  0  0  0  0  2  0  0  0  0  0  0
   28.9760    0.9480   32.9010 C   0  0  0  0  0  2  0  0  0  0  0  0
   23.2460    1.4860   32.6850 O   0  0  0  0  0  0  0  0  0  0  0  0
   23.6240    0.5730   32.6380 H   0  0  0  0  0  0  0  0  0  0  0  0
  1  2  1  0  0  0  0
  2  7  2  0  0  0  0
  2  3  1  0  0  0  0
  3  4  2  0  0  0  0
  4  5  1  0  0  0  0
  4 10  1  0  0  0  0
  6  9  1  0  0  0  0
  6  5  2  0  0  0  0
  7  6  1  0  0  0  0
  8  7  1  0  0  0  0
 10 27  1  6  0  0  0
 11 14  1  0  0  0  0
 11 10  1  0  0  0  0
 11 20  1  1  0  0  0
 12 11  1  0  0  0  0
 13 12  1  0  0  0  0
 13  3  1  0  0  0  0
 14 15  1  0  0  0  0
 16 15  1  0  0  0  0
 17 16  1  0  0  0  0
 18 17  1  0  0  0  0
 19 18  1  0  0  0  0
 19 14  1  0  0  0  0
 21 26  1  0  0  0  0
 21 20  1  0  0  0  0
 21 22  1  0  0  0  0
 22 23  1  0  0  0  0
 23 24  1  0  0  0  0
 25 24  1  0  0  0  0
 26 25  1  0  0  0  0
 28 27  1  0  0  0  0
M  END
>  <Pose>
1

>  <Score>
-5.748

$$$$
