MODEL 1
REMARK VINA RESULT:    -9.867      0.000      0.000
REMARK INTER + INTRA:         -11.524
REMARK INTER:                 -11.020
REMARK INTRA:                  -0.504
REMARK UNBOUND:                -0.504
REMARK  2 active torsions:
REMARK  status: ('A' for Active; 'I' for Inactive)
REMARK    1  A    between atoms: N_5  and  C_8 
REMARK    2  A    between atoms: C_8  and  C_9 
REMARK       I    between atoms: C_9  and  N_11 
ROOT
ATOM      1  C   UNK d   1      24.263  11.004  31.352  0.00  0.00     0.171 C 
ATOM      2  O   UNK d   1      25.544  11.357  31.325  0.00  0.00    -0.175 OA
ATOM      3  N   UNK d   1      23.466  11.674  30.438  0.00  0.00    -0.361 N 
ATOM      4  C   UNK d   1      22.070  11.531  30.221  0.00  0.00     0.127 C 
ATOM      5  C   UNK d   1      21.334  12.766  30.741  0.00  0.00     0.061 C 
ATOM      6  C   UNK d   1      22.215  13.993  30.570  0.00  0.00     0.118 C 
ATOM      7  N   UNK d   1      21.308  15.087  30.269  0.00  0.00    -0.324 N 
ATOM      8  C   UNK d   1      20.922  15.655  31.538  0.00  0.00     0.323 C 
ATOM      9  O   UNK d   1      19.926  16.393  31.744  0.00  0.00    -0.247 OA
ATOM     10  N   UNK d   1      21.887  15.215  32.512  0.00  0.00    -0.277 N 
ATOM     11  C   UNK d   1      22.841  14.396  31.847  0.00  0.00     0.254 C 
ATOM     12  O   UNK d   1      23.975  14.101  32.290  0.00  0.00    -0.270 OA
ATOM     13  C   UNK d   1      23.184  13.855  29.439  0.00  0.00     0.061 C 
ATOM     14  C   UNK d   1      24.104  12.684  29.559  0.00  0.00     0.127 C 
ATOM     15  H   UNK d   1      20.991  15.408  29.331  0.00  0.00     0.165 HD
ATOM     16  H   UNK d   1      21.882  15.456  33.513  0.00  0.00     0.173 HD
ENDROOT
BRANCH   1  17
ATOM     17  C   UNK d   1      24.007   9.988  32.353  0.00  0.00     0.216 C 
BRANCH  17  18
ATOM     18  N   UNK d   1      23.055   8.964  32.097  0.00  0.00    -0.341 N 
ATOM     19  C   UNK d   1      21.742   9.057  32.463  0.00  0.00     0.046 A 
ATOM     20  C   UNK d   1      21.083   7.925  32.058  0.00  0.00     0.010 A 
ATOM     21  C   UNK d   1      21.037  10.056  33.135  0.00  0.00     0.030 A 
ATOM     22  C   UNK d   1      22.010   7.128  31.435  0.00  0.00     0.045 A 
ATOM     23  C   UNK d   1      19.728   7.785  32.319  0.00  0.00     0.015 A 
ATOM     24 Br   UNK d   1      21.584   5.421  30.686  0.00  0.00    -0.048 Br
ATOM     25  C   UNK d   1      23.212   7.777  31.465  0.00  0.00     0.027 A 
ATOM     26  C   UNK d   1      24.487   7.276  30.902  0.00  0.00     0.070 C 
ATOM     27  C   UNK d   1      19.041   8.775  32.982  0.00  0.00     0.001 A 
ATOM     28  C   UNK d   1      19.680   9.911  33.394  0.00  0.00     0.002 A 
ENDBRANCH  17  18
ENDBRANCH   1  17
TORSDOF 2
ENDMDL
