MODEL 1
REMARK VINA RESULT:    -9.407      0.000      0.000
REMARK INTER + INTRA:         -12.979
REMARK INTER:                 -12.157
REMARK INTRA:                  -0.822
REMARK UNBOUND:                -0.822
REMARK  5 active torsions:
REMARK  status: ('A' for Active; 'I' for Inactive)
REMARK    1  A    between atoms: N_3  and  C_14 
REMARK    2  A    between atoms: C_14  and  C_15 
REMARK    3  A    between atoms: C_15  and  C_16 
REMARK    4  A    between atoms: C_16  and  C_17 
REMARK    5  A    between atoms: C_17  and  N_18 
ROOT
ATOM      1  C   UNK d   1      22.352  12.774  30.185  0.00  0.00     0.022 C 
ENDROOT
BRANCH   1   2
ATOM      2  C   UNK d   1      23.393  13.835  30.516  0.00  0.00     0.132 C 
BRANCH   2   3
ATOM      3  N   UNK d   1      23.001  15.131  30.017  0.00  0.00    -0.318 N 
ATOM      4  C   UNK d   1      22.173  16.045  30.580  0.00  0.00     0.180 A 
ATOM      5 Br   UNK d   1      21.304  15.773  32.259  0.00  0.00    -0.008 Br
ATOM      6  N   UNK d   1      22.067  17.131  29.793  0.00  0.00    -0.203 NA
ATOM      7  C   UNK d   1      22.832  16.943  28.693  0.00  0.00     0.169 A 
ATOM      8  C   UNK d   1      23.400  15.696  28.856  0.00  0.00     0.152 A 
ATOM      9  N   UNK d   1      23.072  17.717  27.610  0.00  0.00    -0.286 N 
ATOM     10  C   UNK d   1      24.248  15.235  27.862  0.00  0.00     0.280 A 
ATOM     11  N   UNK d   1      24.479  16.009  26.792  0.00  0.00    -0.273 N 
ATOM     12  O   UNK d   1      24.755  14.103  28.024  0.00  0.00    -0.265 OA
ATOM     13  C   UNK d   1      23.900  17.235  26.666  0.00  0.00     0.330 A 
ATOM     14  H   UNK d   1      25.119  15.669  26.036  0.00  0.00     0.173 HD
ATOM     15  O   UNK d   1      24.170  17.899  25.630  0.00  0.00    -0.246 OA
ATOM     16  C   UNK d   1      22.465  19.025  27.455  0.00  0.00     0.163 C 
ENDBRANCH   2   3
ENDBRANCH   1   2
BRANCH   1  17
ATOM     17  C   UNK d   1      22.950  11.393  30.243  0.00  0.00     0.022 C 
BRANCH  17  18
ATOM     18  C   UNK d   1      23.160  10.857  31.628  0.00  0.00     0.132 C 
BRANCH  18  19
ATOM     19  N   UNK d   1      22.275   9.769  31.881  0.00  0.00    -0.318 N 
ATOM     20  C   UNK d   1      21.058   9.743  32.422  0.00  0.00     0.152 A 
ATOM     21  C   UNK d   1      20.593   8.433  32.414  0.00  0.00     0.169 A 
ATOM     22  C   UNK d   1      20.232  10.696  32.957  0.00  0.00     0.280 A 
ATOM     23  N   UNK d   1      21.562   7.709  31.862  0.00  0.00    -0.203 NA
ATOM     24  N   UNK d   1      19.389   8.132  32.909  0.00  0.00    -0.286 N 
ATOM     25  C   UNK d   1      22.588   8.496  31.533  0.00  0.00     0.180 A 
ATOM     26 Br   UNK d   1      24.194   7.874  30.715  0.00  0.00    -0.008 Br
ATOM     27  C   UNK d   1      18.595   9.087  33.429  0.00  0.00     0.330 A 
ATOM     28  C   UNK d   1      18.875   6.766  32.912  0.00  0.00     0.163 C 
ATOM     29  O   UNK d   1      17.464   8.796  33.892  0.00  0.00    -0.246 OA
ATOM     30  N   UNK d   1      19.030  10.351  33.444  0.00  0.00    -0.273 N 
ATOM     31  H   UNK d   1      18.437  11.133  33.844  0.00  0.00     0.173 HD
ATOM     32  O   UNK d   1      20.622  11.880  32.982  0.00  0.00    -0.265 OA
ENDBRANCH  18  19
ENDBRANCH  17  18
ENDBRANCH   1  17
TORSDOF 5
ENDMDL
