/Users/jonathanwahrer/Desktop/Msc/3_Semester/Drug_Design_Praktikum/waehrer_HTS_screening/HTS_experiment/out/docking_results/vina_output/3elj/1436_docked.pdbqt
 OpenBabel03192218213D

 33 36  0  0  0  0  0  0  0  0999 V2000
   22.1370   12.6180   30.5220 O   0  0  0  0  0  0  0  0  0  0  0  0
   23.0560   11.6680   30.8250 C   0  0  0  0  0  2  0  0  0  0  0  0
   22.9780   10.8560   32.0500 C   0  0  0  0  0  2  0  0  0  0  0  0
   22.1840    9.6740   32.0330 N   0  0  0  0  0  0  0  0  0  0  0  0
   22.4390    8.4490   31.5800 C   0  0  0  0  0  0  0  0  0  0  0  0
   24.0110    7.8530   30.6680 Br  0  0  0  0  0  0  0  0  0  0  0  0
   21.3980    7.6130   31.7990 N   0  0  0  0  0  0  0  0  0  0  0  0
   20.4640    8.3350   32.4030 C   0  0  0  0  0  0  0  0  0  0  0  0
   20.9290    9.6230   32.5590 C   0  0  0  0  0  0  0  0  0  0  0  0
   19.2140    8.0250   32.8490 N   0  0  0  0  0  0  0  0  0  0  0  0
   20.1640   10.6060   33.1530 C   0  0  0  0  0  0  0  0  0  0  0  0
   18.9230   10.2340   33.5790 N   0  0  0  0  0  0  0  0  0  0  0  0
   20.5680   11.7870   33.3020 O   0  0  0  0  0  0  0  0  0  0  0  0
   18.4800    8.9770   33.4220 C   0  0  0  0  0  0  0  0  0  0  0  0
   18.3370   10.9690   34.0290 H   0  0  0  0  0  0  0  0  0  0  0  0
   17.3240    8.6590   33.8270 O   0  0  0  0  0  0  0  0  0  0  0  0
   18.6890    6.6830   32.7050 C   0  0  0  0  0  1  0  0  0  0  0  0
   22.5180   13.3590   29.4160 C   0  0  0  0  0  2  0  0  0  0  0  0
   23.4670   14.4360   29.8490 C   0  0  0  0  0  2  0  0  0  0  0  0
   23.0410   15.7310   29.4220 N   0  0  0  0  0  0  0  0  0  0  0  0
   23.3890   16.3330   28.2770 C   0  0  0  0  0  0  0  0  0  0  0  0
   22.7840   17.5510   28.2470 C   0  0  0  0  0  0  0  0  0  0  0  0
   24.1900   15.9380   27.2240 C   0  0  0  0  0  0  0  0  0  0  0  0
   22.0830   17.6600   29.3730 N   0  0  0  0  0  0  0  0  0  0  0  0
   22.9650   18.3680   27.1950 N   0  0  0  0  0  0  0  0  0  0  0  0
   22.2170   16.5550   30.1250 C   0  0  0  0  0  0  0  0  0  0  0  0
   21.4580   16.1460   31.8170 Br  0  0  0  0  0  0  0  0  0  0  0  0
   23.7410   17.9680   26.1910 C   0  0  0  0  0  0  0  0  0  0  0  0
   22.3290   19.6680   27.1460 C   0  0  0  0  0  1  0  0  0  0  0  0
   23.9010   18.7430   25.2110 O   0  0  0  0  0  0  0  0  0  0  0  0
   24.3400   16.7840   26.2000 N   0  0  0  0  0  0  0  0  0  0  0  0
   24.9440   16.4880   25.4030 H   0  0  0  0  0  0  0  0  0  0  0  0
   24.7820   14.8120   27.1940 O   0  0  0  0  0  0  0  0  0  0  0  0
  1  2  1  0  0  0  0
  2  3  1  0  0  0  0
  4  3  1  0  0  0  0
  4  9  1  0  0  0  0
  5  7  2  0  0  0  0
  5  4  1  0  0  0  0
  6  5  1  0  0  0  0
  7  8  1  0  0  0  0
  8  9  2  0  0  0  0
  8 10  1  0  0  0  0
  9 11  1  0  0  0  0
 10 14  1  0  0  0  0
 11 13  2  0  0  0  0
 11 12  1  0  0  0  0
 12 15  1  0  0  0  0
 14 12  1  0  0  0  0
 14 16  2  0  0  0  0
 17 10  1  0  0  0  0
 18 19  1  0  0  0  0
 18  1  1  0  0  0  0
 20 19  1  0  0  0  0
 20 26  1  0  0  0  0
 21 20  1  0  0  0  0
 22 21  2  0  0  0  0
 22 24  1  0  0  0  0
 23 21  1  0  0  0  0
 24 26  2  0  0  0  0
 25 22  1  0  0  0  0
 26 27  1  0  0  0  0
 28 31  1  0  0  0  0
 28 25  1  0  0  0  0
 29 25  1  0  0  0  0
 30 28  2  0  0  0  0
 31 23  1  0  0  0  0
 32 31  1  0  0  0  0
 33 23  2  0  0  0  0
M  END
>  <Pose>
1

>  <Score>
-8.953

$$$$
