MODEL 1
REMARK VINA RESULT:    -8.953      0.000      0.000
REMARK INTER + INTRA:         -12.856
REMARK INTER:                 -12.093
REMARK INTRA:                  -0.764
REMARK UNBOUND:                -0.764
REMARK  6 active torsions:
REMARK  status: ('A' for Active; 'I' for Inactive)
REMARK    1  A    between atoms: N_3  and  C_14 
REMARK    2  A    between atoms: C_14  and  C_15 
REMARK    3  A    between atoms: C_15  and  O_16 
REMARK    4  A    between atoms: O_16  and  C_17 
REMARK    5  A    between atoms: C_17  and  C_18 
REMARK    6  A    between atoms: C_18  and  N_19 
ROOT
ATOM      1  O   UNK d   1      22.137  12.618  30.522  0.00  0.00    -0.388 OA
ENDROOT
BRANCH   1   2
ATOM      2  C   UNK d   1      23.056  11.668  30.825  0.00  0.00     0.188 C 
BRANCH   2   3
ATOM      3  C   UNK d   1      22.978  10.856  32.050  0.00  0.00     0.158 C 
BRANCH   3   4
ATOM      4  N   UNK d   1      22.184   9.674  32.033  0.00  0.00    -0.316 N 
ATOM      5  C   UNK d   1      22.439   8.449  31.580  0.00  0.00     0.180 A 
ATOM      6 Br   UNK d   1      24.011   7.853  30.668  0.00  0.00    -0.008 Br
ATOM      7  N   UNK d   1      21.398   7.613  31.799  0.00  0.00    -0.203 NA
ATOM      8  C   UNK d   1      20.464   8.335  32.403  0.00  0.00     0.169 A 
ATOM      9  C   UNK d   1      20.929   9.623  32.559  0.00  0.00     0.152 A 
ATOM     10  N   UNK d   1      19.214   8.025  32.849  0.00  0.00    -0.286 N 
ATOM     11  C   UNK d   1      20.164  10.606  33.153  0.00  0.00     0.280 A 
ATOM     12  N   UNK d   1      18.923  10.234  33.579  0.00  0.00    -0.273 N 
ATOM     13  O   UNK d   1      20.568  11.787  33.302  0.00  0.00    -0.265 OA
ATOM     14  C   UNK d   1      18.480   8.977  33.422  0.00  0.00     0.330 A 
ATOM     15  H   UNK d   1      18.337  10.969  34.029  0.00  0.00     0.173 HD
ATOM     16  O   UNK d   1      17.324   8.659  33.827  0.00  0.00    -0.246 OA
ATOM     17  C   UNK d   1      18.689   6.683  32.705  0.00  0.00     0.163 C 
ENDBRANCH   3   4
ENDBRANCH   2   3
ENDBRANCH   1   2
BRANCH   1  18
ATOM     18  C   UNK d   1      22.518  13.359  29.416  0.00  0.00     0.188 C 
BRANCH  18  19
ATOM     19  C   UNK d   1      23.467  14.436  29.849  0.00  0.00     0.158 C 
BRANCH  19  20
ATOM     20  N   UNK d   1      23.041  15.731  29.422  0.00  0.00    -0.316 N 
ATOM     21  C   UNK d   1      23.389  16.333  28.277  0.00  0.00     0.152 A 
ATOM     22  C   UNK d   1      22.784  17.551  28.247  0.00  0.00     0.169 A 
ATOM     23  C   UNK d   1      24.190  15.938  27.224  0.00  0.00     0.280 A 
ATOM     24  N   UNK d   1      22.083  17.660  29.373  0.00  0.00    -0.203 NA
ATOM     25  N   UNK d   1      22.965  18.368  27.195  0.00  0.00    -0.286 N 
ATOM     26  C   UNK d   1      22.217  16.555  30.125  0.00  0.00     0.180 A 
ATOM     27 Br   UNK d   1      21.458  16.146  31.817  0.00  0.00    -0.008 Br
ATOM     28  C   UNK d   1      23.741  17.968  26.191  0.00  0.00     0.330 A 
ATOM     29  C   UNK d   1      22.329  19.668  27.146  0.00  0.00     0.163 C 
ATOM     30  O   UNK d   1      23.901  18.743  25.211  0.00  0.00    -0.246 OA
ATOM     31  N   UNK d   1      24.340  16.784  26.200  0.00  0.00    -0.273 N 
ATOM     32  H   UNK d   1      24.944  16.488  25.403  0.00  0.00     0.173 HD
ATOM     33  O   UNK d   1      24.782  14.812  27.194  0.00  0.00    -0.265 OA
ENDBRANCH  19  20
ENDBRANCH  18  19
ENDBRANCH   1  18
TORSDOF 6
ENDMDL
