MODEL 1
REMARK VINA RESULT:    -9.066      0.000      0.000
REMARK INTER + INTRA:         -12.830
REMARK INTER:                 -12.247
REMARK INTRA:                  -0.584
REMARK UNBOUND:                -0.584
REMARK  6 active torsions:
REMARK  status: ('A' for Active; 'I' for Inactive)
REMARK    1  A    between atoms: C_3  and  N_8 
REMARK       I    between atoms: N_11  and  C_14 
REMARK    2  A    between atoms: C_14  and  C_16 
REMARK    3  A    between atoms: N_18  and  C_26 
REMARK    4  A    between atoms: C_26  and  C_27 
REMARK    5  A    between atoms: C_27  and  C_28 
REMARK    6  A    between atoms: C_28  and  O_29 
ROOT
ATOM      1  C   UNK d   1      23.801  12.825  30.803  0.00  0.00     0.079 A 
ATOM      2  C   UNK d   1      22.807  13.429  31.521  0.00  0.00     0.110 A 
ATOM      3  N   UNK d   1      22.150  14.562  31.124  0.00  0.00    -0.364 N 
ATOM      4  C   UNK d   1      22.511  15.100  29.964  0.00  0.00     0.110 A 
ATOM      5  C   UNK d   1      23.496  14.567  29.174  0.00  0.00     0.080 A 
ATOM      6  C   UNK d   1      24.181  13.365  29.610  0.00  0.00     0.111 A 
ATOM      7  N   UNK d   1      25.080  13.080  28.649  0.00  0.00    -0.170 NA
ATOM      8  N   UNK d   1      25.009  13.980  27.682  0.00  0.00    -0.242 N 
ATOM      9  C   UNK d   1      24.069  14.893  27.957  0.00  0.00     0.275 A 
ATOM     10  O   UNK d   1      23.706  15.904  27.281  0.00  0.00    -0.266 OA
ATOM     11  H   UNK d   1      25.584  14.025  26.795  0.00  0.00     0.192 HD
ENDROOT
BRANCH   1  12
ATOM     12  C   UNK d   1      24.447  11.620  31.299  0.00  0.00     0.257 C 
ATOM     13  N   UNK d   1      24.302  10.370  30.659  0.00  0.00    -0.345 N 
ATOM     14  C   UNK d   1      24.928   9.161  31.123  0.00  0.00     0.146 C 
ATOM     15  C   UNK d   1      23.486  10.286  29.475  0.00  0.00     0.146 C 
ATOM     16  C   UNK d   1      23.915   8.046  31.042  0.00  0.00     0.143 C 
ATOM     17  N   UNK d   1      22.564   8.515  30.883  0.00  0.00    -0.376 N 
ATOM     18  C   UNK d   1      22.209   9.541  29.892  0.00  0.00     0.143 C 
ATOM     19  O   UNK d   1      25.154  11.745  32.342  0.00  0.00    -0.267 OA
BRANCH  17  20
ATOM     20  C   UNK d   1      21.512   8.010  31.672  0.00  0.00     0.052 A 
ATOM     21  C   UNK d   1      20.764   8.822  32.496  0.00  0.00     0.060 A 
ATOM     22 Cl   UNK d   1      21.127  10.549  32.574  0.00  0.00    -0.082 Cl
ATOM     23  C   UNK d   1      19.738   8.315  33.264  0.00  0.00     0.026 A 
ATOM     24  C   UNK d   1      19.452   6.974  33.207  0.00  0.00     0.002 A 
ATOM     25  C   UNK d   1      20.188   6.116  32.383  0.00  0.00     0.002 A 
ATOM     26  C   UNK d   1      21.210   6.676  31.631  0.00  0.00     0.031 A 
ENDBRANCH  17  20
ENDBRANCH   1  12
BRANCH   3  27
ATOM     27  C   UNK d   1      21.132  15.143  31.986  0.00  0.00     0.130 C 
BRANCH  27  28
ATOM     28  C   UNK d   1      19.865  15.491  31.342  0.00  0.00     0.046 C 
BRANCH  28  29
ATOM     29  C   UNK d   1      18.746  14.563  31.166  0.00  0.00     0.168 C 
BRANCH  29  30
ATOM     30  O   UNK d   1      18.045  14.083  32.206  0.00  0.00    -0.396 OA
ATOM     31  C   UNK d   1      18.362  12.964  32.861  0.00  0.00     0.201 C 
ENDBRANCH  29  30
ENDBRANCH  28  29
ENDBRANCH  27  28
ENDBRANCH   3  27
TORSDOF 6
ENDMDL
