/Users/jonathanwahrer/Desktop/Msc/3_Semester/Drug_Design_Praktikum/waehrer_HTS_screening/HTS_experiment/out/docking_results/vina_output/3elj/1471_docked.pdbqt
 OpenBabel03192218233D

 31 34  0  0  0  0  0  0  0  0999 V2000
   23.8010   12.8250   30.8030 C   0  0  0  0  0  0  0  0  0  0  0  0
   22.8070   13.4290   31.5210 C   0  0  0  0  0  2  0  0  0  0  0  0
   22.1500   14.5620   31.1240 N   0  0  0  0  0  0  0  0  0  0  0  0
   22.5110   15.1000   29.9640 C   0  0  0  0  0  3  0  0  0  0  0  0
   23.4960   14.5670   29.1740 C   0  0  0  0  0  0  0  0  0  0  0  0
   24.1810   13.3650   29.6100 C   0  0  0  0  0  0  0  0  0  0  0  0
   25.0800   13.0800   28.6490 N   0  0  0  0  0  2  0  0  0  0  0  0
   25.0090   13.9800   27.6820 N   0  0  0  0  0  0  0  0  0  0  0  0
   24.0690   14.8930   27.9570 C   0  0  0  0  0  0  0  0  0  0  0  0
   23.7060   15.9040   27.2810 O   0  0  0  0  0  0  0  0  0  0  0  0
   25.5840   14.0250   26.7950 H   0  0  0  0  0  0  0  0  0  0  0  0
   24.4470   11.6200   31.2990 C   0  0  0  0  0  0  0  0  0  0  0  0
   24.3020   10.3700   30.6590 N   0  0  0  0  0  0  0  0  0  0  0  0
   24.9280    9.1610   31.1230 C   0  0  0  0  0  2  0  0  0  0  0  0
   23.4860   10.2860   29.4750 C   0  0  0  0  0  2  0  0  0  0  0  0
   23.9150    8.0460   31.0420 C   0  0  0  0  0  2  0  0  0  0  0  0
   22.5640    8.5150   30.8830 N   0  0  0  0  0  0  0  0  0  0  0  0
   22.2090    9.5410   29.8920 C   0  0  0  0  0  2  0  0  0  0  0  0
   25.1540   11.7450   32.3420 O   0  0  0  0  0  0  0  0  0  0  0  0
   21.5120    8.0100   31.6720 C   0  0  0  0  0  0  0  0  0  0  0  0
   20.7640    8.8220   32.4960 C   0  0  0  0  0  0  0  0  0  0  0  0
   21.1270   10.5490   32.5740 Cl  0  0  0  0  0  0  0  0  0  0  0  0
   19.7380    8.3150   33.2640 C   0  0  0  0  0  3  0  0  0  0  0  0
   19.4520    6.9740   33.2070 C   0  0  0  0  0  3  0  0  0  0  0  0
   20.1880    6.1160   32.3830 C   0  0  0  0  0  3  0  0  0  0  0  0
   21.2100    6.6760   31.6310 C   0  0  0  0  0  3  0  0  0  0  0  0
   21.1320   15.1430   31.9860 C   0  0  0  0  0  2  0  0  0  0  0  0
   19.8650   15.4910   31.3420 C   0  0  0  0  0  2  0  0  0  0  0  0
   18.7460   14.5630   31.1660 C   0  0  0  0  0  2  0  0  0  0  0  0
   18.0450   14.0830   32.2060 O   0  0  0  0  0  0  0  0  0  0  0  0
   18.3620   12.9640   32.8610 C   0  0  0  0  0  1  0  0  0  0  0  0
  1 12  1  0  0  0  0
  1  2  1  0  0  0  0
  3  2  1  0  0  0  0
  3 27  1  0  0  0  0
  4  3  1  0  0  0  0
  5  6  1  0  0  0  0
  5  4  2  0  0  0  0
  6  1  2  0  0  0  0
  7  6  1  0  0  0  0
  8  9  1  0  0  0  0
  8  7  1  0  0  0  0
  9  5  1  0  0  0  0
 10  9  2  0  0  0  0
 11  8  1  0  0  0  0
 12 19  2  0  0  0  0
 13 14  1  0  0  0  0
 13 12  1  0  0  0  0
 15 18  1  0  0  0  0
 15 13  1  0  0  0  0
 16 14  1  0  0  0  0
 17 16  1  0  0  0  0
 17 20  1  0  0  0  0
 18 17  1  0  0  0  0
 20 21  1  0  0  0  0
 21 22  1  0  0  0  0
 21 23  2  0  0  0  0
 24 23  1  0  0  0  0
 25 24  2  0  0  0  0
 26 20  2  0  0  0  0
 26 25  1  0  0  0  0
 28 27  1  0  0  0  0
 29 28  1  0  0  0  0
 29 30  1  0  0  0  0
 30 31  1  0  0  0  0
M  END
>  <Pose>
1

>  <Score>
-9.066

$$$$
