MODEL 1
REMARK VINA RESULT:    -6.088      0.000      0.000
REMARK INTER + INTRA:          -8.101
REMARK INTER:                  -7.334
REMARK INTRA:                  -0.767
REMARK UNBOUND:                -0.767
REMARK  4 active torsions:
REMARK  status: ('A' for Active; 'I' for Inactive)
REMARK    1  A    between atoms: C_4  and  N_8 
REMARK    2  A    between atoms: C_10  and  O_18 
REMARK    3  A    between atoms: C_10  and  C_19 
REMARK    4  A    between atoms: C_21  and  N_25 
ROOT
ATOM      1  N   UNK d   1      28.399   5.812  28.099  0.00  0.00     0.009 N 
ATOM      2  C   UNK d   1      27.117   6.415  27.831  0.00  0.00     0.316 C 
ATOM      3  C   UNK d   1      26.025   5.671  28.477  0.00  0.00     0.189 C 
ATOM      4  N   UNK d   1      26.697   4.573  29.111  0.00  0.00    -0.324 N 
ATOM      5  C   UNK d   1      26.240   3.273  29.545  0.00  0.00     0.128 C 
ATOM      6  C   UNK d   1      26.392   3.004  31.008  0.00  0.00     0.020 C 
ATOM      7  C   UNK d   1      27.201   4.005  31.757  0.00  0.00     0.005 C 
ATOM      8  C   UNK d   1      28.689   3.766  31.416  0.00  0.00     0.031 C 
ATOM      9  C   UNK d   1      28.930   4.640  30.198  0.00  0.00     0.030 C 
ATOM     10  C   UNK d   1      28.091   4.964  29.241  0.00  0.00     0.208 C 
ATOM     11  H   UNK d   1      28.790   5.204  27.388  0.00  0.00     0.295 HD
ENDROOT
BRANCH   3  12
ATOM     12  O   UNK d   1      25.184   5.104  27.479  0.00  0.00    -0.365 OA
ATOM     13  H   UNK d   1      25.768   5.020  26.655  0.00  0.00     0.213 HD
ENDBRANCH   3  12
BRANCH   3  14
ATOM     14  C   UNK d   1      25.139   6.411  29.343  0.00  0.00     0.001 A 
ATOM     15  C   UNK d   1      23.929   5.903  29.817  0.00  0.00     0.048 A 
ATOM     16  C   UNK d   1      23.091   6.610  30.669  0.00  0.00     0.103 A 
ATOM     17  C   UNK d   1      23.476   7.888  31.074  0.00  0.00     0.036 A 
ATOM     18  C   UNK d   1      24.652   8.422  30.633  0.00  0.00     0.003 A 
ATOM     19  C   UNK d   1      25.472   7.676  29.771  0.00  0.00     0.012 A 
BRANCH  16  20
ATOM     20  N   UNK d   1      21.879   6.032  31.110  0.00  0.00    -0.116 N 
ATOM     21  O   UNK d   1      21.479   4.942  30.595  0.00  0.00    -0.532 OA
ATOM     22  O   UNK d   1      21.099   6.578  32.060  0.00  0.00    -0.532 OA
ENDBRANCH  16  20
ENDBRANCH   3  14
BRANCH   1  23
ATOM     23  C   UNK d   1      29.406   6.700  28.564  0.00  0.00     0.143 A 
ATOM     24  C   UNK d   1      29.144   7.998  28.927  0.00  0.00     0.061 A 
ATOM     25  C   UNK d   1      30.151   8.894  29.277  0.00  0.00     0.036 A 
ATOM     26 Cl   UNK d   1      29.756  10.535  29.766  0.00  0.00    -0.084 Cl
ATOM     27  C   UNK d   1      31.470   8.489  29.266  0.00  0.00     0.024 A 
ATOM     28  C   UNK d   1      31.774   7.203  28.906  0.00  0.00     0.004 A 
ATOM     29  C   UNK d   1      30.754   6.324  28.560  0.00  0.00     0.038 A 
ENDBRANCH   1  23
TORSDOF 4
ENDMDL
