MODEL 1
REMARK VINA RESULT:   -10.227      0.000      0.000
REMARK INTER + INTRA:         -11.418
REMARK INTER:                 -12.619
REMARK INTRA:                   1.201
REMARK UNBOUND:                 1.201
REMARK  4 active torsions:
REMARK  status: ('A' for Active; 'I' for Inactive)
REMARK    1  A    between atoms: C_7  and  N_8 
REMARK    2  A    between atoms: C_14  and  C_16 
REMARK    3  A    between atoms: N_23  and  C_31 
REMARK    4  A    between atoms: C_25  and  C_28 
ROOT
ATOM      1  F   UNK d   1      25.170  11.687  28.614  0.00  0.00    -0.204 F 
ATOM      2  C   UNK d   1      24.422  12.675  29.138  0.00  0.00     0.151 A 
ATOM      3  C   UNK d   1      24.383  13.831  28.364  0.00  0.00     0.062 A 
ATOM      4  C   UNK d   1      23.649  14.922  28.774  0.00  0.00     0.045 A 
ATOM      5  C   UNK d   1      22.961  14.830  29.961  0.00  0.00     0.051 A 
ATOM      6  C   UNK d   1      23.011  13.665  30.719  0.00  0.00     0.071 A 
ATOM      7  C   UNK d   1      23.738  12.574  30.324  0.00  0.00     0.175 A 
ATOM      8  N   UNK d   1      22.248  15.909  30.341  0.00  0.00    -0.350 N 
ATOM      9  C   UNK d   1      22.196  17.038  29.610  0.00  0.00     0.114 A 
ATOM     10  C   UNK d   1      22.874  17.162  28.418  0.00  0.00     0.107 A 
ATOM     11  C   UNK d   1      23.614  16.084  27.992  0.00  0.00     0.202 A 
ATOM     12  O   UNK d   1      24.254  16.130  26.915  0.00  0.00    -0.286 OA
ENDROOT
BRANCH   7  13
ATOM     13  N   UNK d   1      23.772  11.427  31.117  0.00  0.00    -0.035 N 
ATOM     14  C   UNK d   1      24.816  10.484  30.807  0.00  0.00     0.261 C 
ATOM     15  C   UNK d   1      24.822   9.346  31.854  0.00  0.00     0.153 C 
ATOM     16  N   UNK d   1      23.582   8.692  31.708  0.00  0.00    -0.356 N 
ATOM     17  C   UNK d   1      22.458   9.596  32.171  0.00  0.00     0.153 C 
ATOM     18  C   UNK d   1      23.216   7.488  31.208  0.00  0.00     0.187 C 
ATOM     19  C   UNK d   1      22.528  10.733  31.198  0.00  0.00     0.261 C 
ATOM     20  O   UNK d   1      21.941   7.199  31.316  0.00  0.00    -0.171 OA
ATOM     21  H   UNK d   1      23.984  11.759  32.108  0.00  0.00     0.287 HD
BRANCH  18  22
ATOM     22  C   UNK d   1      23.981   6.453  30.571  0.00  0.00     0.019 A 
ATOM     23  C   UNK d   1      24.759   6.639  29.474  0.00  0.00     0.039 A 
ATOM     24  C   UNK d   1      25.526   5.619  28.925  0.00  0.00     0.035 A 
ATOM     25  C   UNK d   1      25.501   4.377  29.504  0.00  0.00     0.024 A 
ATOM     26 Cl   UNK d   1      26.524   5.910  27.499  0.00  0.00    -0.084 Cl
ATOM     27  C   UNK d   1      24.734   4.135  30.609  0.00  0.00     0.003 A 
ATOM     28  C   UNK d   1      23.994   5.156  31.125  0.00  0.00     0.016 A 
ENDBRANCH  18  22
ENDBRANCH   7  13
BRANCH   8  29
ATOM     29  C   UNK d   1      21.521  15.793  31.610  0.00  0.00     0.090 A 
ATOM     30  C   UNK d   1      20.728  14.599  31.920  0.00  0.00     0.028 A 
ATOM     31  C   UNK d   1      19.966  15.751  31.436  0.00  0.00     0.028 A 
ENDBRANCH   8  29
BRANCH  10  32
ATOM     32  C   UNK d   1      22.806  18.407  27.629  0.00  0.00     0.214 C 
ATOM     33  O   UNK d   1      21.737  18.995  27.402  0.00  0.00    -0.644 OA
ATOM     34  O   UNK d   1      23.982  18.924  27.136  0.00  0.00    -0.644 OA
ENDBRANCH  10  32
TORSDOF 4
ENDMDL
