MODEL 1
REMARK VINA RESULT:   -10.035      0.000      0.000
REMARK INTER + INTRA:         -14.728
REMARK INTER:                 -13.555
REMARK INTRA:                  -1.174
REMARK UNBOUND:                -1.174
REMARK  6 active torsions:
REMARK  status: ('A' for Active; 'I' for Inactive)
REMARK    1  A    between atoms: C_5  and  C_8 
REMARK       I    between atoms: C_8  and  N_10 
REMARK    2  A    between atoms: N_10  and  C_11 
REMARK    3  A    between atoms: C_11  and  C_12 
REMARK    4  A    between atoms: C_12  and  N_13 
REMARK       I    between atoms: N_13  and  C_14 
REMARK    5  A    between atoms: C_14  and  C_16 
REMARK    6  A    between atoms: N_19  and  C_22 
ROOT
ATOM      1  N   UNK d   1      25.731   8.475  30.302  0.00  0.00    -0.359 N 
ATOM      2  C   UNK d   1      24.981   9.667  29.991  0.00  0.00     0.222 C 
ATOM      3  O   UNK d   1      24.171   9.642  29.052  0.00  0.00    -0.273 OA
ATOM      4  H   UNK d   1      26.354   8.559  31.101  0.00  0.00     0.162 HD
ENDROOT
BRANCH   2   5
ATOM      5  C   UNK d   1      25.157  10.917  30.767  0.00  0.00     0.081 C 
ATOM      6  C   UNK d   1      24.326  10.808  32.026  0.00  0.00     0.034 C 
ATOM      7  C   UNK d   1      22.875  10.912  31.614  0.00  0.00     0.125 C 
ATOM      8  N   UNK d   1      22.682  12.299  31.202  0.00  0.00    -0.364 N 
ATOM      9  C   UNK d   1      23.730  12.996  30.537  0.00  0.00     0.125 C 
ATOM     10  C   UNK d   1      24.825  12.146  30.004  0.00  0.00     0.034 C 
BRANCH   8  11
ATOM     11  C   UNK d   1      21.433  12.897  31.488  0.00  0.00     0.148 A 
ATOM     12  N   UNK d   1      20.985  13.997  30.854  0.00  0.00    -0.129 NA
ATOM     13  N   UNK d   1      19.824  14.569  31.111  0.00  0.00    -0.108 N 
ATOM     14  N   UNK d   1      19.227  15.638  30.596  0.00  0.00    -0.021 NA
ATOM     15  C   UNK d   1      18.982  14.095  32.036  0.00  0.00     0.196 A 
ATOM     16  N   UNK d   1      18.067  15.835  31.163  0.00  0.00    -0.021 NA
ATOM     17  N   UNK d   1      17.891  14.890  32.062  0.00  0.00    -0.107 NA
ATOM     18  C   UNK d   1      19.385  12.965  32.725  0.00  0.00     0.060 A 
ATOM     19  C   UNK d   1      20.599  12.366  32.457  0.00  0.00     0.056 A 
ENDBRANCH   8  11
ENDBRANCH   2   5
BRANCH   1  20
ATOM     20  C   UNK d   1      25.490   7.336  29.507  0.00  0.00     0.142 C 
BRANCH  20  21
ATOM     21  C   UNK d   1      24.471   6.336  29.862  0.00  0.00     0.142 C 
BRANCH  21  22
ATOM     22  N   UNK d   1      23.311   6.763  30.548  0.00  0.00    -0.355 N 
ATOM     23  C   UNK d   1      22.250   6.052  31.088  0.00  0.00     0.251 C 
ATOM     24  O   UNK d   1      22.195   4.805  31.037  0.00  0.00    -0.268 OA
ATOM     25  H   UNK d   1      23.190   7.858  30.692  0.00  0.00     0.162 HD
BRANCH  23  26
ATOM     26  C   UNK d   1      21.108   6.715  31.762  0.00  0.00     0.032 A 
ATOM     27  C   UNK d   1      21.083   8.088  31.869  0.00  0.00     0.018 A 
ATOM     28  C   UNK d   1      20.041   8.747  32.478  0.00  0.00     0.025 A 
ATOM     29  C   UNK d   1      18.987   8.016  33.000  0.00  0.00     0.034 A 
ATOM     30 Cl   UNK d   1      17.652   8.847  33.781  0.00  0.00    -0.084 Cl
ATOM     31  C   UNK d   1      18.980   6.649  32.910  0.00  0.00     0.025 A 
ATOM     32  C   UNK d   1      20.055   6.012  32.284  0.00  0.00     0.018 A 
ENDBRANCH  23  26
ENDBRANCH  21  22
ENDBRANCH  20  21
ENDBRANCH   1  20
TORSDOF 6
ENDMDL
