/Users/jonathanwahrer/Desktop/Msc/3_Semester/Drug_Design_Praktikum/waehrer_HTS_screening/HTS_experiment/out/docking_results/vina_output/3elj/1507_docked.pdbqt
 OpenBabel03192218243D

 32 35  0  0  1  0  0  0  0  0999 V2000
   25.5090    7.1070   29.5000 C   0  0  0  0  0  0  0  0  0  0  0  0
   24.8060    6.5330   30.4550 C   0  0  0  0  0  0  0  0  0  0  0  0
   23.7090    7.0990   31.3050 C   0  0  2  0  0  3  0  0  0  0  0  0
   22.7840    6.0250   31.3470 N   0  0  0  0  0  0  0  0  0  0  0  0
   23.6280    4.8540   31.5700 C   0  0  0  0  0  0  0  0  0  0  0  0
   23.3130    3.7770   32.1400 O   0  0  0  0  0  0  0  0  0  0  0  0
   24.9280    5.1800   30.9960 C   0  0  0  0  0  0  0  0  0  0  0  0
   25.9980    4.4860   30.9360 O   0  0  0  0  0  0  0  0  0  0  0  0
   25.3100    8.4250   29.1310 O   0  0  0  0  0  1  0  0  0  0  0  0
   26.5440    6.3740   28.7800 C   0  0  0  0  0  0  0  0  0  0  0  0
   26.2340    5.4450   27.8040 C   0  0  0  0  0  3  0  0  0  0  0  0
   27.2600    4.7790   27.1940 C   0  0  0  0  0  3  0  0  0  0  0  0
   28.5890    4.9730   27.4910 C   0  0  0  0  0  0  0  0  0  0  0  0
   29.9750    3.9940   26.5860 Br  0  0  0  0  0  0  0  0  0  0  0  0
   28.9050    5.8970   28.4650 C   0  0  0  0  0  3  0  0  0  0  0  0
   27.8660    6.5870   29.0970 C   0  0  0  0  0  3  0  0  0  0  0  0
   23.3370    8.4350   30.9790 C   0  0  0  0  0  0  0  0  0  0  0  0
   23.7790    9.4670   31.7720 C   0  0  0  0  0  3  0  0  0  0  0  0
   23.4770   10.7820   31.5130 C   0  0  0  0  0  3  0  0  0  0  0  0
   22.6970   11.1220   30.4170 C   0  0  0  0  0  0  0  0  0  0  0  0
   22.2630   10.0720   29.6330 C   0  0  0  0  0  3  0  0  0  0  0  0
   22.3070   12.7890   30.0760 Cl  0  0  0  0  0  0  0  0  0  0  0  0
   22.5700    8.7560   29.8990 C   0  0  0  0  0  3  0  0  0  0  0  0
   21.3390    5.9230   31.2770 C   0  0  0  0  0  2  0  0  0  0  0  0
   20.5590    6.4940   32.3960 C   0  0  0  0  0  2  0  0  0  0  0  0
   19.7840    7.6880   32.0390 N   0  0  0  0  0  4  0  0  0  0  0  0
   20.3000    8.8310   32.7100 C   0  0  0  0  0  2  0  0  0  0  0  0
   19.4050    9.4840   33.7050 C   0  0  0  0  0  2  0  0  0  0  0  0
   18.0500    9.3350   33.4770 O   0  0  0  0  0  0  0  0  0  0  0  0
   17.8230    7.9400   33.5310 C   0  0  0  0  0  2  0  0  0  0  0  0
   18.4040    7.3840   32.2790 C   0  0  0  0  0  2  0  0  0  0  0  0
   19.9190    7.7840   30.9860 H   0  0  0  0  0  0  0  0  0  0  0  0
  1  2  2  0  0  0  0
  2  7  1  0  0  0  0
  2  3  1  0  0  0  0
  3 17  1  6  0  0  0
  3  4  1  0  0  0  0
  4  5  1  0  0  0  0
  5  6  2  0  0  0  0
  7  5  1  0  0  0  0
  8  7  2  0  0  0  0
  9  1  1  0  0  0  0
 10 16  1  0  0  0  0
 10  1  1  0  0  0  0
 11 10  2  0  0  0  0
 12 13  2  0  0  0  0
 12 11  1  0  0  0  0
 13 15  1  0  0  0  0
 14 13  1  0  0  0  0
 15 16  2  0  0  0  0
 17 18  1  0  0  0  0
 19 18  2  0  0  0  0
 20 19  1  0  0  0  0
 21 23  1  0  0  0  0
 21 20  2  0  0  0  0
 22 20  1  0  0  0  0
 23 17  2  0  0  0  0
 24  4  1  0  0  0  0
 24 25  1  0  0  0  0
 26 31  1  0  0  0  0
 26 25  1  0  0  0  0
 26 27  1  0  0  0  0
 27 28  1  0  0  0  0
 29 30  1  0  0  0  0
 29 28  1  0  0  0  0
 31 30  1  0  0  0  0
 32 26  1  0  0  0  0
M  END
>  <Pose>
1

>  <Score>
-8.534

$$$$
