/Users/jonathanwahrer/Desktop/Msc/3_Semester/Drug_Design_Praktikum/waehrer_HTS_screening/HTS_experiment/out/docking_results/vina_output/3elj/1516_docked.pdbqt
 OpenBabel03192218253D

 30 33  0  0  1  0  0  0  0  0999 V2000
   24.2350    8.7220   29.8620 C   0  0  0  0  0  0  0  0  0  0  0  0
   25.5440    8.7770   29.9490 O   0  0  0  0  0  0  0  0  0  0  0  0
   23.6000    9.9310   30.1050 N   0  0  0  0  0  0  0  0  0  0  0  0
   22.1900   10.1320   30.0370 C   0  0  0  0  0  2  0  0  0  0  0  0
   21.9250   11.6560   30.0420 C   0  0  0  0  0  2  0  0  0  0  0  0
   22.3070   12.1510   31.4230 C   0  0  2  0  0  0  0  0  0  0  0  0
   21.5070   11.5090   32.3840 N   0  0  0  0  0  0  0  0  0  0  0  0
   20.2410   12.0090   32.7110 C   0  0  0  0  0  2  0  0  0  0  0  0
   20.0680   13.4810   32.7430 C   0  0  0  0  0  2  0  0  0  0  0  0
   21.1410   14.2210   32.0480 C   0  0  0  0  0  0  0  0  0  0  0  0
   21.2730   15.5550   31.9070 N   0  0  0  0  0  0  0  0  0  0  0  0
   22.3870   15.7910   31.2080 C   0  0  0  0  0  3  0  0  0  0  0  0
   22.9570   14.6010   30.9080 N   0  0  0  0  0  0  0  0  0  0  0  0
   22.1960   13.6170   31.4220 C   0  0  0  0  0  0  0  0  0  0  0  0
   23.7640   11.7260   31.6790 C   0  0  0  0  0  2  0  0  0  0  0  0
   24.3970   11.1170   30.4590 C   0  0  0  0  0  2  0  0  0  0  0  0
   21.7720   10.5910   32.7180 H   0  0  0  0  0  0  0  0  0  0  0  0
   23.8330   14.4780   30.3700 H   0  0  0  0  0  0  0  0  0  0  0  0
   23.7160    7.3980   29.5220 C   0  0  0  0  0  2  0  0  0  0  0  0
   22.9880    6.7290   30.4700 N   0  0  0  0  0  0  0  0  0  0  0  0
   22.2690    6.0670   31.4080 C   0  0  0  0  0  0  0  0  0  0  0  0
   22.4740    4.9050   31.8480 O   0  0  0  0  0  0  0  0  0  0  0  0
   23.7980    5.6320   30.2820 H   0  0  0  0  0  0  0  0  0  0  0  0
   21.0890    6.7700   32.0100 C   0  0  0  0  0  0  0  0  0  0  0  0
   19.8530    6.2100   31.8790 C   0  0  0  0  0  3  0  0  0  0  0  0
   18.7430    6.8540   32.4360 C   0  0  0  0  0  3  0  0  0  0  0  0
   18.9340    8.0350   33.0980 C   0  0  0  0  0  0  0  0  0  0  0  0
   17.5360    8.8450   33.7910 Cl  0  0  0  0  0  0  0  0  0  0  0  0
   20.1710    8.5960   33.2280 C   0  0  0  0  0  3  0  0  0  0  0  0
   21.2830    7.9390   32.6640 C   0  0  0  0  0  3  0  0  0  0  0  0
  1  2  2  0  0  0  0
  1  3  1  0  0  0  0
  3 16  1  0  0  0  0
  4  5  1  0  0  0  0
  4  3  1  0  0  0  0
  6  5  1  6  0  0  0
  6 15  1  0  0  0  0
  6  7  1  0  0  0  0
  7  8  1  0  0  0  0
  7 17  1  0  0  0  0
  8  9  1  0  0  0  0
 10  9  1  0  0  0  0
 11 10  1  0  0  0  0
 12 11  2  0  0  0  0
 13 12  1  0  0  0  0
 13 14  1  0  0  0  0
 14  6  1  0  0  0  0
 14 10  2  0  0  0  0
 16 15  1  0  0  0  0
 18 13  1  0  0  0  0
 19  1  1  0  0  0  0
 19 20  1  0  0  0  0
 20 21  1  0  0  0  0
 21 22  2  0  0  0  0
 21 24  1  0  0  0  0
 23 20  1  0  0  0  0
 24 30  1  0  0  0  0
 25 24  2  0  0  0  0
 25 26  1  0  0  0  0
 26 27  2  0  0  0  0
 27 29  1  0  0  0  0
 27 28  1  0  0  0  0
 30 29  2  0  0  0  0
M  END
>  <Pose>
1

>  <Score>
-9.418

$$$$
