MODEL 1
REMARK VINA RESULT:    -9.418      0.000      0.000
REMARK INTER + INTRA:         -11.722
REMARK INTER:                 -11.070
REMARK INTRA:                  -0.653
REMARK UNBOUND:                -0.653
REMARK  3 active torsions:
REMARK  status: ('A' for Active; 'I' for Inactive)
REMARK    1  A    between atoms: C_5  and  C_8 
REMARK       I    between atoms: C_8  and  N_10 
REMARK    2  A    between atoms: N_10  and  C_11 
REMARK    3  A    between atoms: C_11  and  C_12 
REMARK       I    between atoms: C_12  and  N_14 
ROOT
ATOM      1  C   UNK d   1      24.235   8.722  29.862  0.00  0.00     0.171 C 
ATOM      2  O   UNK d   1      25.544   8.777  29.949  0.00  0.00    -0.175 OA
ATOM      3  N   UNK d   1      23.600   9.931  30.105  0.00  0.00    -0.361 N 
ATOM      4  C   UNK d   1      22.190  10.132  30.037  0.00  0.00     0.127 C 
ATOM      5  C   UNK d   1      21.925  11.656  30.042  0.00  0.00     0.057 C 
ATOM      6  C   UNK d   1      22.307  12.151  31.423  0.00  0.00     0.073 C 
ATOM      7  N   UNK d   1      21.507  11.509  32.384  0.00  0.00    -0.407 N 
ATOM      8  C   UNK d   1      20.241  12.009  32.711  0.00  0.00     0.121 C 
ATOM      9  C   UNK d   1      20.068  13.481  32.743  0.00  0.00     0.080 C 
ATOM     10  C   UNK d   1      21.141  14.221  32.048  0.00  0.00     0.062 A 
ATOM     11  N   UNK d   1      21.273  15.555  31.907  0.00  0.00    -0.246 NA
ATOM     12  C   UNK d   1      22.387  15.791  31.208  0.00  0.00     0.207 A 
ATOM     13  N   UNK d   1      22.957  14.601  30.908  0.00  0.00    -0.350 N 
ATOM     14  C   UNK d   1      22.196  13.617  31.422  0.00  0.00     0.063 A 
ATOM     15  C   UNK d   1      23.764  11.726  31.679  0.00  0.00     0.057 C 
ATOM     16  C   UNK d   1      24.397  11.117  30.459  0.00  0.00     0.127 C 
ATOM     17  H   UNK d   1      21.772  10.591  32.718  0.00  0.00     0.154 HD
ATOM     18  H   UNK d   1      23.833  14.478  30.370  0.00  0.00     0.166 HD
ENDROOT
BRANCH   1  19
ATOM     19  C   UNK d   1      23.716   7.398  29.522  0.00  0.00     0.210 C 
BRANCH  19  20
ATOM     20  N   UNK d   1      22.988   6.729  30.470  0.00  0.00    -0.349 N 
ATOM     21  C   UNK d   1      22.269   6.067  31.408  0.00  0.00     0.252 C 
ATOM     22  O   UNK d   1      22.474   4.905  31.848  0.00  0.00    -0.268 OA
ATOM     23  H   UNK d   1      23.798   5.632  30.282  0.00  0.00     0.163 HD
BRANCH  21  24
ATOM     24  C   UNK d   1      21.089   6.770  32.010  0.00  0.00     0.032 A 
ATOM     25  C   UNK d   1      19.853   6.210  31.879  0.00  0.00     0.018 A 
ATOM     26  C   UNK d   1      18.743   6.854  32.436  0.00  0.00     0.025 A 
ATOM     27  C   UNK d   1      18.934   8.035  33.098  0.00  0.00     0.034 A 
ATOM     28 Cl   UNK d   1      17.536   8.845  33.791  0.00  0.00    -0.084 Cl
ATOM     29  C   UNK d   1      20.171   8.596  33.228  0.00  0.00     0.025 A 
ATOM     30  C   UNK d   1      21.283   7.939  32.664  0.00  0.00     0.018 A 
ENDBRANCH  21  24
ENDBRANCH  19  20
ENDBRANCH   1  19
TORSDOF 3
ENDMDL
