/Users/jonathanwahrer/Desktop/Msc/3_Semester/Drug_Design_Praktikum/waehrer_HTS_screening/HTS_experiment/out/docking_results/vina_output/3elj/1518_docked.pdbqt
 OpenBabel03192218253D

 31 34  0  0  1  0  0  0  0  0999 V2000
   22.5110   14.6820   30.9700 C   0  0  0  0  0  0  0  0  0  0  0  0
   22.4500   15.6200   30.1380 O   0  0  0  0  0  0  0  0  0  0  0  0
   23.3090   13.5440   30.7060 N   0  0  0  0  0  0  0  0  0  0  0  0
   23.4190   12.4280   31.6240 C   0  0  0  0  0  2  0  0  0  0  0  0
   24.8230   11.8570   31.4890 C   0  0  0  0  0  2  0  0  0  0  0  0
   25.0350   11.2950   30.0840 C   0  0  1  0  0  0  0  0  0  0  0  0
   26.4100   11.5280   29.7480 N   0  0  0  0  0  0  0  0  0  0  0  0
   26.8670   10.6530   28.6910 C   0  0  0  0  0  2  0  0  0  0  0  0
   26.9820    9.2360   29.2490 C   0  0  0  0  0  2  0  0  0  0  0  0
   25.6130    8.8560   29.7040 C   0  0  0  0  0  0  0  0  0  0  0  0
   25.0020    7.6410   29.8310 N   0  0  0  0  0  0  0  0  0  0  0  0
   23.7550    7.8520   30.2870 C   0  0  0  0  0  3  0  0  0  0  0  0
   23.5890    9.1780   30.4410 N   0  0  0  0  0  0  0  0  0  0  0  0
   24.7300    9.8400   30.0870 C   0  0  0  0  0  0  0  0  0  0  0  0
   24.1520   12.0090   29.0830 C   0  0  0  0  0  2  0  0  0  0  0  0
   24.0630   13.4560   29.4710 C   0  0  0  0  0  2  0  0  0  0  0  0
   26.5820   12.5210   29.4930 H   0  0  0  0  0  0  0  0  0  0  0  0
   25.4940    6.7500   29.5940 H   0  0  0  0  0  0  0  0  0  0  0  0
   21.7290   14.8040   32.2200 C   0  0  0  0  0  2  0  0  0  0  0  0
   20.2990   14.3970   32.0520 C   0  0  0  0  0  2  0  0  0  0  0  0
   20.2060   12.9510   32.0110 N   0  0  0  0  0  0  0  0  0  0  0  0
   20.0180   12.1500   33.1370 C   0  0  0  0  0  0  0  0  0  0  0  0
   19.9170   12.6750   34.2750 O   0  0  0  0  0  0  0  0  0  0  0  0
   20.2900   12.5270   31.0550 H   0  0  0  0  0  0  0  0  0  0  0  0
   19.9300   10.6940   33.0590 C   0  0  0  0  0  0  0  0  0  0  0  0
   21.0080    9.9110   32.7110 C   0  0  0  0  0  3  0  0  0  0  0  0
   20.8640    8.5330   32.6530 C   0  0  0  0  0  3  0  0  0  0  0  0
   19.6540    7.9150   32.9390 C   0  0  0  0  0  0  0  0  0  0  0  0
   19.5590    6.1680   32.8410 Cl  0  0  0  0  0  0  0  0  0  0  0  0
   18.5680    8.6890   33.2880 C   0  0  0  0  0  3  0  0  0  0  0  0
   18.7280   10.0470   33.3410 C   0  0  0  0  0  3  0  0  0  0  0  0
  1 19  1  0  0  0  0
  2  1  2  0  0  0  0
  3  1  1  0  0  0  0
  3  4  1  0  0  0  0
  5  4  1  0  0  0  0
  6 15  1  6  0  0  0
  6 14  1  0  0  0  0
  6  5  1  0  0  0  0
  7  6  1  0  0  0  0
  8  9  1  0  0  0  0
  8  7  1  0  0  0  0
  9 10  1  0  0  0  0
 10 11  1  0  0  0  0
 10 14  2  0  0  0  0
 11 12  1  0  0  0  0
 12 13  2  0  0  0  0
 14 13  1  0  0  0  0
 15 16  1  0  0  0  0
 16  3  1  0  0  0  0
 17  7  1  0  0  0  0
 18 11  1  0  0  0  0
 20 19  1  0  0  0  0
 21 20  1  0  0  0  0
 21 22  1  0  0  0  0
 22 23  2  0  0  0  0
 24 21  1  0  0  0  0
 25 22  1  0  0  0  0
 25 31  1  0  0  0  0
 26 25  2  0  0  0  0
 27 26  1  0  0  0  0
 27 28  2  0  0  0  0
 28 30  1  0  0  0  0
 29 28  1  0  0  0  0
 30 31  2  0  0  0  0
M  END
>  <Pose>
1

>  <Score>
-9.054

$$$$
