/Users/jonathanwahrer/Desktop/Msc/3_Semester/Drug_Design_Praktikum/waehrer_HTS_screening/HTS_experiment/out/docking_results/vina_output/3elj/1521_docked.pdbqt
 OpenBabel03192218253D

 24 27  0  0  1  0  0  0  0  0999 V2000
   21.3960    5.1260   30.6140 Cl  0  0  0  0  0  0  0  0  0  0  0  0
   21.3050    6.6260   31.5140 C   0  0  0  0  0  0  0  0  0  0  0  0
   22.2620    7.5920   31.3140 C   0  0  0  0  0  0  0  0  0  0  0  0
   23.3510    7.6940   30.5350 N   0  0  0  0  0  0  0  0  0  0  0  0
   23.9750    8.8740   30.7090 C   0  0  0  0  0  0  0  0  0  0  0  0
   23.2310    9.5480   31.6530 C   0  0  0  0  0  0  0  0  0  0  0  0
   22.1640    8.7670   32.0400 C   0  0  0  0  0  0  0  0  0  0  0  0
   21.1210    8.9280   32.9300 C   0  0  0  0  0  3  0  0  0  0  0  0
   20.1530    7.9790   33.1470 C   0  0  0  0  0  3  0  0  0  0  0  0
   20.2550    6.8000   32.4160 C   0  0  0  0  0  3  0  0  0  0  0  0
   23.7260   10.8990   32.0170 C   0  0  0  0  0  2  0  0  0  0  0  0
   23.9090   11.5770   30.7540 N   0  0  0  0  0  0  0  0  0  0  0  0
   24.9430   11.0570   29.9460 C   0  0  0  0  0  2  0  0  0  0  0  0
   25.1650    9.5820   30.1920 C   0  0  0  0  0  2  0  0  0  0  0  0
   23.7120    6.9660   29.8560 H   0  0  0  0  0  0  0  0  0  0  0  0
   23.7090   12.9630   30.7910 C   0  0  0  0  0  2  0  0  0  0  0  0
   22.2770   13.3580   30.6000 C   0  0  1  0  0  0  0  0  0  0  0  0
   21.3740   12.8610   31.6760 C   0  0  0  0  0  2  0  0  0  0  0  0
   20.6740   13.9450   32.2760 N   0  0  0  0  0  0  0  0  0  0  0  0
   21.1120   15.1700   31.6900 C   0  0  0  0  0  3  0  0  0  0  0  0
   19.6320   13.8400   32.2570 H   0  0  0  0  0  0  0  0  0  0  0  0
   22.1770   14.8570   30.6940 C   0  0  0  0  0  3  0  0  0  0  0  0
   21.8220   13.0040   29.3230 O   0  0  0  0  0  0  0  0  0  0  0  0
   22.2890   13.6120   28.6910 H   0  0  0  0  0  0  0  0  0  0  0  0
  1  2  1  0  0  0  0
  2 10  1  0  0  0  0
  3  2  2  0  0  0  0
  3  7  1  0  0  0  0
  4  5  1  0  0  0  0
  4  3  1  0  0  0  0
  5  6  2  0  0  0  0
  6 11  1  0  0  0  0
  6  7  1  0  0  0  0
  7  8  2  0  0  0  0
  8  9  1  0  0  0  0
 10  9  2  0  0  0  0
 12 16  1  0  0  0  0
 12 11  1  0  0  0  0
 13 14  1  0  0  0  0
 13 12  1  0  0  0  0
 14  5  1  0  0  0  0
 15  4  1  0  0  0  0
 17 22  1  0  0  0  0
 17 16  1  1  0  0  0
 17 18  1  0  0  0  0
 18 19  1  0  0  0  0
 20 19  1  0  0  0  0
 21 19  1  0  0  0  0
 22 20  2  0  0  0  0
 23 17  1  0  0  0  0
 24 23  1  0  0  0  0
M  END
>  <Pose>
1

>  <Score>
-8.214

$$$$
