MODEL 1
REMARK VINA RESULT:    -8.214      0.000      0.000
REMARK INTER + INTRA:          -9.422
REMARK INTER:                  -9.414
REMARK INTRA:                  -0.008
REMARK UNBOUND:                -0.008
REMARK  3 active torsions:
REMARK  status: ('A' for Active; 'I' for Inactive)
REMARK    1  A    between atoms: N_12  and  C_15 
REMARK    2  A    between atoms: C_15  and  C_16 
REMARK    3  A    between atoms: C_16  and  O_21 
ROOT
ATOM      1 Cl   UNK d   1      21.396   5.126  30.614  0.00  0.00    -0.082 Cl
ATOM      2  C   UNK d   1      21.305   6.626  31.514  0.00  0.00     0.061 A 
ATOM      3  C   UNK d   1      22.262   7.592  31.314  0.00  0.00     0.065 A 
ATOM      4  N   UNK d   1      23.351   7.694  30.535  0.00  0.00    -0.357 N 
ATOM      5  C   UNK d   1      23.975   8.874  30.709  0.00  0.00     0.020 A 
ATOM      6  C   UNK d   1      23.231   9.548  31.653  0.00  0.00    -0.006 A 
ATOM      7  C   UNK d   1      22.164   8.767  32.040  0.00  0.00     0.002 A 
ATOM      8  C   UNK d   1      21.121   8.928  32.930  0.00  0.00     0.014 A 
ATOM      9  C   UNK d   1      20.153   7.979  33.147  0.00  0.00     0.003 A 
ATOM     10  C   UNK d   1      20.255   6.800  32.416  0.00  0.00     0.026 A 
ATOM     11  C   UNK d   1      23.726  10.899  32.017  0.00  0.00     0.158 C 
ATOM     12  N   UNK d   1      23.909  11.577  30.754  0.00  0.00    -0.405 N 
ATOM     13  C   UNK d   1      24.943  11.057  29.946  0.00  0.00     0.123 C 
ATOM     14  C   UNK d   1      25.165   9.582  30.192  0.00  0.00     0.077 C 
ATOM     15  H   UNK d   1      23.712   6.966  29.856  0.00  0.00     0.166 HD
ENDROOT
BRANCH  12  16
ATOM     16  C   UNK d   1      23.709  12.963  30.791  0.00  0.00     0.156 C 
BRANCH  16  17
ATOM     17  C   UNK d   1      22.277  13.358  30.600  0.00  0.00     0.101 A 
ATOM     18  C   UNK d   1      21.374  12.861  31.676  0.00  0.00     0.308 A 
ATOM     19  N   UNK d   1      20.674  13.945  32.276  0.00  0.00     0.086 N 
ATOM     20  C   UNK d   1      21.112  15.170  31.690  0.00  0.00     0.272 A 
ATOM     21  H   UNK d   1      19.632  13.840  32.257  0.00  0.00     0.315 HD
ATOM     22  C   UNK d   1      22.177  14.857  30.694  0.00  0.00     0.071 A 
BRANCH  17  23
ATOM     23  O   UNK d   1      21.822  13.004  29.323  0.00  0.00    -0.386 OA
ATOM     24  H   UNK d   1      22.289  13.612  28.691  0.00  0.00     0.210 HD
ENDBRANCH  17  23
ENDBRANCH  16  17
ENDBRANCH  12  16
TORSDOF 3
ENDMDL
