MODEL 1
REMARK VINA RESULT:    -8.327      0.000      0.000
REMARK INTER + INTRA:         -10.640
REMARK INTER:                  -9.787
REMARK INTRA:                  -0.853
REMARK UNBOUND:                -0.853
REMARK  3 active torsions:
REMARK  status: ('A' for Active; 'I' for Inactive)
REMARK    1  A    between atoms: C_4  and  N_8 
REMARK    2  A    between atoms: C_11  and  N_15 
REMARK    3  A    between atoms: N_18  and  C_21 
ROOT
ATOM      1  N   UNK d   1      22.877  10.362  31.479  0.00  0.00    -0.251 N 
ATOM      2  C   UNK d   1      22.456  11.357  30.554  0.00  0.00     0.254 C 
ATOM      3  O   UNK d   1      21.633  11.139  29.632  0.00  0.00    -0.270 OA
ATOM      4  C   UNK d   1      23.156  12.586  30.908  0.00  0.00     0.181 C 
ATOM      5  C   UNK d   1      24.451  12.082  31.510  0.00  0.00     0.138 C 
ATOM      6  C   UNK d   1      24.143  10.739  32.035  0.00  0.00     0.233 C 
ATOM      7  O   UNK d   1      24.841  10.041  32.818  0.00  0.00    -0.273 OA
ENDROOT
BRANCH   4   8
ATOM      8  N   UNK d   1      22.470  13.484  31.748  0.00  0.00    -0.397 N 
ATOM      9  C   UNK d   1      21.087  13.650  31.553  0.00  0.00     0.138 C 
ATOM     10  C   UNK d   1      20.861  14.897  30.686  0.00  0.00     0.161 C 
ATOM     11  N   UNK d   1      22.061  15.718  30.684  0.00  0.00    -0.211 N 
ATOM     12  C   UNK d   1      22.909  15.842  31.854  0.00  0.00     0.161 C 
ATOM     13  C   UNK d   1      23.155  14.476  32.450  0.00  0.00     0.138 C 
BRANCH  11  14
ATOM     14  C   UNK d   1      22.467  16.428  29.506  0.00  0.00     0.724 A 
ATOM     15  N   UNK d   1      23.256  15.843  28.580  0.00  0.00    -0.075 NA
ATOM     16  C   UNK d   1      23.620  16.510  27.467  0.00  0.00     0.138 A 
ATOM     17  C   UNK d   1      23.200  17.814  27.231  0.00  0.00     0.040 A 
ATOM     18  C   UNK d   1      22.391  18.406  28.185  0.00  0.00     0.138 A 
ATOM     19  N   UNK d   1      22.062  17.689  29.274  0.00  0.00    -0.075 NA
ENDBRANCH  11  14
ENDBRANCH   4   8
BRANCH   1  20
ATOM     20  C   UNK d   1      22.127   9.187  31.790  0.00  0.00     0.046 A 
ATOM     21  C   UNK d   1      22.444   7.937  31.303  0.00  0.00     0.049 A 
ATOM     22  C   UNK d   1      21.682   6.820  31.637  0.00  0.00     0.013 A 
ATOM     23 Br   UNK d   1      22.111   5.090  30.970  0.00  0.00    -0.051 Br
ATOM     24  C   UNK d   1      20.589   6.939  32.467  0.00  0.00     0.019 A 
ATOM     25  C   UNK d   1      20.255   8.176  32.963  0.00  0.00     0.004 A 
ATOM     26  C   UNK d   1      21.016   9.261  32.624  0.00  0.00     0.030 A 
ENDBRANCH   1  20
TORSDOF 3
ENDMDL
