/Users/jonathanwahrer/Desktop/Msc/3_Semester/Drug_Design_Praktikum/waehrer_HTS_screening/HTS_experiment/out/docking_results/vina_output/3elj/1531_docked.pdbqt
 OpenBabel03192218263D

 27 30  0  0  0  0  0  0  0  0999 V2000
   20.1350   10.1150   32.8320 N   0  0  0  0  0  0  0  0  0  0  0  0
   19.2390    9.0820   32.9100 C   0  0  0  0  0  0  0  0  0  0  0  0
   19.8380    8.0230   32.3610 N   0  0  0  0  0  0  0  0  0  0  0  0
   21.0770    8.3090   31.9280 C   0  0  0  0  0  0  0  0  0  0  0  0
   21.2620    9.6460   32.2310 C   0  0  0  0  0  3  0  0  0  0  0  0
   18.9520    6.8640   32.3970 C   0  0  0  0  0  3  0  0  0  0  0  0
   17.6560    7.3750   32.9550 C   0  0  0  0  0  3  0  0  0  0  0  0
   17.8700    8.7790   33.3940 C   0  0  0  0  0  3  0  0  0  0  0  0
   19.9440   11.4330   33.3350 C   0  0  0  0  0  3  0  0  0  0  0  0
   20.6380   12.5660   32.7710 C   0  0  0  0  0  0  0  0  0  0  0  0
   20.3440   13.7200   33.3370 O   0  0  0  0  0  1  0  0  0  0  0  0
   21.5940   12.6690   31.7010 C   0  0  0  0  0  0  0  0  0  0  0  0
   21.4770   13.4210   30.5720 C   0  0  0  0  0  3  0  0  0  0  0  0
   22.4460   13.4840   29.5610 C   0  0  0  0  0  3  0  0  0  0  0  0
   23.6020   12.7520   29.6820 C   0  0  0  0  0  0  0  0  0  0  0  0
   23.7600   11.9780   30.8090 C   0  0  0  0  0  0  0  0  0  0  0  0
   24.8140   12.8260   28.4240 Cl  0  0  0  0  0  0  0  0  0  0  0  0
   25.2210   11.0420   30.9810 Cl  0  0  0  0  0  0  0  0  0  0  0  0
   22.8050   11.9370   31.7710 C   0  0  0  0  0  3  0  0  0  0  0  0
   22.0560    7.4400   31.2750 C   0  0  0  0  0  0  0  0  0  0  0  0
   22.0980    6.0750   31.4030 C   0  0  0  0  0  3  0  0  0  0  0  0
   23.0680    5.3080   30.7420 C   0  0  0  0  0  3  0  0  0  0  0  0
   24.0250    5.8830   29.9350 C   0  0  0  0  0  0  0  0  0  0  0  0
   23.9910    7.2540   29.8010 C   0  0  0  0  0  3  0  0  0  0  0  0
   23.0350    8.0060   30.4510 C   0  0  0  0  0  3  0  0  0  0  0  0
   24.9910    5.1360   29.2760 O   0  0  0  0  0  0  0  0  0  0  0  0
   25.8140    5.7360   28.2920 C   0  0  0  0  0  1  0  0  0  0  0  0
  1  2  1  0  0  0  0
  1  9  1  0  0  0  0
  2  8  2  0  0  0  0
  3  6  1  0  0  0  0
  3  2  1  0  0  0  0
  4  5  2  0  0  0  0
  4  3  1  0  0  0  0
  5  1  1  0  0  0  0
  6  7  2  0  0  0  0
  7  8  1  0  0  0  0
 10  9  2  0  0  0  0
 10 11  1  0  0  0  0
 12 19  1  0  0  0  0
 12 10  1  0  0  0  0
 13 12  2  0  0  0  0
 14 15  2  0  0  0  0
 14 13  1  0  0  0  0
 15 16  1  0  0  0  0
 16 18  1  0  0  0  0
 16 19  2  0  0  0  0
 17 15  1  0  0  0  0
 20 21  1  0  0  0  0
 20  4  1  0  0  0  0
 22 21  2  0  0  0  0
 23 22  1  0  0  0  0
 24 23  2  0  0  0  0
 24 25  1  0  0  0  0
 25 20  2  0  0  0  0
 26 23  1  0  0  0  0
 27 26  1  0  0  0  0
M  END
>  <Pose>
1

>  <Score>
-9.129

$$$$
