MODEL 1
REMARK VINA RESULT:   -10.671      0.000      0.000
REMARK INTER + INTRA:         -14.471
REMARK INTER:                 -13.791
REMARK INTRA:                  -0.680
REMARK UNBOUND:                -0.680
REMARK  5 active torsions:
REMARK  status: ('A' for Active; 'I' for Inactive)
REMARK    1  A    between atoms: C_6  and  C_8 
REMARK    2  A    between atoms: N_11  and  C_13 
REMARK    3  A    between atoms: C_13  and  C_14 
REMARK    4  A    between atoms: C_14  and  C_16 
REMARK    5  A    between atoms: C_18  and  N_22 
ROOT
ATOM      1  C   UNK d   1      21.006   8.420  32.096  0.00  0.00     0.061 A 
ATOM      2  N   UNK d   1      19.782   8.082  32.532  0.00  0.00    -0.335 N 
ATOM      3  C   UNK d   1      19.221   9.136  33.160  0.00  0.00     0.086 A 
ATOM      4  N   UNK d   1      20.097  10.156  33.123  0.00  0.00    -0.338 N 
ATOM      5  C   UNK d   1      21.223   9.756  32.469  0.00  0.00     0.123 A 
ATOM      6  C   UNK d   1      17.873   8.772  33.656  0.00  0.00     0.078 C 
ATOM      7  C   UNK d   1      17.495   7.738  32.627  0.00  0.00     0.028 C 
ATOM      8  C   UNK d   1      18.826   6.969  32.556  0.00  0.00     0.131 C 
ENDROOT
BRANCH   4   9
ATOM      9  C   UNK d   1      19.912  11.435  33.704  0.00  0.00     0.198 C 
BRANCH   9  10
ATOM     10  C   UNK d   1      19.798  12.643  32.938  0.00  0.00     0.113 C 
ATOM     11  O   UNK d   1      18.561  13.097  32.921  0.00  0.00    -0.194 OA
BRANCH  10  12
ATOM     12  C   UNK d   1      20.756  13.433  32.201  0.00  0.00     0.000 A 
ATOM     13  C   UNK d   1      21.200  14.675  32.567  0.00  0.00     0.050 A 
ATOM     14  C   UNK d   1      22.132  15.382  31.802  0.00  0.00     0.103 A 
ATOM     15  C   UNK d   1      22.626  14.842  30.658  0.00  0.00     0.036 A 
ATOM     16  C   UNK d   1      22.197  13.593  30.266  0.00  0.00     0.003 A 
ATOM     17  C   UNK d   1      21.285  12.892  31.007  0.00  0.00     0.014 A 
BRANCH  14  18
ATOM     18  N   UNK d   1      22.555  16.674  32.239  0.00  0.00    -0.116 N 
ATOM     19  O   UNK d   1      23.248  16.775  33.266  0.00  0.00    -0.532 OA
ATOM     20  O   UNK d   1      22.221  17.805  31.566  0.00  0.00    -0.532 OA
ENDBRANCH  14  18
ENDBRANCH  10  12
ENDBRANCH   9  10
ENDBRANCH   4   9
BRANCH   1  21
ATOM     21  C   UNK d   1      22.007   7.640  31.366  0.00  0.00    -0.006 A 
ATOM     22  C   UNK d   1      22.723   8.220  30.314  0.00  0.00     0.015 A 
ATOM     23  C   UNK d   1      23.683   7.543  29.610  0.00  0.00     0.026 A 
ATOM     24  C   UNK d   1      23.986   6.238  29.915  0.00  0.00     0.055 A 
ATOM     25  C   UNK d   1      23.304   5.639  30.940  0.00  0.00     0.056 A 
ATOM     26 Cl   UNK d   1      25.213   5.382  29.008  0.00  0.00    -0.083 Cl
ATOM     27 Cl   UNK d   1      23.633   3.994  31.383  0.00  0.00    -0.083 Cl
ATOM     28  C   UNK d   1      22.321   6.353  31.653  0.00  0.00     0.039 A 
ENDBRANCH   1  21
TORSDOF 5
ENDMDL
