/Users/jonathanwahrer/Desktop/Msc/3_Semester/Drug_Design_Praktikum/waehrer_HTS_screening/HTS_experiment/out/docking_results/vina_output/3elj/1536_docked.pdbqt
 OpenBabel03192218263D

 31 34  0  0  1  0  0  0  0  0999 V2000
   23.3450   13.3130   31.0240 S   0  0  0  0  0  0  0  0  0  0  0  0
   24.0490   13.7460   32.3140 O   0  0  0  0  0  0  0  0  0  0  0  0
   22.0360   12.7020   31.5320 O   0  0  0  0  0  0  0  0  0  0  0  0
   24.2610   12.1440   30.2990 N   0  0  0  0  0  0  0  0  0  0  0  0
   23.8660   11.4140   29.1840 C   0  0  0  0  0  2  0  0  0  0  0  0
   23.1800   10.1110   29.4420 C   0  0  0  0  0  2  0  0  0  0  0  0
   23.5580    9.6180   30.8370 C   0  0  2  0  0  3  0  0  0  0  0  0
   25.0620    9.9210   30.9300 C   0  0  0  0  0  2  0  0  0  0  0  0
   25.1470   11.4150   31.1990 C   0  0  0  0  0  2  0  0  0  0  0  0
   23.2770    8.2030   31.0160 C   0  0  0  0  0  0  0  0  0  0  0  0
   24.1750    7.3560   30.7710 O   0  0  0  0  0  0  0  0  0  0  0  0
   22.0300    7.7540   31.4610 N   0  0  0  0  0  0  0  0  0  0  0  0
   21.7260    6.3370   31.6900 C   0  0  0  0  0  2  0  0  0  0  0  0
   20.9500    8.6700   31.6990 C   0  0  0  0  0  2  0  0  0  0  0  0
   20.2370    6.2590   31.9560 C   0  0  0  0  0  2  0  0  0  0  0  0
   19.8990    7.0030   33.1540 N   0  0  0  0  0  0  0  0  0  0  0  0
   20.2670    8.4020   33.0290 C   0  0  0  0  0  2  0  0  0  0  0  0
   18.4930    6.8680   33.4690 C   0  0  0  0  0  1  0  0  0  0  0  0
   23.0200   14.7840   30.1550 C   0  0  0  0  0  0  0  0  0  0  0  0
   23.4920   14.9210   28.8390 C   0  0  0  0  0  3  0  0  0  0  0  0
   23.3190   16.0680   28.1090 C   0  0  0  0  0  0  0  0  0  0  0  0
   22.6670   17.1260   28.6620 C   0  0  0  0  0  0  0  0  0  0  0  0
   23.8050   16.1670   26.7980 O   0  0  0  0  0  0  0  0  0  0  0  0
   22.1830   17.0510   29.9430 C   0  0  0  0  0  3  0  0  0  0  0  0
   22.5000   18.3230   27.8820 N   0  0  0  0  0  0  0  0  0  0  0  0
   22.3710   15.8710   30.6650 C   0  0  0  0  0  0  0  0  0  0  0  0
   21.6630   15.8010   32.2700 Cl  0  0  0  0  0  0  0  0  0  0  0  0
   23.0150   18.3750   26.5630 C   0  0  0  0  0  0  0  0  0  0  0  0
   22.0020   19.1360   28.2960 H   0  0  0  0  0  0  0  0  0  0  0  0
   22.5910   19.1980   25.7250 O   0  0  0  0  0  0  0  0  0  0  0  0
   24.0860   17.4080   26.2070 C   0  0  0  0  0  2  0  0  0  0  0  0
  1  3  2  0  0  0  0
  1  2  2  0  0  0  0
  4  1  1  0  0  0  0
  4  9  1  0  0  0  0
  5  6  1  0  0  0  0
  5  4  1  0  0  0  0
  6  7  1  0  0  0  0
  7  8  1  0  0  0  0
  7 10  1  6  0  0  0
  8  9  1  0  0  0  0
 10 12  1  0  0  0  0
 11 10  2  0  0  0  0
 12 13  1  0  0  0  0
 12 14  1  0  0  0  0
 13 15  1  0  0  0  0
 14 17  1  0  0  0  0
 15 16  1  0  0  0  0
 16 18  1  0  0  0  0
 17 16  1  0  0  0  0
 19 26  1  0  0  0  0
 19  1  1  0  0  0  0
 20 19  2  0  0  0  0
 21 22  2  0  0  0  0
 21 20  1  0  0  0  0
 22 24  1  0  0  0  0
 23 21  1  0  0  0  0
 24 26  2  0  0  0  0
 25 29  1  0  0  0  0
 25 22  1  0  0  0  0
 26 27  1  0  0  0  0
 28 25  1  0  0  0  0
 30 28  2  0  0  0  0
 31 28  1  0  0  0  0
 31 23  1  0  0  0  0
M  END
>  <Pose>
1

>  <Score>
-9.219

$$$$
