MODEL 1
REMARK VINA RESULT:    -9.219      0.000      0.000
REMARK INTER + INTRA:         -11.288
REMARK INTER:                 -10.836
REMARK INTRA:                  -0.452
REMARK UNBOUND:                -0.452
REMARK  3 active torsions:
REMARK  status: ('A' for Active; 'I' for Inactive)
REMARK    1  A    between atoms: S_1  and  N_4 
REMARK    2  A    between atoms: S_1  and  C_19 
REMARK    3  A    between atoms: C_7  and  C_10 
REMARK       I    between atoms: C_10  and  N_12 
ROOT
ATOM      1  S   UNK d   1      23.345  13.313  31.024  0.00  0.00     0.262 S 
ATOM      2  O   UNK d   1      24.049  13.746  32.314  0.00  0.00    -0.200 OA
ATOM      3  O   UNK d   1      22.036  12.702  31.532  0.00  0.00    -0.200 OA
ENDROOT
BRANCH   1   4
ATOM      4  N   UNK d   1      24.261  12.144  30.299  0.00  0.00    -0.307 N 
ATOM      5  C   UNK d   1      23.866  11.414  29.184  0.00  0.00     0.136 C 
ATOM      6  C   UNK d   1      23.180  10.111  29.442  0.00  0.00     0.034 C 
ATOM      7  C   UNK d   1      23.558   9.618  30.837  0.00  0.00     0.081 C 
ATOM      8  C   UNK d   1      25.062   9.921  30.930  0.00  0.00     0.034 C 
ATOM      9  C   UNK d   1      25.147  11.415  31.199  0.00  0.00     0.136 C 
BRANCH   7  10
ATOM     10  C   UNK d   1      23.277   8.203  31.016  0.00  0.00     0.224 C 
ATOM     11  O   UNK d   1      24.175   7.356  30.771  0.00  0.00    -0.273 OA
ATOM     12  N   UNK d   1      22.030   7.754  31.461  0.00  0.00    -0.348 N 
ATOM     13  C   UNK d   1      21.726   6.337  31.690  0.00  0.00     0.156 C 
ATOM     14  C   UNK d   1      20.950   8.670  31.699  0.00  0.00     0.156 C 
ATOM     15  C   UNK d   1      20.237   6.259  31.956  0.00  0.00     0.291 C 
ATOM     16  N   UNK d   1      19.899   7.003  33.154  0.00  0.00     0.087 N 
ATOM     17  C   UNK d   1      20.267   8.402  33.029  0.00  0.00     0.291 C 
ATOM     18  C   UNK d   1      18.493   6.868  33.469  0.00  0.00     0.310 C 
ENDBRANCH   7  10
ENDBRANCH   1   4
BRANCH   1  19
ATOM     19  C   UNK d   1      23.020  14.784  30.155  0.00  0.00     0.104 A 
ATOM     20  C   UNK d   1      23.492  14.921  28.839  0.00  0.00     0.066 A 
ATOM     21  C   UNK d   1      23.319  16.068  28.109  0.00  0.00     0.097 A 
ATOM     22  C   UNK d   1      22.667  17.126  28.662  0.00  0.00     0.070 A 
ATOM     23  O   UNK d   1      23.805  16.167  26.798  0.00  0.00    -0.340 OA
ATOM     24  C   UNK d   1      22.183  17.051  29.943  0.00  0.00     0.058 A 
ATOM     25  N   UNK d   1      22.500  18.323  27.882  0.00  0.00    -0.323 N 
ATOM     26  C   UNK d   1      22.371  15.871  30.665  0.00  0.00     0.059 A 
ATOM     27 Cl   UNK d   1      21.663  15.801  32.270  0.00  0.00    -0.083 Cl
ATOM     28  C   UNK d   1      23.015  18.375  26.563  0.00  0.00     0.246 C 
ATOM     29  H   UNK d   1      22.002  19.136  28.296  0.00  0.00     0.169 HD
ATOM     30  O   UNK d   1      22.591  19.198  25.725  0.00  0.00    -0.271 OA
ATOM     31  C   UNK d   1      24.086  17.408  26.207  0.00  0.00     0.278 C 
ENDBRANCH   1  19
TORSDOF 3
ENDMDL
