MODEL 1
REMARK VINA RESULT:    -8.114      0.000      0.000
REMARK INTER + INTRA:         -10.892
REMARK INTER:                 -10.960
REMARK INTRA:                   0.068
REMARK UNBOUND:                 0.068
REMARK  6 active torsions:
REMARK  status: ('A' for Active; 'I' for Inactive)
REMARK    1  A    between atoms: C_5  and  C_8 
REMARK    2  A    between atoms: N_9  and  C_26 
REMARK    3  A    between atoms: C_15  and  C_17 
REMARK    4  A    between atoms: C_20  and  O_23 
REMARK    5  A    between atoms: C_26  and  C_27 
REMARK    6  A    between atoms: C_27  and  N_28 
ROOT
ATOM      1  C   UNK d   1      22.551  10.547  31.616  0.00  0.00     0.161 C 
ATOM      2  N   UNK d   1      22.166  11.288  30.408  0.00  0.00    -0.331 N 
ATOM      3  C   UNK d   1      21.778  10.290  29.474  0.00  0.00     0.295 C 
ATOM      4  O   UNK d   1      20.968  10.418  28.541  0.00  0.00    -0.264 OA
ATOM      5  C   UNK d   1      22.522   9.086  29.831  0.00  0.00     0.250 C 
ATOM      6  O   UNK d   1      22.522   7.934  29.305  0.00  0.00    -0.282 OA
ATOM      7  C   UNK d   1      23.342   9.444  30.998  0.00  0.00     0.062 C 
ATOM      8  C   UNK d   1      24.471   8.874  31.371  0.00  0.00     0.130 C 
ATOM      9  O   UNK d   1      25.088   9.327  32.541  0.00  0.00    -0.190 OA
ENDROOT
BRANCH   1  10
ATOM     10  C   UNK d   1      21.287  10.032  32.196  0.00  0.00    -0.030 A 
ATOM     11  C   UNK d   1      20.396  10.862  32.841  0.00  0.00     0.011 A 
ATOM     12  C   UNK d   1      19.215  10.409  33.389  0.00  0.00     0.024 A 
ATOM     13  C   UNK d   1      18.871   9.072  33.308  0.00  0.00     0.034 A 
ATOM     14 Cl   UNK d   1      17.365   8.473  34.001  0.00  0.00    -0.084 Cl
ATOM     15  C   UNK d   1      19.744   8.226  32.670  0.00  0.00     0.024 A 
ATOM     16  C   UNK d   1      20.922   8.681  32.124  0.00  0.00     0.011 A 
ENDBRANCH   1  10
BRANCH   8  17
ATOM     17  C   UNK d   1      25.104   7.800  30.619  0.00  0.00     0.002 A 
ATOM     18  C   UNK d   1      24.868   6.464  30.899  0.00  0.00     0.024 A 
ATOM     19  C   UNK d   1      25.491   5.450  30.201  0.00  0.00    -0.028 A 
ATOM     20  C   UNK d   1      26.387   5.738  29.181  0.00  0.00     0.074 A 
ATOM     21  C   UNK d   1      25.208   4.037  30.535  0.00  0.00     0.051 C 
ATOM     22  C   UNK d   1      26.631   7.061  28.894  0.00  0.00     0.038 A 
ATOM     23  C   UNK d   1      25.994   8.080  29.608  0.00  0.00     0.017 A 
BRANCH  20  24
ATOM     24  O   UNK d   1      27.023   4.726  28.467  0.00  0.00    -0.355 OA
ATOM     25  C   UNK d   1      26.825   4.641  27.083  0.00  0.00     0.210 C 
ENDBRANCH  20  24
ENDBRANCH   8  17
BRANCH   2  26
ATOM     26  C   UNK d   1      22.179  12.739  30.221  0.00  0.00     0.155 C 
BRANCH  26  27
ATOM     27  C   UNK d   1      22.882  13.321  31.425  0.00  0.00     0.255 C 
BRANCH  27  28
ATOM     28  N   UNK d   1      21.991  14.051  32.287  0.00  0.00    -0.066 N 
ATOM     29  C   UNK d   1      20.654  14.011  31.791  0.00  0.00     0.261 C 
ATOM     30  C   UNK d   1      20.221  15.185  30.978  0.00  0.00     0.195 C 
ATOM     31  O   UNK d   1      20.783  16.382  31.332  0.00  0.00    -0.388 OA
ATOM     32  C   UNK d   1      22.169  16.341  31.393  0.00  0.00     0.195 C 
ATOM     33  C   UNK d   1      22.527  15.369  32.486  0.00  0.00     0.261 C 
ATOM     34  H   UNK d   1      22.002  13.531  33.210  0.00  0.00     0.280 HD
ENDBRANCH  27  28
ENDBRANCH  26  27
ENDBRANCH   2  26
TORSDOF 6
ENDMDL
