/Users/jonathanwahrer/Desktop/Msc/3_Semester/Drug_Design_Praktikum/waehrer_HTS_screening/HTS_experiment/out/docking_results/vina_output/3elj/1539_docked.pdbqt
 OpenBabel03192218273D

 34 37  0  0  1  0  0  0  0  0999 V2000
   22.5510   10.5470   31.6160 C   0  0  2  0  0  3  0  0  0  0  0  0
   22.1660   11.2880   30.4080 N   0  0  0  0  0  0  0  0  0  0  0  0
   21.7780   10.2900   29.4740 C   0  0  0  0  0  0  0  0  0  0  0  0
   20.9680   10.4180   28.5410 O   0  0  0  0  0  0  0  0  0  0  0  0
   22.5220    9.0860   29.8310 C   0  0  0  0  0  0  0  0  0  0  0  0
   22.5220    7.9340   29.3050 O   0  0  0  0  0  0  0  0  0  0  0  0
   23.3420    9.4440   30.9980 C   0  0  0  0  0  0  0  0  0  0  0  0
   24.4710    8.8740   31.3710 C   0  0  0  0  0  0  0  0  0  0  0  0
   25.0880    9.3270   32.5410 O   0  0  0  0  0  1  0  0  0  0  0  0
   21.2870   10.0320   32.1960 C   0  0  0  0  0  0  0  0  0  0  0  0
   20.3960   10.8620   32.8410 C   0  0  0  0  0  3  0  0  0  0  0  0
   19.2150   10.4090   33.3890 C   0  0  0  0  0  3  0  0  0  0  0  0
   18.8710    9.0720   33.3080 C   0  0  0  0  0  0  0  0  0  0  0  0
   17.3650    8.4730   34.0010 Cl  0  0  0  0  0  0  0  0  0  0  0  0
   19.7440    8.2260   32.6700 C   0  0  0  0  0  3  0  0  0  0  0  0
   20.9220    8.6810   32.1240 C   0  0  0  0  0  3  0  0  0  0  0  0
   25.1040    7.8000   30.6190 C   0  0  0  0  0  0  0  0  0  0  0  0
   24.8680    6.4640   30.8990 C   0  0  0  0  0  3  0  0  0  0  0  0
   25.4910    5.4500   30.2010 C   0  0  0  0  0  0  0  0  0  0  0  0
   26.3870    5.7380   29.1810 C   0  0  0  0  0  0  0  0  0  0  0  0
   25.2080    4.0370   30.5350 C   0  0  0  0  0  1  0  0  0  0  0  0
   26.6310    7.0610   28.8940 C   0  0  0  0  0  3  0  0  0  0  0  0
   25.9940    8.0800   29.6080 C   0  0  0  0  0  3  0  0  0  0  0  0
   27.0230    4.7260   28.4670 O   0  0  0  0  0  0  0  0  0  0  0  0
   26.8250    4.6410   27.0830 C   0  0  0  0  0  1  0  0  0  0  0  0
   22.1790   12.7390   30.2210 C   0  0  0  0  0  2  0  0  0  0  0  0
   22.8820   13.3210   31.4250 C   0  0  0  0  0  2  0  0  0  0  0  0
   21.9910   14.0510   32.2870 N   0  0  0  0  0  4  0  0  0  0  0  0
   20.6540   14.0110   31.7910 C   0  0  0  0  0  2  0  0  0  0  0  0
   20.2210   15.1850   30.9780 C   0  0  0  0  0  2  0  0  0  0  0  0
   20.7830   16.3820   31.3320 O   0  0  0  0  0  0  0  0  0  0  0  0
   22.1690   16.3410   31.3930 C   0  0  0  0  0  2  0  0  0  0  0  0
   22.5270   15.3690   32.4860 C   0  0  0  0  0  2  0  0  0  0  0  0
   22.0020   13.5310   33.2100 H   0  0  0  0  0  0  0  0  0  0  0  0
  1 10  1  6  0  0  0
  2  1  1  0  0  0  0
  3  5  1  0  0  0  0
  3  2  1  0  0  0  0
  4  3  2  0  0  0  0
  5  7  1  0  0  0  0
  6  5  2  0  0  0  0
  7  8  2  0  0  0  0
  7  1  1  0  0  0  0
  8  9  1  0  0  0  0
 10 11  1  0  0  0  0
 11 12  2  0  0  0  0
 13 12  1  0  0  0  0
 13 14  1  0  0  0  0
 15 13  2  0  0  0  0
 16 10  2  0  0  0  0
 16 15  1  0  0  0  0
 17 18  1  0  0  0  0
 17  8  1  0  0  0  0
 19 21  1  0  0  0  0
 19 18  2  0  0  0  0
 20 19  1  0  0  0  0
 22 20  2  0  0  0  0
 22 23  1  0  0  0  0
 23 17  2  0  0  0  0
 24 20  1  0  0  0  0
 25 24  1  0  0  0  0
 26  2  1  0  0  0  0
 26 27  1  0  0  0  0
 27 28  1  0  0  0  0
 28 33  1  0  0  0  0
 28 34  1  0  0  0  0
 29 28  1  0  0  0  0
 30 31  1  0  0  0  0
 30 29  1  0  0  0  0
 31 32  1  0  0  0  0
 32 33  1  0  0  0  0
M  END
>  <Pose>
1

>  <Score>
-8.114

$$$$
