MODEL 1
REMARK VINA RESULT:    -9.007      0.000      0.000
REMARK INTER + INTRA:          -9.540
REMARK INTER:                  -9.533
REMARK INTRA:                  -0.007
REMARK UNBOUND:                -0.007
REMARK  1 active torsions:
REMARK  status: ('A' for Active; 'I' for Inactive)
REMARK       I    between atoms: N_10  and  C_13 
REMARK    1  A    between atoms: C_13  and  C_15 
ROOT
ATOM      1 Cl   UNK d   1      21.301  14.078  32.506  0.00  0.00    -0.083 Cl
ATOM      2  C   UNK d   1      21.020  12.343  32.535  0.00  0.00     0.050 A 
ATOM      3  C   UNK d   1      21.742  11.470  31.750  0.00  0.00     0.125 A 
ATOM      4  N   UNK d   1      21.521  10.122  31.774  0.00  0.00    -0.271 N 
ATOM      5  C   UNK d   1      20.582   9.580  32.571  0.00  0.00     0.137 A 
ATOM      6  N   UNK d   1      20.361   8.242  32.597  0.00  0.00    -0.234 NA
ATOM      7  C   UNK d   1      21.072   7.392  31.825  0.00  0.00     0.051 A 
ATOM      8  C   UNK d   1      22.032   7.909  31.005  0.00  0.00     0.053 A 
ATOM      9  C   UNK d   1      22.851   7.011  30.128  0.00  0.00     0.172 C 
ATOM     10  N   UNK d   1      22.877   5.717  30.832  0.00  0.00    -0.342 N 
ATOM     11  C   UNK d   1      21.583   5.120  30.999  0.00  0.00     0.132 C 
ATOM     12  C   UNK d   1      20.733   5.949  31.946  0.00  0.00     0.080 C 
ATOM     13  C   UNK d   1      24.113   5.229  31.247  0.00  0.00     0.274 C 
ATOM     14  O   UNK d   1      25.160   5.919  30.992  0.00  0.00    -0.266 OA
ATOM     15  C   UNK d   1      22.233   9.282  31.003  0.00  0.00     0.263 A 
ATOM     16  O   UNK d   1      23.108   9.763  30.256  0.00  0.00    -0.267 OA
ATOM     17  C   UNK d   1      19.852  10.451  33.364  0.00  0.00     0.053 A 
ATOM     18  C   UNK d   1      20.052  11.815  33.361  0.00  0.00     0.029 A 
ENDROOT
BRANCH  13  19
ATOM     19  C   UNK d   1      24.341   3.970  31.965  0.00  0.00     0.141 A 
ATOM     20  N   UNK d   1      23.540   3.551  32.949  0.00  0.00    -0.253 NA
ATOM     21  C   UNK d   1      23.756   2.403  33.598  0.00  0.00     0.136 A 
ATOM     22  C   UNK d   1      24.820   1.582  33.288  0.00  0.00     0.135 A 
ATOM     23  N   UNK d   1      25.615   2.019  32.296  0.00  0.00    -0.269 NA
ATOM     24  C   UNK d   1      25.422   3.160  31.634  0.00  0.00     0.153 A 
ENDBRANCH  13  19
TORSDOF 1
ENDMDL
