/Users/jonathanwahrer/Desktop/Msc/3_Semester/Drug_Design_Praktikum/waehrer_HTS_screening/HTS_experiment/out/docking_results/vina_output/3elj/1553_docked.pdbqt
 OpenBabel03192218273D

 29 32  0  0  1  0  0  0  0  0999 V2000
   23.2260    5.8060   30.0600 C   0  0  1  0  0  3  0  0  0  0  0  0
   24.2070    6.1780   29.1110 N   0  0  0  0  0  4  0  0  0  0  0  0
   25.3620    5.3350   29.0070 C   0  0  2  0  0  3  0  0  0  0  0  0
   25.9980    5.1840   30.4000 C   0  0  0  0  0  2  0  0  0  0  0  0
   24.9700    4.4690   31.1800 C   0  0  0  0  0  0  0  0  0  0  0  0
   25.0690    3.4610   32.1260 C   0  0  0  0  0  0  0  0  0  0  0  0
   23.7830    3.1660   32.5180 C   0  0  0  0  0  0  0  0  0  0  0  0
   22.9200    3.9490   31.8520 N   0  0  0  0  0  0  0  0  0  0  0  0
   23.6510    4.7600   31.0190 C   0  0  0  0  0  0  0  0  0  0  0  0
   23.6100    2.1760   33.4690 C   0  0  0  0  0  3  0  0  0  0  0  0
   24.7150    1.5390   33.9740 C   0  0  0  0  0  3  0  0  0  0  0  0
   26.0000    1.8360   33.5800 C   0  0  0  0  0  3  0  0  0  0  0  0
   26.1900    2.8310   32.6230 C   0  0  0  0  0  3  0  0  0  0  0  0
   23.7390    6.1800   28.1490 H   0  0  0  0  0  0  0  0  0  0  0  0
   24.5660    7.1590   29.2230 H   0  0  0  0  0  0  0  0  0  0  0  0
   21.8700    3.9820   31.9150 H   0  0  0  0  0  0  0  0  0  0  0  0
   22.8480    7.0140   30.8800 C   0  0  0  0  0  0  0  0  0  0  0  0
   21.6240    7.1110   31.5170 C   0  0  0  0  0  0  0  0  0  0  0  0
   21.3020    8.2390   32.2780 C   0  0  0  0  0  0  0  0  0  0  0  0
   19.6030    8.3570   33.1480 Br  0  0  0  0  0  0  0  0  0  0  0  0
   22.1850    9.2750   32.4120 C   0  0  0  0  0  3  0  0  0  0  0  0
   23.4030    9.1820   31.7800 C   0  0  0  0  0  0  0  0  0  0  0  0
   23.7310    8.0650   31.0230 C   0  0  0  0  0  3  0  0  0  0  0  0
   24.6730   10.6210   31.9410 Br  0  0  0  0  0  0  0  0  0  0  0  0
   20.6660    6.1330   31.4490 O   0  0  0  0  0  0  0  0  0  0  0  0
   20.6180    5.3160   31.9940 H   0  0  0  0  0  0  0  0  0  0  0  0
   26.3250    5.9210   28.0520 C   0  0  0  0  0  0  0  0  0  0  0  0
   26.6750    7.1200   28.1970 O   0  0  0  0  0  1  0  0  0  0  0  0
   26.8210    5.1420   27.0190 O   0  0  0  0  0  0  0  0  0  0  0  0
  1 17  1  1  0  0  0
  1  9  1  0  0  0  0
  2 15  1  0  0  0  0
  2  1  1  0  0  0  0
  3 27  1  6  0  0  0
  3  2  1  0  0  0  0
  3  4  1  0  0  0  0
  4  5  1  0  0  0  0
  5  6  1  0  0  0  0
  6  7  2  0  0  0  0
  6 13  1  0  0  0  0
  7 10  1  0  0  0  0
  8 16  1  0  0  0  0
  8  7  1  0  0  0  0
  9  5  2  0  0  0  0
  9  8  1  0  0  0  0
 10 11  2  0  0  0  0
 12 11  1  0  0  0  0
 13 12  2  0  0  0  0
 14  2  1  0  0  0  0
 17 23  2  0  0  0  0
 17 18  1  0  0  0  0
 18 19  2  0  0  0  0
 19 21  1  0  0  0  0
 19 20  1  0  0  0  0
 22 24  1  0  0  0  0
 22 21  2  0  0  0  0
 23 22  1  0  0  0  0
 25 18  1  0  0  0  0
 25 26  1  0  0  0  0
 27 28  1  0  0  0  0
 29 27  2  0  0  0  0
M  END
>  <Pose>
1

>  <Score>
-8.551

$$$$
