MODEL 1
REMARK VINA RESULT:    -8.551      0.000      0.000
REMARK INTER + INTRA:         -10.653
REMARK INTER:                  -9.801
REMARK INTRA:                  -0.852
REMARK UNBOUND:                -0.852
REMARK  3 active torsions:
REMARK  status: ('A' for Active; 'I' for Inactive)
REMARK    1  A    between atoms: C_3  and  O_25 
REMARK    2  A    between atoms: C_4  and  C_9 
REMARK    3  A    between atoms: C_11  and  C_22 
ROOT
ATOM      1  C   UNK d   1      23.226   5.806  30.060  0.00  0.00     0.272 C 
ATOM      2  N   UNK d   1      24.207   6.178  29.111  0.00  0.00    -0.047 N 
ATOM      3  C   UNK d   1      25.362   5.335  29.007  0.00  0.00     0.291 C 
ATOM      4  C   UNK d   1      25.998   5.184  30.400  0.00  0.00     0.086 C 
ATOM      5  C   UNK d   1      24.970   4.469  31.180  0.00  0.00    -0.018 A 
ATOM      6  C   UNK d   1      25.069   3.461  32.126  0.00  0.00    -0.001 A 
ATOM      7  C   UNK d   1      23.783   3.166  32.518  0.00  0.00     0.043 A 
ATOM      8  N   UNK d   1      22.920   3.949  31.852  0.00  0.00    -0.356 N 
ATOM      9  C   UNK d   1      23.651   4.760  31.019  0.00  0.00     0.052 A 
ATOM     10  C   UNK d   1      23.610   2.176  33.469  0.00  0.00     0.030 A 
ATOM     11  C   UNK d   1      24.715   1.539  33.974  0.00  0.00     0.002 A 
ATOM     12  C   UNK d   1      26.000   1.836  33.580  0.00  0.00     0.001 A 
ATOM     13  C   UNK d   1      26.190   2.831  32.623  0.00  0.00     0.014 A 
ATOM     14  H   UNK d   1      23.739   6.180  28.149  0.00  0.00     0.279 HD
ATOM     15  H   UNK d   1      24.566   7.159  29.223  0.00  0.00     0.279 HD
ATOM     16  H   UNK d   1      21.870   3.982  31.915  0.00  0.00     0.166 HD
ENDROOT
BRANCH   1  17
ATOM     17  C   UNK d   1      22.848   7.014  30.880  0.00  0.00     0.014 A 
ATOM     18  C   UNK d   1      21.624   7.111  31.517  0.00  0.00     0.091 A 
ATOM     19  C   UNK d   1      21.302   8.239  32.278  0.00  0.00     0.046 A 
ATOM     20 Br   UNK d   1      19.603   8.357  33.148  0.00  0.00    -0.048 Br
ATOM     21  C   UNK d   1      22.185   9.275  32.412  0.00  0.00     0.041 A 
ATOM     22  C   UNK d   1      23.403   9.182  31.780  0.00  0.00     0.013 A 
ATOM     23  C   UNK d   1      23.731   8.065  31.023  0.00  0.00     0.031 A 
ATOM     24 Br   UNK d   1      24.673  10.621  31.941  0.00  0.00    -0.051 Br
BRANCH  18  25
ATOM     25  O   UNK d   1      20.666   6.133  31.449  0.00  0.00    -0.359 OA
ATOM     26  H   UNK d   1      20.618   5.316  31.994  0.00  0.00     0.217 HD
ENDBRANCH  18  25
ENDBRANCH   1  17
BRANCH   3  27
ATOM     27  C   UNK d   1      26.325   5.921  28.052  0.00  0.00     0.205 C 
ATOM     28  O   UNK d   1      26.675   7.120  28.197  0.00  0.00    -0.646 OA
ATOM     29  O   UNK d   1      26.821   5.142  27.019  0.00  0.00    -0.646 OA
ENDBRANCH   3  27
TORSDOF 3
ENDMDL
