MODEL 1
REMARK VINA RESULT:    -8.810      0.000      0.000
REMARK INTER + INTRA:         -12.062
REMARK INTER:                 -11.385
REMARK INTRA:                  -0.677
REMARK UNBOUND:                -0.677
REMARK  5 active torsions:
REMARK  status: ('A' for Active; 'I' for Inactive)
REMARK    1  A    between atoms: C_7  and  C_11 
REMARK    2  A    between atoms: C_11  and  O_12 
REMARK    3  A    between atoms: O_12  and  C_13 
REMARK    4  A    between atoms: C_13  and  C_15 
REMARK    5  A    between atoms: C_15  and  N_16 
ROOT
ATOM      1  O   UNK d   1      21.014   7.588  32.031  0.00  0.00    -0.314 OA
ENDROOT
BRANCH   1   2
ATOM      2  C   UNK d   1      20.374   8.327  33.033  0.00  0.00     0.238 C 
BRANCH   2   3
ATOM      3  C   UNK d   1      20.514   9.791  32.846  0.00  0.00     0.066 A 
ATOM      4  N   UNK d   1      21.527  10.352  32.157  0.00  0.00    -0.233 NA
ATOM      5  C   UNK d   1      21.629  11.675  32.004  0.00  0.00     0.137 A 
ATOM      6  N   UNK d   1      20.733  12.553  32.522  0.00  0.00    -0.272 N 
ATOM      7  C   UNK d   1      22.707  12.177  31.278  0.00  0.00     0.052 A 
ATOM      8  C   UNK d   1      20.880  13.873  32.338  0.00  0.00     0.121 A 
ATOM      9  C   UNK d   1      19.700  12.019  33.222  0.00  0.00     0.255 A 
ATOM     10  C   UNK d   1      21.930  14.406  31.629  0.00  0.00     0.027 A 
ATOM     11 Br   UNK d   1      22.101  16.311  31.390  0.00  0.00    -0.050 Br
ATOM     12  C   UNK d   1      22.847  13.537  31.097  0.00  0.00     0.024 A 
ATOM     13  C   UNK d   1      19.583  10.653  33.387  0.00  0.00     0.104 A 
ATOM     14  O   UNK d   1      18.870  12.842  33.699  0.00  0.00    -0.268 OA
ENDBRANCH   2   3
ENDBRANCH   1   2
BRANCH   1  15
ATOM     15  C   UNK d   1      20.907   6.228  31.848  0.00  0.00     0.277 C 
ATOM     16  O   UNK d   1      20.276   5.599  32.744  0.00  0.00    -0.263 OA
BRANCH  15  17
ATOM     17  C   UNK d   1      21.491   5.525  30.674  0.00  0.00     0.245 C 
BRANCH  17  18
ATOM     18  N   UNK d   1      22.953   5.582  30.688  0.00  0.00    -0.278 N 
ATOM     19  C   UNK d   1      23.848   4.678  31.331  0.00  0.00     0.232 C 
ATOM     20  O   UNK d   1      23.545   3.575  31.849  0.00  0.00    -0.273 OA
ATOM     21  C   UNK d   1      25.205   5.271  31.281  0.00  0.00     0.091 C 
ATOM     22  C   UNK d   1      25.121   6.036  29.980  0.00  0.00     0.091 C 
ATOM     23  C   UNK d   1      26.309   4.299  31.363  0.00  0.00     0.015 C 
ATOM     24  C   UNK d   1      25.226   5.140  28.762  0.00  0.00     0.015 C 
ATOM     25  C   UNK d   1      23.744   6.575  30.057  0.00  0.00     0.232 C 
ATOM     26  C   UNK d   1      25.571   3.715  29.104  0.00  0.00     0.001 C 
ATOM     27  C   UNK d   1      26.708   3.653  30.084  0.00  0.00     0.001 C 
ATOM     28  O   UNK d   1      23.327   7.702  29.645  0.00  0.00    -0.273 OA
ENDBRANCH  17  18
ENDBRANCH  15  17
ENDBRANCH   1  15
TORSDOF 5
ENDMDL
