MODEL 1
REMARK VINA RESULT:    -8.568      0.000      0.000
REMARK INTER + INTRA:         -10.814
REMARK INTER:                 -10.571
REMARK INTRA:                  -0.243
REMARK UNBOUND:                -0.243
REMARK  4 active torsions:
REMARK  status: ('A' for Active; 'I' for Inactive)
REMARK    1  A    between atoms: C_3  and  N_8 
REMARK       I    between atoms: N_11  and  C_14 
REMARK    2  A    between atoms: C_14  and  C_16 
REMARK    3  A    between atoms: C_16  and  N_17 
REMARK    4  A    between atoms: C_19  and  C_23 
REMARK       I    between atoms: C_23  and  N_25 
ROOT
ATOM      1  N   UNK d   1      22.681  11.186  31.024  0.00  0.00    -0.376 N 
ATOM      2  C   UNK d   1      24.062  11.017  31.423  0.00  0.00     0.143 C 
ATOM      3  C   UNK d   1      24.761  10.143  30.386  0.00  0.00     0.145 C 
ATOM      4  N   UNK d   1      23.872   9.065  29.984  0.00  0.00    -0.348 N 
ATOM      5  C   UNK d   1      22.579   9.407  29.439  0.00  0.00     0.145 C 
ATOM      6  C   UNK d   1      22.376  10.893  29.615  0.00  0.00     0.143 C 
ATOM      7  C   UNK d   1      24.247   7.698  30.114  0.00  0.00     0.239 C 
ATOM      8  O   UNK d   1      25.393   7.434  30.593  0.00  0.00    -0.271 OA
ENDROOT
BRANCH   7   9
ATOM      9  C   UNK d   1      23.390   6.571  29.729  0.00  0.00     0.254 C 
BRANCH   9  10
ATOM     10  N   UNK d   1      23.464   5.442  30.654  0.00  0.00    -0.265 N 
ATOM     11  N   UNK d   1      24.459   4.607  30.878  0.00  0.00    -0.167 NA
ATOM     12  C   UNK d   1      24.170   3.689  31.803  0.00  0.00     0.146 A 
ATOM     13  C   UNK d   1      22.876   3.951  32.215  0.00  0.00     0.065 A 
ATOM     14  C   UNK d   1      22.462   5.044  31.487  0.00  0.00     0.029 A 
ATOM     15  C   UNK d   1      21.132   5.678  31.599  0.00  0.00     0.070 C 
BRANCH  12  16
ATOM     16  C   UNK d   1      25.053   2.614  32.289  0.00  0.00     0.274 C 
ATOM     17  O   UNK d   1      24.568   1.539  32.694  0.00  0.00    -0.266 OA
ATOM     18  N   UNK d   1      26.450   2.823  32.284  0.00  0.00    -0.343 N 
ATOM     19  C   UNK d   1      27.078   4.033  31.832  0.00  0.00     0.152 C 
ATOM     20  C   UNK d   1      27.339   1.761  32.763  0.00  0.00     0.152 C 
ATOM     21  C   UNK d   1      28.573   3.883  32.141  0.00  0.00     0.187 C 
ATOM     22  O   UNK d   1      28.777   3.558  33.464  0.00  0.00    -0.388 OA
ATOM     23  C   UNK d   1      28.222   2.357  33.839  0.00  0.00     0.187 C 
ENDBRANCH  12  16
ENDBRANCH   9  10
ENDBRANCH   7   9
BRANCH   1  24
ATOM     24  C   UNK d   1      21.634  11.595  31.852  0.00  0.00     0.052 A 
ATOM     25  C   UNK d   1      20.918  10.758  32.681  0.00  0.00     0.060 A 
ATOM     26 Cl   UNK d   1      21.320   9.079  32.717  0.00  0.00    -0.082 Cl
ATOM     27  C   UNK d   1      19.888  11.203  33.487  0.00  0.00     0.026 A 
ATOM     28  C   UNK d   1      19.546  12.519  33.480  0.00  0.00     0.002 A 
ATOM     29  C   UNK d   1      20.230  13.389  32.672  0.00  0.00     0.002 A 
ATOM     30  C   UNK d   1      21.258  12.936  31.868  0.00  0.00     0.031 A 
ENDBRANCH   1  24
TORSDOF 4
ENDMDL
