/Users/jonathanwahrer/Desktop/Msc/3_Semester/Drug_Design_Praktikum/waehrer_HTS_screening/HTS_experiment/out/docking_results/vina_output/3elj/1581_docked.pdbqt
 OpenBabel03192218283D

 27 30  0  0  1  0  0  0  0  0999 V2000
   24.8980   10.9190   30.9240 N   0  0  0  0  0  0  0  0  0  0  0  0
   24.4690   10.8110   29.5920 C   0  0  0  0  0  2  0  0  0  0  0  0
   23.0970   11.3220   29.3050 C   0  0  0  0  0  2  0  0  0  0  0  0
   22.7040   12.3840   30.2200 N   0  0  0  0  0  0  0  0  0  0  0  0
   21.5680   13.0780   30.1770 N   0  0  0  0  0  0  0  0  0  0  0  0
   21.5580   13.9670   31.1740 C   0  0  0  0  0  0  0  0  0  0  0  0
   22.7360   13.8150   31.8600 C   0  0  0  0  0  3  0  0  0  0  0  0
   23.4690   12.7970   31.2430 C   0  0  0  0  0  0  0  0  0  0  0  0
   24.7960   12.1980   31.5320 C   0  0  0  0  0  2  0  0  0  0  0  0
   24.7870    9.7970   31.7590 C   0  0  0  0  0  2  0  0  0  0  0  0
   23.4570    9.1790   31.8520 C   0  0  0  0  0  0  0  0  0  0  0  0
   22.3900    9.7610   32.4280 N   0  0  0  0  0  0  0  0  0  0  0  0
   21.1860    9.1630   32.4960 C   0  0  0  0  0  0  0  0  0  0  0  0
   20.9590    7.9390   31.9920 N   0  0  0  0  0  0  0  0  0  0  0  0
   20.1590    9.8760   33.1210 C   0  0  0  0  0  3  0  0  0  0  0  0
   19.7420    7.3430   32.0640 C   0  0  0  0  0  3  0  0  0  0  0  0
   21.9930    7.3060   31.4030 C   0  0  0  0  0  0  0  0  0  0  0  0
   18.7270    8.0400   32.6790 C   0  0  0  0  0  0  0  0  0  0  0  0
   17.1490    7.2720   32.7740 Cl  0  0  0  0  0  0  0  0  0  0  0  0
   18.9160    9.3000   33.2090 C   0  0  0  0  0  3  0  0  0  0  0  0
   23.2240    7.9170   31.3330 C   0  0  0  0  0  3  0  0  0  0  0  0
   21.8240    6.1460   30.9120 O   0  0  0  0  0  0  0  0  0  0  0  0
   20.4620   14.9410   31.4770 C   0  0  1  0  0  3  0  0  0  0  0  0
   20.5180   15.9590   30.5120 O   0  0  0  0  0  0  0  0  0  0  0  0
   20.1060   16.8010   30.8640 H   0  0  0  0  0  0  0  0  0  0  0  0
   19.1030   14.2700   31.2930 C   0  0  0  0  0  2  0  0  0  0  0  0
   18.8470   13.3720   32.4940 C   0  0  0  0  0  1  0  0  0  0  0  0
  1  9  1  0  0  0  0
  1 10  1  0  0  0  0
  2  1  1  0  0  0  0
  3  2  1  0  0  0  0
  3  4  1  0  0  0  0
  4  8  1  0  0  0  0
  5  4  1  0  0  0  0
  5  6  2  0  0  0  0
  6 23  1  0  0  0  0
  6  7  1  0  0  0  0
  8  9  1  0  0  0  0
  8  7  2  0  0  0  0
 10 11  1  0  0  0  0
 11 12  1  0  0  0  0
 12 13  2  0  0  0  0
 13 15  1  0  0  0  0
 14 16  1  0  0  0  0
 14 13  1  0  0  0  0
 15 20  2  0  0  0  0
 16 18  2  0  0  0  0
 17 14  1  0  0  0  0
 18 19  1  0  0  0  0
 18 20  1  0  0  0  0
 21 17  1  0  0  0  0
 21 11  2  0  0  0  0
 22 17  2  0  0  0  0
 23 26  1  6  0  0  0
 24 25  1  0  0  0  0
 24 23  1  0  0  0  0
 26 27  1  0  0  0  0
M  END
>  <Pose>
1

>  <Score>
-8.514

$$$$
