MODEL 1
REMARK VINA RESULT:    -8.718      0.000      0.000
REMARK INTER + INTRA:         -10.653
REMARK INTER:                 -10.501
REMARK INTRA:                  -0.152
REMARK UNBOUND:                -0.152
REMARK  4 active torsions:
REMARK  status: ('A' for Active; 'I' for Inactive)
REMARK    1  A    between atoms: C_7  and  C_9 
REMARK       I    between atoms: C_9  and  N_11 
REMARK    2  A    between atoms: N_17  and  C_20 
REMARK    3  A    between atoms: C_20  and  C_21 
REMARK    4  A    between atoms: C_21  and  O_22 
ROOT
ATOM      1  C   UNK d   1      21.400  12.293  31.975  0.00  0.00     0.274 C 
ATOM      2  O   UNK d   1      20.309  12.929  32.219  0.00  0.00    -0.266 OA
ATOM      3  N   UNK d   1      22.517  13.061  31.712  0.00  0.00    -0.341 N 
ATOM      4  C   UNK d   1      23.822  12.514  31.426  0.00  0.00     0.131 C 
ATOM      5  C   UNK d   1      24.208  12.762  29.984  0.00  0.00     0.066 C 
ATOM      6  C   UNK d   1      23.711  14.115  29.560  0.00  0.00     0.039 A 
ATOM      7  C   UNK d   1      22.922  14.931  30.324  0.00  0.00     0.056 A 
ATOM      8  N   UNK d   1      22.710  16.040  29.569  0.00  0.00    -0.297 N 
ATOM      9  N   UNK d   1      23.318  15.940  28.408  0.00  0.00    -0.255 N 
ATOM     10  C   UNK d   1      23.958  14.766  28.341  0.00  0.00     0.270 A 
ATOM     11  O   UNK d   1      24.657  14.302  27.384  0.00  0.00    -0.266 OA
ATOM     12  C   UNK d   1      22.469  14.543  31.691  0.00  0.00     0.185 C 
ATOM     13  H   UNK d   1      22.130  16.842  29.914  0.00  0.00     0.187 HD
ENDROOT
BRANCH   1  14
ATOM     14  C   UNK d   1      21.334  10.842  32.000  0.00  0.00     0.142 A 
ATOM     15  N   UNK d   1      20.570  10.054  32.757  0.00  0.00    -0.224 NA
ATOM     16  C   UNK d   1      20.825   8.770  32.459  0.00  0.00     0.134 A 
ATOM     17  N   UNK d   1      21.761   8.729  31.504  0.00  0.00    -0.313 N 
ATOM     18  C   UNK d   1      20.254   7.609  33.007  0.00  0.00     0.052 A 
ATOM     19  C   UNK d   1      22.187   7.523  31.034  0.00  0.00     0.122 A 
ATOM     20  C   UNK d   1      22.101   9.987  31.193  0.00  0.00     0.135 A 
ATOM     21  C   UNK d   1      21.645   6.370  31.554  0.00  0.00     0.050 A 
ATOM     22 Cl   UNK d   1      22.163   4.796  30.980  0.00  0.00    -0.083 Cl
ATOM     23  C   UNK d   1      20.676   6.402  32.542  0.00  0.00     0.029 A 
ENDBRANCH   1  14
BRANCH   9  24
ATOM     24  C   UNK d   1      23.334  16.920  27.313  0.00  0.00     0.178 C 
BRANCH  24  25
ATOM     25  C   UNK d   1      22.815  18.259  27.784  0.00  0.00     0.186 C 
BRANCH  25  26
ATOM     26  O   UNK d   1      21.439  18.251  27.980  0.00  0.00    -0.399 OA
ATOM     27  H   UNK d   1      21.038  17.349  27.800  0.00  0.00     0.209 HD
ENDBRANCH  25  26
ENDBRANCH  24  25
ENDBRANCH   9  24
TORSDOF 4
ENDMDL
