MODEL 1
REMARK VINA RESULT:    -7.730      0.000      0.000
REMARK INTER + INTRA:         -10.755
REMARK INTER:                  -9.538
REMARK INTRA:                  -1.217
REMARK UNBOUND:                -1.217
REMARK  4 active torsions:
REMARK  status: ('A' for Active; 'I' for Inactive)
REMARK    1  A    between atoms: C_4  and  C_8 
REMARK    2  A    between atoms: C_8  and  N_9 
REMARK    3  A    between atoms: C_13  and  N_14 
REMARK       I    between atoms: N_17  and  C_20 
REMARK    4  A    between atoms: C_20  and  C_22 
ROOT
ATOM      1  N   UNK d   1      22.920   7.881  30.713  0.00  0.00    -0.168 N 
ATOM      2  C   UNK d   1      23.004   6.554  30.940  0.00  0.00     0.167 A 
ATOM      3  C   UNK d   1      24.326   6.273  31.192  0.00  0.00     0.185 A 
ATOM      4  N   UNK d   1      24.991   7.409  31.111  0.00  0.00    -0.044 NA
ATOM      5  C   UNK d   1      24.138   8.421  30.817  0.00  0.00     0.707 A 
ATOM      6  N   UNK d   1      24.664   4.979  31.455  0.00  0.00    -0.286 N 
ATOM      7  C   UNK d   1      23.749   4.003  31.472  0.00  0.00     0.330 A 
ATOM      8  O   UNK d   1      24.112   2.819  31.722  0.00  0.00    -0.246 OA
ATOM      9  N   UNK d   1      22.451   4.233  31.233  0.00  0.00    -0.273 N 
ATOM     10  C   UNK d   1      22.086   5.510  30.968  0.00  0.00     0.280 A 
ATOM     11  O   UNK d   1      20.875   5.731  30.745  0.00  0.00    -0.265 OA
ATOM     12  C   UNK d   1      26.063   4.660  31.730  0.00  0.00     0.163 C 
ATOM     13  H   UNK d   1      21.770   3.442  31.257  0.00  0.00     0.173 HD
ENDROOT
BRANCH   5  14
ATOM     14  N   UNK d   1      24.522   9.802  30.724  0.00  0.00    -0.212 N 
ATOM     15  C   UNK d   1      24.677  10.383  29.375  0.00  0.00     0.161 C 
ATOM     16  C   UNK d   1      23.815  11.589  29.187  0.00  0.00     0.146 C 
ATOM     17  N   UNK d   1      23.485  12.200  30.454  0.00  0.00    -0.349 N 
ATOM     18  C   UNK d   1      24.473  12.118  31.509  0.00  0.00     0.146 C 
ATOM     19  C   UNK d   1      22.242  12.861  30.643  0.00  0.00     0.219 C 
ATOM     20  C   UNK d   1      24.756  10.660  31.829  0.00  0.00     0.161 C 
ATOM     21  O   UNK d   1      21.416  12.937  29.707  0.00  0.00    -0.273 OA
BRANCH  19  22
ATOM     22  C   UNK d   1      21.887  13.476  31.944  0.00  0.00     0.098 C 
ATOM     23  C   UNK d   1      20.393  13.788  31.903  0.00  0.00     0.014 C 
ENDBRANCH  19  22
ENDBRANCH   5  14
BRANCH   1  24
ATOM     24  C   UNK d   1      21.682   8.547  30.464  0.00  0.00     0.186 C 
BRANCH  24  25
ATOM     25  C   UNK d   1      20.896   8.924  31.663  0.00  0.00    -0.038 A 
ATOM     26  C   UNK d   1      19.740   8.281  32.005  0.00  0.00     0.032 A 
ATOM     27  C   UNK d   1      19.037   8.722  33.119  0.00  0.00     0.034 A 
ATOM     28 Cl   UNK d   1      17.552   7.869  33.537  0.00  0.00    -0.084 Cl
ATOM     29  C   UNK d   1      19.448   9.780  33.900  0.00  0.00     0.024 A 
ATOM     30  C   UNK d   1      20.620  10.422  33.539  0.00  0.00     0.002 A 
ATOM     31  C   UNK d   1      21.331  10.008  32.449  0.00  0.00     0.009 A 
ENDBRANCH  24  25
ENDBRANCH   1  24
TORSDOF 4
ENDMDL
