/Users/jonathanwahrer/Desktop/Msc/3_Semester/Drug_Design_Praktikum/waehrer_HTS_screening/HTS_experiment/out/docking_results/vina_output/3elj/1612_docked.pdbqt
 OpenBabel03192218293D

 31 34  0  0  0  0  0  0  0  0999 V2000
   22.9200    7.8810   30.7130 N   0  0  0  0  0  0  0  0  0  0  0  0
   23.0040    6.5540   30.9400 C   0  0  0  0  0  0  0  0  0  0  0  0
   24.3260    6.2730   31.1920 C   0  0  0  0  0  0  0  0  0  0  0  0
   24.9910    7.4090   31.1110 N   0  0  0  0  0  0  0  0  0  0  0  0
   24.1380    8.4210   30.8170 C   0  0  0  0  0  0  0  0  0  0  0  0
   24.6640    4.9790   31.4550 N   0  0  0  0  0  0  0  0  0  0  0  0
   23.7490    4.0030   31.4720 C   0  0  0  0  0  0  0  0  0  0  0  0
   24.1120    2.8190   31.7220 O   0  0  0  0  0  0  0  0  0  0  0  0
   22.4510    4.2330   31.2330 N   0  0  0  0  0  0  0  0  0  0  0  0
   22.0860    5.5100   30.9680 C   0  0  0  0  0  0  0  0  0  0  0  0
   20.8750    5.7310   30.7450 O   0  0  0  0  0  0  0  0  0  0  0  0
   26.0630    4.6600   31.7300 C   0  0  0  0  0  1  0  0  0  0  0  0
   21.7700    3.4420   31.2570 H   0  0  0  0  0  0  0  0  0  0  0  0
   24.5220    9.8020   30.7240 N   0  0  0  0  0  0  0  0  0  0  0  0
   24.6770   10.3830   29.3750 C   0  0  0  0  0  2  0  0  0  0  0  0
   23.8150   11.5890   29.1870 C   0  0  0  0  0  2  0  0  0  0  0  0
   23.4850   12.2000   30.4540 N   0  0  0  0  0  0  0  0  0  0  0  0
   24.4730   12.1180   31.5090 C   0  0  0  0  0  2  0  0  0  0  0  0
   22.2420   12.8610   30.6430 C   0  0  0  0  0  0  0  0  0  0  0  0
   24.7560   10.6600   31.8290 C   0  0  0  0  0  2  0  0  0  0  0  0
   21.4160   12.9370   29.7070 O   0  0  0  0  0  0  0  0  0  0  0  0
   21.8870   13.4760   31.9440 C   0  0  0  0  0  2  0  0  0  0  0  0
   20.3930   13.7880   31.9030 C   0  0  0  0  0  1  0  0  0  0  0  0
   21.6820    8.5470   30.4640 C   0  0  0  0  0  2  0  0  0  0  0  0
   20.8960    8.9240   31.6630 C   0  0  0  0  0  0  0  0  0  0  0  0
   19.7400    8.2810   32.0050 C   0  0  0  0  0  3  0  0  0  0  0  0
   19.0370    8.7220   33.1190 C   0  0  0  0  0  0  0  0  0  0  0  0
   17.5520    7.8690   33.5370 Cl  0  0  0  0  0  0  0  0  0  0  0  0
   19.4480    9.7800   33.9000 C   0  0  0  0  0  3  0  0  0  0  0  0
   20.6200   10.4220   33.5390 C   0  0  0  0  0  3  0  0  0  0  0  0
   21.3310   10.0080   32.4490 C   0  0  0  0  0  3  0  0  0  0  0  0
  1  5  1  0  0  0  0
  1  2  1  0  0  0  0
  2 10  1  0  0  0  0
  2  3  2  0  0  0  0
  3  6  1  0  0  0  0
  4  3  1  0  0  0  0
  5  4  2  0  0  0  0
  6  7  1  0  0  0  0
  6 12  1  0  0  0  0
  7  8  2  0  0  0  0
  9 13  1  0  0  0  0
  9  7  1  0  0  0  0
 10  9  1  0  0  0  0
 11 10  2  0  0  0  0
 14  5  1  0  0  0  0
 14 20  1  0  0  0  0
 15 14  1  0  0  0  0
 16 15  1  0  0  0  0
 16 17  1  0  0  0  0
 17 19  1  0  0  0  0
 17 18  1  0  0  0  0
 18 20  1  0  0  0  0
 19 22  1  0  0  0  0
 21 19  2  0  0  0  0
 23 22  1  0  0  0  0
 24  1  1  0  0  0  0
 24 25  1  0  0  0  0
 25 26  2  0  0  0  0
 25 31  1  0  0  0  0
 26 27  1  0  0  0  0
 27 28  1  0  0  0  0
 27 29  2  0  0  0  0
 30 29  1  0  0  0  0
 31 30  2  0  0  0  0
M  END
>  <Pose>
1

>  <Score>
-7.730

$$$$
