/Users/jonathanwahrer/Desktop/Msc/3_Semester/Drug_Design_Praktikum/waehrer_HTS_screening/HTS_experiment/out/docking_results/vina_output/3elj/1622_docked.pdbqt
 OpenBabel03192218293D

 28 31  0  0  1  0  0  0  0  0999 V2000
   23.8440    9.8810   31.9200 C   0  0  0  0  0  0  0  0  0  0  0  0
   25.0180    9.6260   32.2930 O   0  0  0  0  0  0  0  0  0  0  0  0
   23.4000   11.2050   31.6610 N   0  0  0  0  0  0  0  0  0  0  0  0
   24.3340   12.2970   31.8310 C   0  0  0  0  0  2  0  0  0  0  0  0
   23.8800   13.4130   30.9090 C   0  0  0  0  0  2  0  0  0  0  0  0
   23.2960   12.8790   29.6190 C   0  0  1  0  0  0  0  0  0  0  0  0
   23.1090   14.0080   28.7370 N   0  0  0  0  0  0  0  0  0  0  0  0
   24.3210   14.2300   28.0330 C   0  0  0  0  0  0  0  0  0  0  0  0
   24.7000   15.2890   27.4400 O   0  0  0  0  0  0  0  0  0  0  0  0
   25.0550   13.0050   28.1190 N   0  0  0  0  0  0  0  0  0  0  0  0
   24.2840   12.0630   28.8680 C   0  0  0  0  0  0  0  0  0  0  0  0
   24.4450   10.8120   28.8630 O   0  0  0  0  0  0  0  0  0  0  0  0
   26.3740   12.7120   27.5540 C   0  0  0  0  0  1  0  0  0  0  0  0
   22.0300   12.1070   29.8450 C   0  0  0  0  0  2  0  0  0  0  0  0
   22.0610   11.5390   31.2310 C   0  0  0  0  0  2  0  0  0  0  0  0
   22.2280   14.5490   28.6510 H   0  0  0  0  0  0  0  0  0  0  0  0
   22.9520    8.7270   31.7680 C   0  0  0  0  0  0  0  0  0  0  0  0
   23.3880    7.5870   31.1280 C   0  0  0  0  0  0  0  0  0  0  0  0
   25.0400    7.5460   30.4980 Cl  0  0  0  0  0  0  0  0  0  0  0  0
   22.5710    6.4860   30.9700 C   0  0  0  0  0  3  0  0  0  0  0  0
   21.2960    6.5700   31.4780 C   0  0  0  0  0  3  0  0  0  0  0  0
   20.8150    7.6950   32.1290 C   0  0  0  0  0  0  0  0  0  0  0  0
   21.6670    8.7710   32.2630 C   0  0  0  0  0  3  0  0  0  0  0  0
   19.4810    7.7170   32.6330 N   0  0  0  0  0  0  0  0  0  0  0  0
   18.6110    6.7380   32.6880 N   0  0  0  0  0  0  0  0  0  0  0  0
   17.4500    7.1880   33.2460 C   0  0  0  0  0  3  0  0  0  0  0  0
   17.6130    8.5210   33.5530 C   0  0  0  0  0  3  0  0  0  0  0  0
   18.9160    8.8230   33.1490 C   0  0  0  0  0  3  0  0  0  0  0  0
  1  2  2  0  0  0  0
  3  4  1  0  0  0  0
  3  1  1  0  0  0  0
  5  4  1  0  0  0  0
  6 14  1  1  0  0  0
  6  5  1  0  0  0  0
  7  6  1  0  0  0  0
  8 10  1  0  0  0  0
  8  7  1  0  0  0  0
  9  8  2  0  0  0  0
 10 11  1  0  0  0  0
 11  6  1  0  0  0  0
 12 11  2  0  0  0  0
 13 10  1  0  0  0  0
 14 15  1  0  0  0  0
 15  3  1  0  0  0  0
 16  7  1  0  0  0  0
 17  1  1  0  0  0  0
 17 23  1  0  0  0  0
 18 17  2  0  0  0  0
 19 18  1  0  0  0  0
 20 18  1  0  0  0  0
 20 21  2  0  0  0  0
 21 22  1  0  0  0  0
 22 23  2  0  0  0  0
 22 24  1  0  0  0  0
 24 25  1  0  0  0  0
 24 28  1  0  0  0  0
 25 26  2  0  0  0  0
 26 27  1  0  0  0  0
 28 27  2  0  0  0  0
M  END
>  <Pose>
1

>  <Score>
-9.993

$$$$
