MODEL 1
REMARK VINA RESULT:    -9.993      0.000      0.000
REMARK INTER + INTRA:         -10.855
REMARK INTER:                 -11.161
REMARK INTRA:                   0.307
REMARK UNBOUND:                 0.307
REMARK  2 active torsions:
REMARK  status: ('A' for Active; 'I' for Inactive)
REMARK    1  A    between atoms: C_3  and  C_13 
REMARK    2  A    between atoms: C_5  and  N_8 
REMARK       I    between atoms: C_13  and  N_15 
ROOT
ATOM      1  C   UNK d   1      23.844   9.881  31.920  0.00  0.00     0.255 C 
ATOM      2  O   UNK d   1      25.018   9.626  32.293  0.00  0.00    -0.267 OA
ATOM      3  N   UNK d   1      23.400  11.205  31.661  0.00  0.00    -0.348 N 
ATOM      4  C   UNK d   1      24.334  12.297  31.831  0.00  0.00     0.129 C 
ATOM      5  C   UNK d   1      23.880  13.413  30.909  0.00  0.00     0.061 C 
ATOM      6  C   UNK d   1      23.296  12.879  29.619  0.00  0.00     0.119 C 
ATOM      7  N   UNK d   1      23.109  14.008  28.737  0.00  0.00    -0.324 N 
ATOM      8  C   UNK d   1      24.321  14.230  28.033  0.00  0.00     0.325 C 
ATOM      9  O   UNK d   1      24.700  15.289  27.440  0.00  0.00    -0.247 OA
ATOM     10  N   UNK d   1      25.055  13.005  28.119  0.00  0.00    -0.272 N 
ATOM     11  C   UNK d   1      24.284  12.063  28.868  0.00  0.00     0.256 C 
ATOM     12  O   UNK d   1      24.445  10.812  28.863  0.00  0.00    -0.270 OA
ATOM     13  C   UNK d   1      26.374  12.712  27.554  0.00  0.00     0.164 C 
ATOM     14  C   UNK d   1      22.030  12.107  29.845  0.00  0.00     0.061 C 
ATOM     15  C   UNK d   1      22.061  11.539  31.231  0.00  0.00     0.129 C 
ATOM     16  H   UNK d   1      22.228  14.549  28.651  0.00  0.00     0.165 HD
ENDROOT
BRANCH   1  17
ATOM     17  C   UNK d   1      22.952   8.727  31.768  0.00  0.00     0.056 A 
ATOM     18  C   UNK d   1      23.388   7.587  31.128  0.00  0.00     0.050 A 
ATOM     19 Cl   UNK d   1      25.040   7.546  30.498  0.00  0.00    -0.083 Cl
ATOM     20  C   UNK d   1      22.571   6.486  30.970  0.00  0.00     0.027 A 
ATOM     21  C   UNK d   1      21.296   6.570  31.478  0.00  0.00     0.033 A 
ATOM     22  C   UNK d   1      20.815   7.695  32.129  0.00  0.00     0.059 A 
ATOM     23  C   UNK d   1      21.667   8.771  32.263  0.00  0.00     0.050 A 
BRANCH  22  24
ATOM     24  N   UNK d   1      19.481   7.717  32.633  0.00  0.00    -0.245 N 
ATOM     25  N   UNK d   1      18.611   6.738  32.688  0.00  0.00    -0.180 NA
ATOM     26  C   UNK d   1      17.450   7.188  33.246  0.00  0.00     0.140 A 
ATOM     27  C   UNK d   1      17.613   8.521  33.553  0.00  0.00     0.040 A 
ATOM     28  C   UNK d   1      18.916   8.823  33.149  0.00  0.00     0.120 A 
ENDBRANCH  22  24
ENDBRANCH   1  17
TORSDOF 2
ENDMDL
