MODEL 1
REMARK VINA RESULT:    -7.700      0.000      0.000
REMARK INTER + INTRA:         -10.384
REMARK INTER:                  -9.951
REMARK INTRA:                  -0.432
REMARK UNBOUND:                -0.432
REMARK  5 active torsions:
REMARK  status: ('A' for Active; 'I' for Inactive)
REMARK    1  A    between atoms: C_5  and  C_8 
REMARK    2  A    between atoms: N_9  and  C_24 
REMARK    3  A    between atoms: C_15  and  C_17 
REMARK    4  A    between atoms: C_24  and  C_25 
REMARK    5  A    between atoms: C_25  and  N_26 
ROOT
ATOM      1  C   UNK d   1      22.227   9.531  30.316  0.00  0.00     0.161 C 
ATOM      2  N   UNK d   1      22.943  10.807  30.494  0.00  0.00    -0.331 N 
ATOM      3  C   UNK d   1      24.021  10.590  31.395  0.00  0.00     0.295 C 
ATOM      4  O   UNK d   1      24.620  11.435  32.064  0.00  0.00    -0.264 OA
ATOM      5  C   UNK d   1      24.308   9.142  31.392  0.00  0.00     0.250 C 
ATOM      6  O   UNK d   1      25.194   8.518  32.061  0.00  0.00    -0.282 OA
ATOM      7  C   UNK d   1      23.359   8.557  30.459  0.00  0.00     0.062 C 
ATOM      8  C   UNK d   1      23.503   7.380  29.903  0.00  0.00     0.130 C 
ATOM      9  O   UNK d   1      22.491   6.927  29.062  0.00  0.00    -0.190 OA
ENDROOT
BRANCH   2  10
ATOM     10  C   UNK d   1      22.531  12.003  29.805  0.00  0.00     0.155 C 
BRANCH  10  11
ATOM     11  C   UNK d   1      22.725  13.274  30.541  0.00  0.00     0.255 C 
BRANCH  11  12
ATOM     12  N   UNK d   1      21.751  14.294  30.414  0.00  0.00    -0.066 N 
ATOM     13  C   UNK d   1      22.113  15.539  31.058  0.00  0.00     0.261 C 
ATOM     14  C   UNK d   1      21.093  16.022  32.062  0.00  0.00     0.195 C 
ATOM     15  O   UNK d   1      19.799  16.024  31.612  0.00  0.00    -0.388 OA
ATOM     16  C   UNK d   1      19.432  14.856  30.971  0.00  0.00     0.195 C 
ATOM     17  C   UNK d   1      20.529  13.845  31.115  0.00  0.00     0.261 C 
ATOM     18  H   UNK d   1      21.434  14.446  29.443  0.00  0.00     0.280 HD
ENDBRANCH  11  12
ENDBRANCH  10  11
ENDBRANCH   2  10
BRANCH   1  19
ATOM     19  C   UNK d   1      21.215   9.385  31.355  0.00  0.00    -0.030 A 
ATOM     20  C   UNK d   1      20.905  10.375  32.232  0.00  0.00     0.011 A 
ATOM     21  C   UNK d   1      19.937  10.244  33.217  0.00  0.00     0.024 A 
ATOM     22  C   UNK d   1      19.254   9.069  33.328  0.00  0.00     0.034 A 
ATOM     23 Cl   UNK d   1      18.026   8.840  34.543  0.00  0.00    -0.084 Cl
ATOM     24  C   UNK d   1      19.550   8.031  32.442  0.00  0.00     0.024 A 
ATOM     25  C   UNK d   1      20.514   8.186  31.472  0.00  0.00     0.011 A 
ENDBRANCH   1  19
BRANCH   8  26
ATOM     26  C   UNK d   1      24.641   6.484  30.078  0.00  0.00     0.001 A 
ATOM     27  C   UNK d   1      24.512   5.515  31.067  0.00  0.00     0.016 A 
ATOM     28  C   UNK d   1      25.528   4.625  31.270  0.00  0.00     0.024 A 
ATOM     29  C   UNK d   1      26.683   4.669  30.513  0.00  0.00     0.034 A 
ATOM     30  C   UNK d   1      26.806   5.632  29.534  0.00  0.00     0.024 A 
ATOM     31 Cl   UNK d   1      27.946   3.519  30.807  0.00  0.00    -0.084 Cl
ATOM     32  C   UNK d   1      25.772   6.525  29.338  0.00  0.00     0.016 A 
ENDBRANCH   8  26
TORSDOF 5
ENDMDL
