MODEL 1
REMARK VINA RESULT:    -7.968      0.000      0.000
REMARK INTER + INTRA:         -11.949
REMARK INTER:                 -10.763
REMARK INTRA:                  -1.186
REMARK UNBOUND:                -1.186
REMARK  6 active torsions:
REMARK  status: ('A' for Active; 'I' for Inactive)
REMARK    1  A    between atoms: C_10  and  C_27 
REMARK    2  A    between atoms: N_15  and  C_18 
REMARK    3  A    between atoms: C_18  and  C_19 
REMARK    4  A    between atoms: C_20  and  O_25 
REMARK    5  A    between atoms: C_27  and  C_28 
REMARK    6  A    between atoms: C_28  and  C_29 
REMARK       I    between atoms: C_29  and  N_31 
ROOT
ATOM      1 Cl   UNK d   1      23.550  -0.866  35.467  0.00  0.00    -0.084 Cl
ATOM      2  C   UNK d   1      24.242   0.294  34.323  0.00  0.00     0.042 A 
ATOM      3  C   UNK d   1      25.475   0.848  34.566  0.00  0.00    -0.013 A 
ATOM      4  C   UNK d   1      26.021   1.758  33.670  0.00  0.00     0.051 A 
ATOM      5  C   UNK d   1      25.389   2.151  32.521  0.00  0.00     0.018 A 
ATOM      6  C   UNK d   1      24.131   1.568  32.298  0.00  0.00     0.014 A 
ATOM      7  C   UNK d   1      23.581   0.665  33.181  0.00  0.00     0.025 A 
ATOM      8  C   UNK d   1      26.222   3.107  31.811  0.00  0.00     0.279 A 
ATOM      9  N   UNK d   1      26.578   2.520  30.522  0.00  0.00     0.113 N 
ATOM     10  C   UNK d   1      25.724   3.218  29.600  0.00  0.00     0.237 C 
ATOM     11  C   UNK d   1      25.841   4.646  30.084  0.00  0.00     0.128 C 
ATOM     12  C   UNK d   1      25.622   4.448  31.568  0.00  0.00     0.147 C 
ATOM     13  C   UNK d   1      24.190   4.580  31.746  0.00  0.00     0.235 C 
ATOM     14  O   UNK d   1      23.523   4.226  32.743  0.00  0.00    -0.272 OA
ATOM     15  N   UNK d   1      23.632   5.189  30.589  0.00  0.00    -0.283 N 
ATOM     16  C   UNK d   1      24.679   5.465  29.657  0.00  0.00     0.234 C 
ATOM     17  O   UNK d   1      24.686   6.228  28.662  0.00  0.00    -0.272 OA
ATOM     18  C   UNK d   1      27.439   3.250  32.645  0.00  0.00     0.267 A 
ATOM     19  O   UNK d   1      28.453   3.976  32.422  0.00  0.00    -0.270 OA
ATOM     20  N   UNK d   1      27.278   2.416  33.770  0.00  0.00    -0.323 N 
ATOM     21  C   UNK d   1      26.204   0.452  35.803  0.00  0.00     0.052 C 
ATOM     22  H   UNK d   1      26.432   1.489  30.554  0.00  0.00     0.318 HD
ATOM     23  H   UNK d   1      27.984   2.310  34.547  0.00  0.00     0.169 HD
ENDROOT
BRANCH  10  24
ATOM     24  C   UNK d   1      26.203   3.060  28.174  0.00  0.00     0.045 C 
BRANCH  24  25
ATOM     25  C   UNK d   1      27.628   3.568  28.133  0.00  0.00     0.105 C 
BRANCH  25  26
ATOM     26  C   UNK d   1      27.812   4.607  27.089  0.00  0.00     0.215 C 
ATOM     27  O   UNK d   1      28.976   4.868  26.673  0.00  0.00    -0.274 OA
ATOM     28  N   UNK d   1      26.647   5.261  26.608  0.00  0.00    -0.370 N 
ATOM     29  H   UNK d   1      25.782   4.705  26.501  0.00  0.00     0.159 HD
ATOM     30  H   UNK d   1      26.732   6.285  26.384  0.00  0.00     0.159 HD
ENDBRANCH  25  26
ENDBRANCH  24  25
ENDBRANCH  10  24
BRANCH  15  31
ATOM     31  C   UNK d   1      22.246   5.517  30.314  0.00  0.00     0.176 C 
BRANCH  31  32
ATOM     32  C   UNK d   1      21.670   6.406  31.339  0.00  0.00    -0.006 A 
ATOM     33  C   UNK d   1      22.046   7.732  31.328  0.00  0.00     0.076 A 
ATOM     34  C   UNK d   1      21.500   8.563  32.296  0.00  0.00     0.037 A 
ATOM     35  C   UNK d   1      20.620   8.093  33.230  0.00  0.00     0.003 A 
ATOM     36  C   UNK d   1      20.269   6.764  33.206  0.00  0.00     0.001 A 
ATOM     37  C   UNK d   1      20.776   5.888  32.272  0.00  0.00     0.011 A 
BRANCH  33  38
ATOM     38  O   UNK d   1      22.935   8.184  30.376  0.00  0.00    -0.355 OA
ATOM     39  C   UNK d   1      22.716   9.268  29.529  0.00  0.00     0.210 C 
ENDBRANCH  33  38
ENDBRANCH  31  32
ENDBRANCH  15  31
TORSDOF 6
ENDMDL
