/Users/jonathanwahrer/Desktop/Msc/3_Semester/Drug_Design_Praktikum/waehrer_HTS_screening/HTS_experiment/out/docking_results/vina_output/3elj/1630_docked.pdbqt
 OpenBabel03192218293D

 39 43  0  0  1  0  0  0  0  0999 V2000
   23.5500   -0.8660   35.4670 Cl  0  0  0  0  0  0  0  0  0  0  0  0
   24.2420    0.2940   34.3230 C   0  0  0  0  0  0  0  0  0  0  0  0
   25.4750    0.8480   34.5660 C   0  0  0  0  0  0  0  0  0  0  0  0
   26.0210    1.7580   33.6700 C   0  0  0  0  0  0  0  0  0  0  0  0
   25.3890    2.1510   32.5210 C   0  0  0  0  0  0  0  0  0  0  0  0
   24.1310    1.5680   32.2980 C   0  0  0  0  0  3  0  0  0  0  0  0
   23.5810    0.6650   33.1810 C   0  0  0  0  0  3  0  0  0  0  0  0
   26.2220    3.1070   31.8110 C   0  0  1  0  0  0  0  0  0  0  0  0
   26.5780    2.5200   30.5220 N   0  0  0  0  0  0  0  0  0  0  0  0
   25.7240    3.2180   29.6000 C   0  0  1  0  0  3  0  0  0  0  0  0
   25.8410    4.6460   30.0840 C   0  0  2  0  0  3  0  0  0  0  0  0
   25.6220    4.4480   31.5680 C   0  0  1  0  0  3  0  0  0  0  0  0
   24.1900    4.5800   31.7460 C   0  0  0  0  0  0  0  0  0  0  0  0
   23.5230    4.2260   32.7430 O   0  0  0  0  0  0  0  0  0  0  0  0
   23.6320    5.1890   30.5890 N   0  0  0  0  0  0  0  0  0  0  0  0
   24.6790    5.4650   29.6570 C   0  0  0  0  0  0  0  0  0  0  0  0
   24.6860    6.2280   28.6620 O   0  0  0  0  0  0  0  0  0  0  0  0
   27.4390    3.2500   32.6450 C   0  0  0  0  0  0  0  0  0  0  0  0
   28.4530    3.9760   32.4220 O   0  0  0  0  0  0  0  0  0  0  0  0
   27.2780    2.4160   33.7700 N   0  0  0  0  0  0  0  0  0  0  0  0
   26.2040    0.4520   35.8030 C   0  0  0  0  0  1  0  0  0  0  0  0
   26.4320    1.4890   30.5540 H   0  0  0  0  0  0  0  0  0  0  0  0
   27.9840    2.3100   34.5470 H   0  0  0  0  0  0  0  0  0  0  0  0
   26.2030    3.0600   28.1740 C   0  0  0  0  0  2  0  0  0  0  0  0
   27.6280    3.5680   28.1330 C   0  0  0  0  0  2  0  0  0  0  0  0
   27.8120    4.6070   27.0890 C   0  0  0  0  0  0  0  0  0  0  0  0
   28.9760    4.8680   26.6730 O   0  0  0  0  0  0  0  0  0  0  0  0
   26.6470    5.2610   26.6080 N   0  0  0  0  0  0  0  0  0  0  0  0
   25.7820    4.7050   26.5010 H   0  0  0  0  0  0  0  0  0  0  0  0
   26.7320    6.2850   26.3840 H   0  0  0  0  0  0  0  0  0  0  0  0
   22.2460    5.5170   30.3140 C   0  0  0  0  0  2  0  0  0  0  0  0
   21.6700    6.4060   31.3390 C   0  0  0  0  0  0  0  0  0  0  0  0
   22.0460    7.7320   31.3280 C   0  0  0  0  0  0  0  0  0  0  0  0
   21.5000    8.5630   32.2960 C   0  0  0  0  0  3  0  0  0  0  0  0
   20.6200    8.0930   33.2300 C   0  0  0  0  0  3  0  0  0  0  0  0
   20.2690    6.7640   33.2060 C   0  0  0  0  0  3  0  0  0  0  0  0
   20.7760    5.8880   32.2720 C   0  0  0  0  0  3  0  0  0  0  0  0
   22.9350    8.1840   30.3760 O   0  0  0  0  0  0  0  0  0  0  0  0
   22.7160    9.2680   29.5290 C   0  0  0  0  0  1  0  0  0  0  0  0
  2  3  1  0  0  0  0
  2  1  1  0  0  0  0
  3 21  1  0  0  0  0
  4 20  1  0  0  0  0
  4  3  2  0  0  0  0
  5  4  1  0  0  0  0
  6  5  2  0  0  0  0
  6  7  1  0  0  0  0
  7  2  2  0  0  0  0
  8  5  1  1  0  0  0
  8 18  1  0  0  0  0
  9 22  1  0  0  0  0
  9  8  1  0  0  0  0
 10 24  1  6  0  0  0
 10 11  1  0  0  0  0
 10  9  1  0  0  0  0
 11 16  1  6  0  0  0
 11 12  1  0  0  0  0
 12 13  1  6  0  0  0
 12  8  1  0  0  0  0
 13 14  2  0  0  0  0
 15 13  1  0  0  0  0
 16 15  1  0  0  0  0
 17 16  2  0  0  0  0
 18 20  1  0  0  0  0
 19 18  2  0  0  0  0
 20 23  1  0  0  0  0
 25 24  1  0  0  0  0
 26 25  1  0  0  0  0
 27 26  2  0  0  0  0
 28 26  1  0  0  0  0
 29 28  1  0  0  0  0
 30 28  1  0  0  0  0
 31 15  1  0  0  0  0
 31 32  1  0  0  0  0
 32 37  1  0  0  0  0
 33 32  2  0  0  0  0
 33 34  1  0  0  0  0
 34 35  2  0  0  0  0
 36 35  1  0  0  0  0
 37 36  2  0  0  0  0
 38 33  1  0  0  0  0
 39 38  1  0  0  0  0
M  END
>  <Pose>
1

>  <Score>
-7.968

$$$$
