MODEL 1
REMARK VINA RESULT:    -7.829      0.000      0.000
REMARK INTER + INTRA:          -9.796
REMARK INTER:                  -9.202
REMARK INTRA:                  -0.594
REMARK UNBOUND:                -0.594
REMARK  3 active torsions:
REMARK  status: ('A' for Active; 'I' for Inactive)
REMARK    1  A    between atoms: C_4  and  C_8 
REMARK    2  A    between atoms: N_9  and  C_23 
REMARK    3  A    between atoms: C_15  and  C_17 
ROOT
ATOM      1  C   UNK d   1      23.679  11.750  29.270  0.00  0.00     0.185 C 
ATOM      2  N   UNK d   1      25.077  11.972  29.037  0.00  0.00    -0.128 N 
ATOM      3  C   UNK d   1      25.864  11.083  29.823  0.00  0.00     0.314 C 
ATOM      4  O   UNK d   1      27.100  11.174  30.081  0.00  0.00    -0.263 OA
ATOM      5  C   UNK d   1      24.975  10.005  30.302  0.00  0.00     0.251 C 
ATOM      6  O   UNK d   1      25.330   9.047  31.027  0.00  0.00    -0.282 OA
ATOM      7  C   UNK d   1      23.664  10.326  29.753  0.00  0.00     0.063 C 
ATOM      8  C   UNK d   1      22.650   9.487  29.738  0.00  0.00     0.130 C 
ATOM      9  O   UNK d   1      21.431   9.968  29.217  0.00  0.00    -0.190 OA
ENDROOT
BRANCH   1  10
ATOM     10  C   UNK d   1      23.083  12.676  30.266  0.00  0.00    -0.028 A 
ATOM     11  C   UNK d   1      21.740  13.030  30.221  0.00  0.00     0.033 A 
ATOM     12  C   UNK d   1      21.149  13.883  31.123  0.00  0.00     0.034 A 
ATOM     13 Cl   UNK d   1      19.453  14.305  31.037  0.00  0.00    -0.084 Cl
ATOM     14  C   UNK d   1      21.938  14.410  32.122  0.00  0.00     0.024 A 
ATOM     15  C   UNK d   1      23.276  14.087  32.208  0.00  0.00     0.002 A 
ATOM     16  C   UNK d   1      23.843  13.231  31.291  0.00  0.00     0.010 A 
ENDBRANCH   1  10
BRANCH   8  17
ATOM     17  C   UNK d   1      22.710   8.112  30.213  0.00  0.00     0.001 A 
ATOM     18  C   UNK d   1      21.991   7.744  31.359  0.00  0.00     0.014 A 
ATOM     19  C   UNK d   1      22.006   6.445  31.815  0.00  0.00     0.001 A 
ATOM     20  C   UNK d   1      22.718   5.449  31.179  0.00  0.00     0.000 A 
ATOM     21  C   UNK d   1      23.430   5.789  30.052  0.00  0.00     0.001 A 
ATOM     22  C   UNK d   1      23.414   7.106  29.592  0.00  0.00     0.014 A 
ENDBRANCH   8  17
BRANCH   2  23
ATOM     23  C   UNK d   1      25.616  12.936  28.157  0.00  0.00     0.710 A 
ATOM     24  N   UNK d   1      26.722  12.556  27.464  0.00  0.00    -0.200 N 
ATOM     25  C   UNK d   1      27.324  13.374  26.602  0.00  0.00     0.107 A 
ATOM     26  H   UNK d   1      27.133  11.591  27.593  0.00  0.00     0.183 HD
ATOM     27  C   UNK d   1      26.795  14.631  26.423  0.00  0.00     0.037 A 
ATOM     28  C   UNK d   1      25.673  14.995  27.136  0.00  0.00     0.138 A 
ATOM     29  N   UNK d   1      25.072  14.163  28.005  0.00  0.00    -0.077 NA
ENDBRANCH   2  23
TORSDOF 3
ENDMDL
