MODEL 1
REMARK VINA RESULT:    -7.299      0.000      0.000
REMARK INTER + INTRA:          -9.839
REMARK INTER:                  -8.792
REMARK INTRA:                  -1.047
REMARK UNBOUND:                -1.047
REMARK  4 active torsions:
REMARK  status: ('A' for Active; 'I' for Inactive)
REMARK    1  A    between atoms: S_1  and  C_5 
REMARK    2  A    between atoms: C_9  and  O_11 
REMARK    3  A    between atoms: N_13  and  C_16 
REMARK    4  A    between atoms: C_16  and  C_17 
ROOT
ATOM      1  C   UNK d   1      29.691   6.177  29.742  0.00  0.00     0.249 A 
ATOM      2  N   UNK d   1      29.054   5.003  29.817  0.00  0.00    -0.223 NA
ATOM      3  C   UNK d   1      27.904   4.732  29.206  0.00  0.00     0.051 A 
ATOM      4  C   UNK d   1      27.328   5.761  28.443  0.00  0.00     0.048 A 
ATOM      5  C   UNK d   1      27.975   6.943  28.371  0.00  0.00     0.175 A 
ATOM      6  N   UNK d   1      29.156   7.144  29.019  0.00  0.00    -0.194 NA
ATOM      7  C   UNK d   1      25.997   5.462  27.908  0.00  0.00     0.318 C 
ATOM      8  N   UNK d   1      25.236   4.979  29.019  0.00  0.00     0.097 N 
ATOM      9  C   UNK d   1      25.696   3.524  29.130  0.00  0.00     0.279 C 
ATOM     10  C   UNK d   1      27.173   3.440  29.294  0.00  0.00     0.090 C 
ENDROOT
BRANCH   8  11
ATOM     11  C   UNK d   1      25.629   5.477  30.386  0.00  0.00     0.319 C 
BRANCH  11  12
ATOM     12  C   UNK d   1      24.331   6.199  30.760  0.00  0.00     0.068 A 
ATOM     13  C   UNK d   1      23.240   5.629  31.288  0.00  0.00     0.061 A 
ATOM     14  C   UNK d   1      22.056   6.341  31.622  0.00  0.00     0.020 A 
ATOM     15 Cl   UNK d   1      23.290   3.935  31.641  0.00  0.00    -0.083 Cl
ATOM     16  C   UNK d   1      22.114   7.713  31.360  0.00  0.00     0.091 A 
ATOM     17  C   UNK d   1      20.931   5.808  32.154  0.00  0.00     0.016 A 
ATOM     18  C   UNK d   1      21.005   8.449  31.661  0.00  0.00     0.038 A 
ATOM     19  O   UNK d   1      23.163   8.272  30.863  0.00  0.00    -0.274 OA
ATOM     20  C   UNK d   1      19.820   7.914  32.213  0.00  0.00     0.003 A 
ATOM     21  C   UNK d   1      19.813   6.529  32.464  0.00  0.00     0.001 A 
ATOM     22  C   UNK d   1      24.267   7.575  30.553  0.00  0.00     0.298 A 
ATOM     23  O   UNK d   1      25.306   8.148  30.045  0.00  0.00    -0.259 OA
ENDBRANCH  11  12
ENDBRANCH   8  11
BRANCH   5  24
ATOM     24  O   UNK d   1      27.415   7.956  27.607  0.00  0.00    -0.344 OA
ATOM     25  H   UNK d   1      27.143   7.847  26.625  0.00  0.00     0.219 HD
ENDBRANCH   5  24
BRANCH   1  26
ATOM     26  S   UNK d   1      31.164   6.398  30.703  0.00  0.00     0.207 S 
ATOM     27  O   UNK d   1      32.358   6.031  29.975  0.00  0.00    -0.220 OA
ATOM     28  O   UNK d   1      30.988   5.576  31.945  0.00  0.00    -0.220 OA
ATOM     29  C   UNK d   1      31.150   8.137  31.205  0.00  0.00     0.170 C 
ENDBRANCH   1  26
TORSDOF 4
ENDMDL
