/Users/jonathanwahrer/Desktop/Msc/3_Semester/Drug_Design_Praktikum/waehrer_HTS_screening/HTS_experiment/out/docking_results/vina_output/3elj/1638_docked.pdbqt
 OpenBabel03192218303D

 38 41  0  0  1  0  0  0  0  0999 V2000
   25.6690    6.4880   29.8790 C   0  0  0  0  0  0  0  0  0  0  0  0
   26.2520    7.4450   29.0590 C   0  0  0  0  0  0  0  0  0  0  0  0
   26.0600    8.7660   29.3240 N   0  0  0  0  0  0  0  0  0  0  0  0
   25.3220    9.1980   30.3550 C   0  0  0  0  0  0  0  0  0  0  0  0
   24.7540    8.2760   31.1520 N   0  0  0  0  0  0  0  0  0  0  0  0
   24.9150    6.9600   30.9320 C   0  0  0  0  0  3  0  0  0  0  0  0
   25.1250   10.5830   30.6340 N   0  0  0  0  0  0  0  0  0  0  0  0
   25.0840   11.5790   29.5910 C   0  0  0  0  0  2  0  0  0  0  0  0
   23.8480   12.4350   29.6000 C   0  0  0  0  0  2  0  0  0  0  0  0
   23.2100   12.5070   30.9780 C   0  0  2  0  0  0  0  0  0  0  0  0
   24.4130   12.4450   31.9340 C   0  0  0  0  0  2  0  0  0  0  0  0
   24.9600   11.0580   31.9960 C   0  0  0  0  0  2  0  0  0  0  0  0
   22.3390   11.4750   31.2810 N   0  0  0  0  0  0  0  0  0  0  0  0
   21.7650   10.6620   30.2800 C   0  0  0  0  0  2  0  0  0  0  0  0
   21.5750    9.2610   30.8840 C   0  0  0  0  0  2  0  0  0  0  0  0
   21.5020    9.4080   32.3800 C   0  0  0  0  0  2  0  0  0  0  0  0
   20.7190   10.6250   32.8030 C   0  0  0  0  0  2  0  0  0  0  0  0
   21.2720   11.8820   32.1530 C   0  0  0  0  0  2  0  0  0  0  0  0
   22.6390   13.8640   31.1410 C   0  0  0  0  0  0  0  0  0  0  0  0
   22.9730   14.5970   32.1320 O   0  0  0  0  0  0  0  0  0  0  0  0
   21.7210   14.4260   30.2480 N   0  0  0  0  0  0  0  0  0  0  0  0
   20.7090   14.4870   30.5460 H   0  0  0  0  0  0  0  0  0  0  0  0
   21.9240   14.8070   29.3020 H   0  0  0  0  0  0  0  0  0  0  0  0
   27.0260    6.9860   27.9790 N   0  0  0  0  0  0  0  0  0  0  0  0
   27.0550    7.4550   27.0500 H   0  0  0  0  0  0  0  0  0  0  0  0
   27.6070    6.1310   28.1000 H   0  0  0  0  0  0  0  0  0  0  0  0
   25.8900    4.7760   29.5800 S   0  0  0  0  0  0  0  0  0  0  0  0
   25.2040    4.3400   28.3270 O   0  0  0  0  0  0  0  0  0  0  0  0
   27.3730    4.5140   29.5300 O   0  0  0  0  0  0  0  0  0  0  0  0
   25.2380    3.8990   30.9730 C   0  0  0  0  0  0  0  0  0  0  0  0
   23.8920    3.9750   31.2690 C   0  0  0  0  0  0  0  0  0  0  0  0
   23.4280    3.2760   32.3630 C   0  0  0  0  0  3  0  0  0  0  0  0
   24.2790    2.5110   33.1550 C   0  0  0  0  0  3  0  0  0  0  0  0
   25.6160    2.4600   32.8260 C   0  0  0  0  0  0  0  0  0  0  0  0
   26.1110    3.1490   31.7380 C   0  0  0  0  0  3  0  0  0  0  0  0
   26.7130    1.4930   33.8220 Cl  0  0  0  0  0  0  0  0  0  0  0  0
   23.0870    4.7370   30.4680 O   0  0  0  0  0  0  0  0  0  0  0  0
   21.7820    5.1400   30.7770 C   0  0  0  0  0  1  0  0  0  0  0  0
  1  6  1  0  0  0  0
  2  3  1  0  0  0  0
  2  1  2  0  0  0  0
  3  4  2  0  0  0  0
  4  7  1  0  0  0  0
  4  5  1  0  0  0  0
  6  5  2  0  0  0  0
  7 12  1  0  0  0  0
  8  9  1  0  0  0  0
  8  7  1  0  0  0  0
  9 10  1  0  0  0  0
 10 19  1  1  0  0  0
 10 13  1  0  0  0  0
 10 11  1  0  0  0  0
 11 12  1  0  0  0  0
 13 18  1  0  0  0  0
 14 15  1  0  0  0  0
 14 13  1  0  0  0  0
 15 16  1  0  0  0  0
 16 17  1  0  0  0  0
 18 17  1  0  0  0  0
 19 20  2  0  0  0  0
 21 22  1  0  0  0  0
 21 19  1  0  0  0  0
 23 21  1  0  0  0  0
 24 26  1  0  0  0  0
 24  2  1  0  0  0  0
 25 24  1  0  0  0  0
 27  1  1  0  0  0  0
 27 30  1  0  0  0  0
 28 27  2  0  0  0  0
 29 27  2  0  0  0  0
 30 31  2  0  0  0  0
 30 35  1  0  0  0  0
 31 32  1  0  0  0  0
 32 33  2  0  0  0  0
 34 33  1  0  0  0  0
 34 36  1  0  0  0  0
 35 34  2  0  0  0  0
 37 38  1  0  0  0  0
 37 31  1  0  0  0  0
M  END
>  <Pose>
1

>  <Score>
-7.931

$$$$
