MODEL 1
REMARK VINA RESULT:    -5.715      0.000      0.000
REMARK INTER + INTRA:          -5.715
REMARK INTER:                  -5.715
REMARK INTRA:                   0.000
REMARK UNBOUND:                 0.000
REMARK  0 active torsions:
REMARK  status: ('A' for Active; 'I' for Inactive)
ROOT
ATOM      1 Cl   UNK d   1      30.003  12.394  29.201  0.00  0.00    -0.084 Cl
ATOM      2  C   UNK d   1      29.516  12.615  27.518  0.00  0.00     0.034 A 
ATOM      3  C   UNK d   1      28.979  13.798  27.071  0.00  0.00     0.034 A 
ATOM      4  C   UNK d   1      28.600  13.949  25.728  0.00  0.00    -0.006 A 
ATOM      5  C   UNK d   1      28.751  12.933  24.827  0.00  0.00     0.044 A 
ATOM      6  C   UNK d   1      29.300  11.719  25.277  0.00  0.00     0.032 A 
ATOM      7  C   UNK d   1      29.660  11.605  26.597  0.00  0.00     0.026 A 
ATOM      8  N   UNK d   1      28.306  13.297  23.530  0.00  0.00    -0.321 N 
ATOM      9  C   UNK d   1      27.844  14.633  23.625  0.00  0.00     0.242 A 
ATOM     10  O   UNK d   1      27.371  15.286  22.649  0.00  0.00    -0.271 OA
ATOM     11  C   UNK d   1      28.009  15.108  25.017  0.00  0.00     0.111 A 
ATOM     12  C   UNK d   1      26.622  15.429  25.535  0.00  0.00     0.132 C 
ATOM     13  C   UNK d   1      26.211  16.675  24.805  0.00  0.00     0.225 C 
ATOM     14  O   UNK d   1      25.150  16.770  24.161  0.00  0.00    -0.273 OA
ATOM     15  N   UNK d   1      27.119  17.780  24.882  0.00  0.00    -0.311 N 
ATOM     16  C   UNK d   1      28.510  17.533  25.040  0.00  0.00     0.133 A 
ATOM     17  N   UNK d   1      29.590  18.353  25.150  0.00  0.00    -0.262 N 
ATOM     18  N   UNK d   1      30.659  17.607  25.285  0.00  0.00    -0.185 NA
ATOM     19  C   UNK d   1      30.341  16.303  25.271  0.00  0.00     0.151 A 
ATOM     20  C   UNK d   1      28.952  16.236  25.112  0.00  0.00     0.030 A 
ATOM     21  C   UNK d   1      28.328  12.442  22.339  0.00  0.00     0.159 C 
ATOM     22  H   UNK d   1      26.776  18.764  24.825  0.00  0.00     0.170 HD
ATOM     23  H   UNK d   1      29.517  19.397  25.124  0.00  0.00     0.191 HD
ENDROOT
TORSDOF 0
ENDMDL
