MODEL 1
REMARK VINA RESULT:    -8.663      0.000      0.000
REMARK INTER + INTRA:          -9.508
REMARK INTER:                  -9.676
REMARK INTRA:                   0.168
REMARK UNBOUND:                 0.168
REMARK  2 active torsions:
REMARK  status: ('A' for Active; 'I' for Inactive)
REMARK    1  A    between atoms: N_15  and  C_20 
REMARK       I    between atoms: C_21  and  N_23 
REMARK    2  A    between atoms: N_26  and  C_29 
ROOT
ATOM      1 Cl   UNK d   1      19.989  15.952  31.273  0.00  0.00    -0.084 Cl
ATOM      2  C   UNK d   1      20.931  14.462  31.405  0.00  0.00     0.035 A 
ATOM      3  C   UNK d   1      20.409  13.366  32.057  0.00  0.00     0.043 A 
ATOM      4  C   UNK d   1      21.134  12.223  32.154  0.00  0.00     0.060 A 
ATOM      5  C   UNK d   1      22.418  12.148  31.596  0.00  0.00     0.045 A 
ATOM      6  C   UNK d   1      22.919  13.253  30.951  0.00  0.00     0.032 A 
ATOM      7  C   UNK d   1      22.189  14.430  30.841  0.00  0.00     0.026 A 
ATOM      8  N   UNK d   1      23.185  10.953  31.693  0.00  0.00    -0.363 N 
ATOM      9  C   UNK d   1      22.491   9.681  31.832  0.00  0.00     0.108 C 
ATOM     10  N   UNK d   1      21.506   9.866  32.872  0.00  0.00    -0.330 N 
ATOM     11  C   UNK d   1      20.671  11.011  32.824  0.00  0.00     0.255 C 
ATOM     12  O   UNK d   1      19.522  11.045  33.336  0.00  0.00    -0.268 OA
ATOM     13  C   UNK d   1      23.483   8.643  32.239  0.00  0.00     0.074 C 
ATOM     14  C   UNK d   1      24.189   7.996  31.069  0.00  0.00     0.130 C 
ATOM     15  N   UNK d   1      24.678   8.976  30.121  0.00  0.00    -0.344 N 
ATOM     16  C   UNK d   1      23.806   9.888  29.408  0.00  0.00     0.220 C 
ATOM     17  O   UNK d   1      24.392  10.766  28.734  0.00  0.00    -0.273 OA
ATOM     18  C   UNK d   1      22.336   9.946  29.354  0.00  0.00     0.107 C 
ATOM     19  C   UNK d   1      21.718   9.336  30.575  0.00  0.00     0.063 C 
ATOM     20  H   UNK d   1      24.221  11.051  31.659  0.00  0.00     0.162 HD
ATOM     21  H   UNK d   1      21.377   9.200  33.659  0.00  0.00     0.165 HD
ENDROOT
BRANCH  15  22
ATOM     22  C   UNK d   1      26.052   9.108  29.857  0.00  0.00     0.212 C 
ATOM     23  C   UNK d   1      26.813   8.078  29.187  0.00  0.00     0.171 C 
ATOM     24  O   UNK d   1      28.084   8.450  29.023  0.00  0.00    -0.175 OA
ATOM     25  N   UNK d   1      26.443   6.836  28.723  0.00  0.00    -0.359 N 
ATOM     26  C   UNK d   1      27.472   5.990  28.063  0.00  0.00     0.144 C 
ATOM     27  C   UNK d   1      25.173   6.231  28.812  0.00  0.00     0.144 C 
ATOM     28  C   UNK d   1      27.263   4.599  28.683  0.00  0.00     0.137 C 
ATOM     29  N   UNK d   1      26.590   4.684  29.936  0.00  0.00    -0.406 N 
ATOM     30  C   UNK d   1      25.221   5.105  29.883  0.00  0.00     0.137 C 
BRANCH  29  31
ATOM     31  C   UNK d   1      26.857   3.638  30.863  0.00  0.00     0.071 C 
ATOM     32  C   UNK d   1      28.057   3.901  31.751  0.00  0.00     0.031 C 
ATOM     33  C   UNK d   1      25.677   3.279  31.724  0.00  0.00     0.031 C 
ENDBRANCH  29  31
ENDBRANCH  15  22
TORSDOF 2
ENDMDL
