/Users/jonathanwahrer/Desktop/Msc/3_Semester/Drug_Design_Praktikum/waehrer_HTS_screening/HTS_experiment/out/docking_results/vina_output/3elj/1660_docked.pdbqt
 OpenBabel03192218313D

 31 34  0  0  0  0  0  0  0  0999 V2000
   20.6490   10.0770   32.5210 N   0  0  0  0  0  0  0  0  0  0  0  0
   19.6690    9.7070   33.3000 N   0  0  0  0  0  0  0  0  0  0  0  0
   19.5080    8.3800   33.3300 C   0  0  0  0  0  3  0  0  0  0  0  0
   20.4750    7.8420   32.4910 C   0  0  0  0  0  0  0  0  0  0  0  0
   21.1710    8.9430   32.0020 C   0  0  0  0  0  0  0  0  0  0  0  0
   22.1690    8.6820   31.1530 N   0  0  0  0  0  0  0  0  0  0  0  0
   22.4810    7.4180   30.7920 C   0  0  0  0  0  3  0  0  0  0  0  0
   21.8280    6.3370   31.2470 N   0  0  0  0  0  0  0  0  0  0  0  0
   20.8060    6.5620   32.1130 C   0  0  0  0  0  0  0  0  0  0  0  0
   20.1650    5.5810   32.5640 O   0  0  0  0  0  0  0  0  0  0  0  0
   22.1730    4.9620   30.8700 C   0  0  0  0  0  2  0  0  0  0  0  0
   23.6250    4.7200   30.9300 C   0  0  0  0  0  0  0  0  0  0  0  0
   24.3050    5.3230   30.0260 O   0  0  0  0  0  0  0  0  0  0  0  0
   24.3070    3.9240   31.8470 N   0  0  0  0  0  0  0  0  0  0  0  0
   25.7610    3.7240   31.7450 C   0  0  0  0  0  2  0  0  0  0  0  0
   23.6600    3.2730   32.9640 C   0  0  0  0  0  2  0  0  0  0  0  0
   25.9130    2.2280   31.4400 C   0  0  0  0  0  2  0  0  0  0  0  0
   25.1850    1.4440   32.4030 N   0  0  0  0  0  0  0  0  0  0  0  0
   24.5270    2.1540   33.4840 C   0  0  0  0  0  2  0  0  0  0  0  0
   25.0910    0.0400   32.2900 C   0  0  0  0  0  0  0  0  0  0  0  0
   25.6540   -0.5110   31.2720 O   0  0  0  0  0  0  0  0  0  0  0  0
   24.4550   -0.8070   33.1680 O   0  0  0  0  0  0  0  0  0  0  0  0
   23.1000   -1.2350   32.9310 C   0  0  0  0  0  2  0  0  0  0  0  0
   22.3010   -0.8050   34.1480 C   0  0  0  0  0  1  0  0  0  0  0  0
   21.1010   11.3990   32.2740 C   0  0  0  0  0  0  0  0  0  0  0  0
   22.2500   11.7300   31.6040 C   0  0  0  0  0  3  0  0  0  0  0  0
   22.6120   13.0540   31.4480 C   0  0  0  0  0  3  0  0  0  0  0  0
   21.8650   14.1000   31.9400 C   0  0  0  0  0  0  0  0  0  0  0  0
   22.3000   15.7700   31.7610 Cl  0  0  0  0  0  0  0  0  0  0  0  0
   20.7020   13.7870   32.6180 C   0  0  0  0  0  3  0  0  0  0  0  0
   20.3580   12.4610   32.7630 C   0  0  0  0  0  3  0  0  0  0  0  0
  1  2  1  0  0  0  0
  2  3  2  0  0  0  0
  4  3  1  0  0  0  0
  5  4  2  0  0  0  0
  5  1  1  0  0  0  0
  6  5  1  0  0  0  0
  7  6  2  0  0  0  0
  7  8  1  0  0  0  0
  8  9  1  0  0  0  0
  9  4  1  0  0  0  0
  9 10  2  0  0  0  0
 11 12  1  0  0  0  0
 11  8  1  0  0  0  0
 12 14  1  0  0  0  0
 13 12  2  0  0  0  0
 14 16  1  0  0  0  0
 15 14  1  0  0  0  0
 16 19  1  0  0  0  0
 17 15  1  0  0  0  0
 17 18  1  0  0  0  0
 18 19  1  0  0  0  0
 20 18  1  0  0  0  0
 20 22  1  0  0  0  0
 21 20  2  0  0  0  0
 23 22  1  0  0  0  0
 23 24  1  0  0  0  0
 25  1  1  0  0  0  0
 25 31  1  0  0  0  0
 26 25  2  0  0  0  0
 27 26  1  0  0  0  0
 27 28  2  0  0  0  0
 28 30  1  0  0  0  0
 29 28  1  0  0  0  0
 30 31  2  0  0  0  0
M  END
>  <Pose>
1

>  <Score>
-8.788

$$$$
