MODEL 1
REMARK VINA RESULT:    -8.788      0.000      0.000
REMARK INTER + INTRA:         -11.464
REMARK INTER:                 -11.356
REMARK INTRA:                  -0.108
REMARK UNBOUND:                -0.108
REMARK  5 active torsions:
REMARK  status: ('A' for Active; 'I' for Inactive)
REMARK    1  A    between atoms: C_5  and  N_8 
REMARK    2  A    between atoms: N_15  and  C_18 
REMARK    3  A    between atoms: C_18  and  C_19 
REMARK       I    between atoms: C_19  and  N_21 
REMARK       I    between atoms: N_24  and  C_27 
REMARK    4  A    between atoms: C_27  and  O_29 
REMARK    5  A    between atoms: O_29  and  C_30 
ROOT
ATOM      1  N   UNK d   1      20.649  10.077  32.521  0.00  0.00    -0.215 N 
ATOM      2  N   UNK d   1      19.669   9.707  33.300  0.00  0.00    -0.177 NA
ATOM      3  C   UNK d   1      19.508   8.380  33.330  0.00  0.00     0.160 A 
ATOM      4  C   UNK d   1      20.475   7.842  32.491  0.00  0.00     0.099 A 
ATOM      5  C   UNK d   1      21.171   8.943  32.002  0.00  0.00     0.169 A 
ATOM      6  N   UNK d   1      22.169   8.682  31.153  0.00  0.00    -0.223 NA
ATOM      7  C   UNK d   1      22.481   7.418  30.792  0.00  0.00     0.215 A 
ATOM      8  N   UNK d   1      21.828   6.337  31.247  0.00  0.00    -0.299 N 
ATOM      9  C   UNK d   1      20.806   6.562  32.113  0.00  0.00     0.264 A 
ATOM     10  O   UNK d   1      20.165   5.581  32.564  0.00  0.00    -0.267 OA
ENDROOT
BRANCH   8  11
ATOM     11  C   UNK d   1      22.173   4.962  30.870  0.00  0.00     0.236 C 
BRANCH  11  12
ATOM     12  C   UNK d   1      23.625   4.720  30.930  0.00  0.00     0.238 C 
ATOM     13  O   UNK d   1      24.305   5.323  30.026  0.00  0.00    -0.272 OA
ATOM     14  N   UNK d   1      24.307   3.924  31.847  0.00  0.00    -0.348 N 
ATOM     15  C   UNK d   1      25.761   3.724  31.745  0.00  0.00     0.145 C 
ATOM     16  C   UNK d   1      23.660   3.273  32.964  0.00  0.00     0.145 C 
ATOM     17  C   UNK d   1      25.913   2.228  31.440  0.00  0.00     0.148 C 
ATOM     18  N   UNK d   1      25.185   1.444  32.403  0.00  0.00    -0.325 N 
ATOM     19  C   UNK d   1      24.527   2.154  33.484  0.00  0.00     0.148 C 
ATOM     20  C   UNK d   1      25.091   0.040  32.290  0.00  0.00     0.362 C 
ATOM     21  O   UNK d   1      25.654  -0.511  31.272  0.00  0.00    -0.238 OA
BRANCH  20  22
ATOM     22  O   UNK d   1      24.455  -0.807  33.168  0.00  0.00    -0.304 OA
BRANCH  22  23
ATOM     23  C   UNK d   1      23.100  -1.235  32.931  0.00  0.00     0.176 C 
ATOM     24  C   UNK d   1      22.301  -0.805  34.148  0.00  0.00     0.034 C 
ENDBRANCH  22  23
ENDBRANCH  20  22
ENDBRANCH  11  12
ENDBRANCH   8  11
BRANCH   1  25
ATOM     25  C   UNK d   1      21.101  11.399  32.274  0.00  0.00     0.060 A 
ATOM     26  C   UNK d   1      22.250  11.730  31.604  0.00  0.00     0.033 A 
ATOM     27  C   UNK d   1      22.612  13.054  31.448  0.00  0.00     0.026 A 
ATOM     28  C   UNK d   1      21.865  14.100  31.940  0.00  0.00     0.034 A 
ATOM     29 Cl   UNK d   1      22.300  15.770  31.761  0.00  0.00    -0.084 Cl
ATOM     30  C   UNK d   1      20.702  13.787  32.618  0.00  0.00     0.026 A 
ATOM     31  C   UNK d   1      20.358  12.461  32.763  0.00  0.00     0.033 A 
ENDBRANCH   1  25
TORSDOF 5
ENDMDL
