MODEL 1
REMARK VINA RESULT:    -8.162      0.000      0.000
REMARK INTER + INTRA:         -13.509
REMARK INTER:                 -11.502
REMARK INTRA:                  -2.007
REMARK UNBOUND:                -2.007
REMARK  7 active torsions:
REMARK  status: ('A' for Active; 'I' for Inactive)
REMARK    1  A    between atoms: C_5  and  C_8 
REMARK    2  A    between atoms: C_8  and  C_10 
REMARK    3  A    between atoms: N_12  and  C_17 
REMARK    4  A    between atoms: C_17  and  C_18 
REMARK    5  A    between atoms: C_18  and  N_19 
REMARK    6  A    between atoms: C_27  and  O_32 
REMARK    7  A    between atoms: O_32  and  C_33 
ROOT
ATOM      1  C   UNK d   1      23.822   6.376  31.465  0.00  0.00     0.167 C 
ATOM      2  C   UNK d   1      24.921   7.222  30.880  0.00  0.00     0.140 C 
ATOM      3  N   UNK d   1      25.472   6.504  29.819  0.00  0.00    -0.334 N 
ATOM      4  C   UNK d   1      25.486   5.124  30.363  0.00  0.00     0.291 C 
ATOM      5  O   UNK d   1      26.333   4.222  30.123  0.00  0.00    -0.264 OA
ATOM      6  C   UNK d   1      24.326   5.004  31.231  0.00  0.00     0.230 C 
ATOM      7  O   UNK d   1      23.859   3.922  31.688  0.00  0.00    -0.286 OA
ATOM      8  C   UNK d   1      24.718   8.648  30.941  0.00  0.00    -0.031 A 
ATOM      9  C   UNK d   1      24.413   9.451  29.888  0.00  0.00     0.049 A 
ATOM     10  C   UNK d   1      24.218  10.813  30.056  0.00  0.00     0.105 A 
ATOM     11  C   UNK d   1      24.341  11.369  31.339  0.00  0.00     0.140 A 
ATOM     12  C   UNK d   1      24.648  10.560  32.395  0.00  0.00     0.043 A 
ATOM     13  C   UNK d   1      24.837   9.224  32.230  0.00  0.00     0.012 A 
ATOM     14  O   UNK d   1      24.158  12.719  31.560  0.00  0.00    -0.189 OA
ENDROOT
BRANCH   1  15
ATOM     15  C   UNK d   1      22.506   6.568  30.856  0.00  0.00     0.173 C 
ATOM     16  O   UNK d   1      22.349   6.330  29.608  0.00  0.00    -0.291 OA
BRANCH  15  17
ATOM     17  C   UNK d   1      21.304   7.016  31.544  0.00  0.00     0.011 A 
ATOM     18  C   UNK d   1      20.293   6.147  31.887  0.00  0.00     0.016 A 
ATOM     19  C   UNK d   1      19.164   6.662  32.514  0.00  0.00     0.020 A 
ATOM     20  C   UNK d   1      19.002   7.991  32.813  0.00  0.00     0.011 A 
ATOM     21 Br   UNK d   1      17.408   8.633  33.686  0.00  0.00    -0.051 Br
ATOM     22  C   UNK d   1      20.012   8.865  32.472  0.00  0.00     0.020 A 
ATOM     23  C   UNK d   1      21.129   8.356  31.851  0.00  0.00     0.016 A 
ENDBRANCH  15  17
ENDBRANCH   1  15
BRANCH   3  24
ATOM     24  C   UNK d   1      26.089   6.680  28.542  0.00  0.00     0.154 C 
BRANCH  24  25
ATOM     25  C   UNK d   1      27.549   6.933  28.522  0.00  0.00     0.255 C 
BRANCH  25  26
ATOM     26  N   UNK d   1      28.133   8.023  29.180  0.00  0.00    -0.066 N 
ATOM     27  C   UNK d   1      29.599   8.018  29.107  0.00  0.00     0.261 C 
ATOM     28  C   UNK d   1      30.109   8.152  27.711  0.00  0.00     0.195 C 
ATOM     29  O   UNK d   1      29.065   8.437  26.860  0.00  0.00    -0.388 OA
ATOM     30  C   UNK d   1      28.421   9.587  27.344  0.00  0.00     0.195 C 
ATOM     31  C   UNK d   1      27.631   9.281  28.599  0.00  0.00     0.261 C 
ATOM     32  H   UNK d   1      27.895   8.061  30.168  0.00  0.00     0.280 HD
ENDBRANCH  25  26
ENDBRANCH  24  25
ENDBRANCH   3  24
BRANCH  10  33
ATOM     33  O   UNK d   1      23.909  11.641  29.025  0.00  0.00    -0.349 OA
BRANCH  33  34
ATOM     34  C   UNK d   1      24.848  12.337  28.271  0.00  0.00     0.171 C 
ATOM     35  C   UNK d   1      24.626  13.839  28.253  0.00  0.00     0.034 C 
ENDBRANCH  33  34
ENDBRANCH  10  33
TORSDOF 7
ENDMDL
