MODEL 1
REMARK VINA RESULT:    -9.127      0.000      0.000
REMARK INTER + INTRA:         -12.558
REMARK INTER:                 -11.794
REMARK INTRA:                  -0.763
REMARK UNBOUND:                -0.763
REMARK  5 active torsions:
REMARK  status: ('A' for Active; 'I' for Inactive)
REMARK    1  A    between atoms: N_7  and  C_11 
REMARK    2  A    between atoms: C_11  and  C_12 
REMARK    3  A    between atoms: C_12  and  N_13 
REMARK    4  A    between atoms: C_21  and  C_23 
REMARK    5  A    between atoms: C_23  and  O_25 
ROOT
ATOM      1  N   UNK d   1      23.361  13.127  30.116  0.00  0.00    -0.363 N 
ATOM      2  C   UNK d   1      23.749  13.856  29.046  0.00  0.00     0.110 A 
ATOM      3  C   UNK d   1      23.403  15.181  28.897  0.00  0.00     0.080 A 
ATOM      4  C   UNK d   1      22.592  15.831  29.919  0.00  0.00     0.111 A 
ATOM      5  N   UNK d   1      22.417  17.096  29.511  0.00  0.00    -0.170 NA
ATOM      6  N   UNK d   1      23.038  17.298  28.338  0.00  0.00    -0.242 N 
ATOM      7  C   UNK d   1      23.635  16.159  27.954  0.00  0.00     0.275 A 
ATOM      8  O   UNK d   1      24.294  16.035  26.897  0.00  0.00    -0.266 OA
ATOM      9  C   UNK d   1      22.212  15.054  31.001  0.00  0.00     0.086 A 
ATOM     10  C   UNK d   1      22.616  13.749  31.041  0.00  0.00     0.110 A 
ATOM     11  H   UNK d   1      23.022  18.227  27.846  0.00  0.00     0.192 HD
ENDROOT
BRANCH   1  12
ATOM     12  C   UNK d   1      23.746  11.725  30.241  0.00  0.00     0.148 C 
BRANCH  12  13
ATOM     13  C   UNK d   1      23.519  11.307  31.678  0.00  0.00     0.150 C 
BRANCH  13  14
ATOM     14  N   UNK d   1      22.714  10.108  31.767  0.00  0.00    -0.338 N 
ATOM     15  C   UNK d   1      23.070   8.884  31.321  0.00  0.00     0.210 A 
ATOM     16  N   UNK d   1      22.087   8.000  31.565  0.00  0.00    -0.242 NA
ATOM     17  C   UNK d   1      21.058   8.641  32.183  0.00  0.00     0.086 A 
ATOM     18  C   UNK d   1      19.827   8.224  32.648  0.00  0.00     0.057 A 
ATOM     19  C   UNK d   1      21.485   9.950  32.291  0.00  0.00     0.064 A 
ATOM     20  C   UNK d   1      18.981   9.134  33.245  0.00  0.00     0.036 A 
ATOM     21 Cl   UNK d   1      17.395   8.673  33.862  0.00  0.00    -0.084 Cl
ATOM     22  C   UNK d   1      19.419  10.441  33.347  0.00  0.00     0.026 A 
ATOM     23  C   UNK d   1      20.648  10.865  32.885  0.00  0.00     0.034 A 
ENDBRANCH  13  14
ENDBRANCH  12  13
ENDBRANCH   1  12
BRANCH   9  24
ATOM     24  C   UNK d   1      21.400  15.670  32.044  0.00  0.00     0.296 C 
ATOM     25  O   UNK d   1      20.161  15.456  32.060  0.00  0.00    -0.259 OA
BRANCH  24  26
ATOM     26  O   UNK d   1      21.951  16.476  33.005  0.00  0.00    -0.322 OA
ATOM     27  C   UNK d   1      23.205  16.177  33.597  0.00  0.00     0.213 C 
ENDBRANCH  24  26
ENDBRANCH   9  24
TORSDOF 5
ENDMDL
