MODEL 1
REMARK VINA RESULT:    -9.506      0.000      0.000
REMARK INTER + INTRA:         -12.862
REMARK INTER:                 -12.006
REMARK INTRA:                  -0.856
REMARK UNBOUND:                -0.856
REMARK  5 active torsions:
REMARK  status: ('A' for Active; 'I' for Inactive)
REMARK    1  A    between atoms: C_6  and  C_11 
REMARK    2  A    between atoms: C_11  and  C_12 
REMARK    3  A    between atoms: C_12  and  C_13 
REMARK       I    between atoms: C_13  and  N_15 
REMARK    4  A    between atoms: C_17  and  N_21 
REMARK    5  A    between atoms: C_18  and  O_20 
ROOT
ATOM      1  C   UNK d   1      19.834  13.212  32.929  0.00  0.00     0.220 C 
ATOM      2  O   UNK d   1      18.605  13.434  32.795  0.00  0.00    -0.273 OA
ATOM      3  N   UNK d   1      20.746  14.155  32.411  0.00  0.00    -0.348 N 
ATOM      4  C   UNK d   1      22.195  14.165  32.406  0.00  0.00     0.154 C 
ATOM      5  C   UNK d   1      22.527  14.687  31.081  0.00  0.00     0.142 C 
ATOM      6  C   UNK d   1      21.235  15.236  30.473  0.00  0.00     0.161 C 
ATOM      7  C   UNK d   1      20.374  15.376  31.746  0.00  0.00     0.159 C 
ENDROOT
BRANCH   1   8
ATOM      8  C   UNK d   1      20.251  11.975  33.621  0.00  0.00     0.110 C 
BRANCH   8   9
ATOM      9  C   UNK d   1      19.228  10.897  33.430  0.00  0.00     0.087 C 
BRANCH   9  10
ATOM     10  C   UNK d   1      19.839   9.658  32.913  0.00  0.00     0.105 A 
ATOM     11  N   UNK d   1      21.024   9.579  32.247  0.00  0.00    -0.343 N 
ATOM     12  C   UNK d   1      21.301   8.314  31.896  0.00  0.00     0.064 A 
ATOM     13  H   UNK d   1      21.676  10.368  32.011  0.00  0.00     0.167 HD
ATOM     14  C   UNK d   1      22.343   7.694  31.227  0.00  0.00     0.055 A 
ATOM     15  C   UNK d   1      20.255   7.551  32.356  0.00  0.00     0.085 A 
ATOM     16  C   UNK d   1      22.336   6.321  31.018  0.00  0.00     0.036 A 
ATOM     17 Cl   UNK d   1      23.659   5.559  30.169  0.00  0.00    -0.084 Cl
ATOM     18  C   UNK d   1      21.289   5.552  31.477  0.00  0.00     0.026 A 
ATOM     19  C   UNK d   1      20.253   6.189  32.146  0.00  0.00     0.036 A 
ATOM     20  N   UNK d   1      19.390   8.376  32.960  0.00  0.00    -0.233 NA
ENDBRANCH   9  10
ENDBRANCH   8   9
ENDBRANCH   1   8
BRANCH   5  21
ATOM     21  N   UNK d   1      23.255  13.922  30.144  0.00  0.00    -0.300 N 
ATOM     22  C   UNK d   1      23.448  12.605  30.425  0.00  0.00     0.108 A 
ATOM     23  C   UNK d   1      24.141  11.775  29.573  0.00  0.00     0.022 A 
ATOM     24  C   UNK d   1      24.662  12.265  28.399  0.00  0.00     0.256 A 
ATOM     25  C   UNK d   1      24.345  10.324  29.896  0.00  0.00     0.056 C 
ATOM     26  O   UNK d   1      25.305  11.522  27.597  0.00  0.00    -0.267 OA
ATOM     27  N   UNK d   1      24.471  13.564  28.122  0.00  0.00    -0.275 N 
ATOM     28  C   UNK d   1      23.790  14.321  28.986  0.00  0.00     0.329 A 
ATOM     29  H   UNK d   1      24.867  13.970  27.218  0.00  0.00     0.173 HD
ATOM     30  O   UNK d   1      23.641  15.520  28.676  0.00  0.00    -0.246 OA
ENDBRANCH   5  21
BRANCH   6  31
ATOM     31  O   UNK d   1      21.401  16.452  29.858  0.00  0.00    -0.392 OA
ATOM     32  H   UNK d   1      21.922  16.310  29.028  0.00  0.00     0.210 HD
ENDBRANCH   6  31
TORSDOF 5
ENDMDL
