/Users/jonathanwahrer/Desktop/Msc/3_Semester/Drug_Design_Praktikum/waehrer_HTS_screening/HTS_experiment/out/docking_results/vina_output/3elj/1699_docked.pdbqt
 OpenBabel03192218333D

 31 34  0  0  1  0  0  0  0  0999 V2000
   23.2210   16.1720   33.9370 Cl  0  0  0  0  0  0  0  0  0  0  0  0
   22.8130   15.1840   32.5730 C   0  0  0  0  0  0  0  0  0  0  0  0
   22.6880   13.8080   32.7020 C   0  0  0  0  0  3  0  0  0  0  0  0
   22.3640   13.0080   31.6250 C   0  0  0  0  0  0  0  0  0  0  0  0
   22.1660   13.6100   30.4140 C   0  0  0  0  0  0  0  0  0  0  0  0
   22.2800   14.9940   30.2440 C   0  0  0  0  0  3  0  0  0  0  0  0
   22.6050   15.7620   31.3390 C   0  0  0  0  0  3  0  0  0  0  0  0
   21.8630   12.6280   29.4330 N   0  0  0  0  0  0  0  0  0  0  0  0
   21.8770   11.3560   30.0630 C   0  0  0  0  0  0  0  0  0  0  0  0
   21.6700   10.2880   29.4010 O   0  0  0  0  0  0  0  0  0  0  0  0
   22.1530   11.5690   31.4780 C   0  0  2  0  0  0  0  0  0  0  0  0
   21.0630   11.0880   32.3300 N   0  0  0  0  0  0  0  0  0  0  0  0
   21.2820    9.6590   32.2820 C   0  0  1  0  0  3  0  0  0  0  0  0
   22.7620    9.4590   32.3340 C   0  0  2  0  0  3  0  0  0  0  0  0
   23.3110   10.8220   32.0410 C   0  0  1  0  0  3  0  0  0  0  0  0
   24.4560   10.6600   31.1110 C   0  0  0  0  0  0  0  0  0  0  0  0
   25.1850   11.6360   30.7950 O   0  0  0  0  0  0  0  0  0  0  0  0
   24.5060    9.2960   30.7240 N   0  0  0  0  0  0  0  0  0  0  0  0
   23.2890    8.6840   31.1650 C   0  0  0  0  0  0  0  0  0  0  0  0
   22.7280    7.6870   30.6990 O   0  0  0  0  0  0  0  0  0  0  0  0
   21.6580   12.8070   28.4050 H   0  0  0  0  0  0  0  0  0  0  0  0
   21.3030   11.4120   33.2940 H   0  0  0  0  0  0  0  0  0  0  0  0
   20.5460    8.9260   33.3740 C   0  0  2  0  0  3  0  0  0  0  0  0
   19.9210    7.6430   32.8910 C   0  0  0  0  0  1  0  0  0  0  0  0
   19.5680    9.7780   33.8720 O   0  0  0  0  0  0  0  0  0  0  0  0
   19.2360   10.4180   33.1910 H   0  0  0  0  0  0  0  0  0  0  0  0
   25.5590    8.6510   30.0370 C   0  0  0  0  0  2  0  0  0  0  0  0
   25.5810    7.1740   29.9720 C   0  0  0  0  0  2  0  0  0  0  0  0
   26.0040    6.5430   28.7020 C   0  0  0  0  0  2  0  0  0  0  0  0
   25.2100    5.5030   28.2420 O   0  0  0  0  0  0  0  0  0  0  0  0
   26.0110    4.7030   27.3940 C   0  0  0  0  0  1  0  0  0  0  0  0
  2  3  1  0  0  0  0
  2  1  1  0  0  0  0
  4  3  2  0  0  0  0
  5  4  1  0  0  0  0
  6  5  2  0  0  0  0
  6  7  1  0  0  0  0
  7  2  2  0  0  0  0
  8  9  1  0  0  0  0
  8  5  1  0  0  0  0
 10  9  2  0  0  0  0
 11  9  1  6  0  0  0
 11  4  1  0  0  0  0
 11 15  1  0  0  0  0
 11 12  1  0  0  0  0
 12 22  1  0  0  0  0
 13 12  1  0  0  0  0
 13 14  1  0  0  0  0
 13 23  1  1  0  0  0
 14 19  1  6  0  0  0
 15 16  1  6  0  0  0
 15 14  1  0  0  0  0
 17 16  2  0  0  0  0
 18 16  1  0  0  0  0
 18 19  1  0  0  0  0
 20 19  2  0  0  0  0
 21  8  1  0  0  0  0
 23 24  1  6  0  0  0
 23 25  1  0  0  0  0
 26 25  1  0  0  0  0
 27 18  1  0  0  0  0
 28 27  1  0  0  0  0
 29 28  1  0  0  0  0
 30 29  1  0  0  0  0
 31 30  1  0  0  0  0
M  END
>  <Pose>
1

>  <Score>
-7.275

$$$$
