MODEL 1
REMARK VINA RESULT:    -8.148      0.000      0.000
REMARK INTER + INTRA:          -8.148
REMARK INTER:                  -8.148
REMARK INTRA:                   0.000
REMARK UNBOUND:                 0.000
REMARK  0 active torsions:
REMARK  status: ('A' for Active; 'I' for Inactive)
ROOT
ATOM      1  F   UNK d   1      19.603  15.074  31.443  0.00  0.00    -0.202 F 
ATOM      2  C   UNK d   1      20.107  13.815  31.669  0.00  0.00     0.165 A 
ATOM      3  C   UNK d   1      21.317  13.459  31.060  0.00  0.00     0.086 A 
ATOM      4  C   UNK d   1      21.834  12.217  31.272  0.00  0.00     0.030 A 
ATOM      5  C   UNK d   1      21.161  11.302  32.093  0.00  0.00     0.016 A 
ATOM      6  C   UNK d   1      19.981  11.676  32.675  0.00  0.00     0.028 A 
ATOM      7  C   UNK d   1      19.441  12.924  32.475  0.00  0.00     0.074 A 
ATOM      8 Cl   UNK d   1      17.916  13.403  33.231  0.00  0.00    -0.081 Cl
ATOM      9  C   UNK d   1      23.110  12.099  30.519  0.00  0.00     0.222 A 
ATOM     10  N   UNK d   1      23.015  11.015  29.593  0.00  0.00    -0.336 N 
ATOM     11  C   UNK d   1      23.335   9.697  29.981  0.00  0.00     0.141 A 
ATOM     12  N   UNK d   1      22.949   8.617  29.253  0.00  0.00    -0.243 NA
ATOM     13  C   UNK d   1      23.225   7.349  29.575  0.00  0.00     0.119 A 
ATOM     14  C   UNK d   1      23.958   7.088  30.728  0.00  0.00     0.020 A 
ATOM     15  C   UNK d   1      24.385   8.119  31.517  0.00  0.00     0.022 A 
ATOM     16  C   UNK d   1      24.064   9.400  31.124  0.00  0.00     0.077 A 
ATOM     17  C   UNK d   1      24.475  10.574  31.901  0.00  0.00     0.258 C 
ATOM     18  O   UNK d   1      25.149  10.348  32.963  0.00  0.00    -0.267 OA
ATOM     19  N   UNK d   1      24.153  11.885  31.507  0.00  0.00    -0.318 N 
ATOM     20  C   UNK d   1      23.266  13.399  29.856  0.00  0.00     0.277 A 
ATOM     21  O   UNK d   1      24.229  13.768  29.087  0.00  0.00    -0.268 OA
ATOM     22  N   UNK d   1      22.174  14.214  30.193  0.00  0.00    -0.320 N 
ATOM     23  H   UNK d   1      22.706  11.168  28.603  0.00  0.00     0.164 HD
ATOM     24  H   UNK d   1      24.686  12.667  31.952  0.00  0.00     0.166 HD
ATOM     25  H   UNK d   1      21.963  15.204  29.897  0.00  0.00     0.169 HD
ENDROOT
TORSDOF 0
ENDMDL
