/Users/jonathanwahrer/Desktop/Msc/3_Semester/Drug_Design_Praktikum/waehrer_HTS_screening/HTS_experiment/out/docking_results/vina_output/3elj/1711_docked.pdbqt
 OpenBabel03192218333D

 30 33  0  0  0  0  0  0  0  0999 V2000
   27.7000   11.1300   27.6380 N   0  0  0  0  0  0  0  0  0  0  0  0
   26.4720   11.6800   27.1820 C   0  0  0  0  0  2  0  0  0  0  0  0
   25.4170   11.7590   28.2570 C   0  0  0  0  0  2  0  0  0  0  0  0
   25.5210   10.6870   29.2130 N   0  0  0  0  0  0  0  0  0  0  0  0
   26.8010   10.4010   29.8170 C   0  0  0  0  0  2  0  0  0  0  0  0
   27.8650   11.1190   29.0450 C   0  0  0  0  0  2  0  0  0  0  0  0
   24.4070    9.8960   29.5870 C   0  0  0  0  0  0  0  0  0  0  0  0
   23.2990   10.1360   29.0710 O   0  0  0  0  0  0  0  0  0  0  0  0
   24.5220    8.7960   30.5710 C   0  0  0  0  0  2  0  0  0  0  0  0
   23.2510    8.4900   31.1590 N   0  0  0  0  0  0  0  0  0  0  0  0
   22.3910    9.3080   31.9410 C   0  0  0  0  0  0  0  0  0  0  0  0
   22.6370   10.4950   32.2470 O   0  0  0  0  0  0  0  0  0  0  0  0
   21.2170    8.5290   32.2980 C   0  0  0  0  0  0  0  0  0  0  0  0
   21.3340    7.2690   31.7620 C   0  0  0  0  0  0  0  0  0  0  0  0
   20.0980    8.8350   33.0310 C   0  0  0  0  0  3  0  0  0  0  0  0
   20.3230    6.3410   31.9740 C   0  0  0  0  0  3  0  0  0  0  0  0
   22.6010    7.2190   31.0430 C   0  0  0  0  0  0  0  0  0  0  0  0
   19.2090    6.6490   32.7050 C   0  0  0  0  0  3  0  0  0  0  0  0
   19.0770    7.9230   33.2540 C   0  0  0  0  0  3  0  0  0  0  0  0
   22.9950    6.1880   30.4390 O   0  0  0  0  0  0  0  0  0  0  0  0
   28.3140    9.8290   26.7730 S   0  0  0  0  0  0  0  0  0  0  0  0
   27.4280    9.5940   25.5570 O   0  0  0  0  0  0  0  0  0  0  0  0
   29.6640   10.2220   26.2050 O   0  0  0  0  0  0  0  0  0  0  0  0
   28.5280    8.3700   27.6630 C   0  0  0  0  0  0  0  0  0  0  0  0
   27.4790    7.4730   27.7800 C   0  0  0  0  0  3  0  0  0  0  0  0
   27.5960    6.2900   28.4800 C   0  0  0  0  0  3  0  0  0  0  0  0
   28.8120    6.0100   29.0780 C   0  0  0  0  0  0  0  0  0  0  0  0
   29.8480    6.9130   28.9540 C   0  0  0  0  0  3  0  0  0  0  0  0
   29.0450    4.3760   30.0710 Br  0  0  0  0  0  0  0  0  0  0  0  0
   29.7450    8.0980   28.2560 C   0  0  0  0  0  3  0  0  0  0  0  0
  1  6  1  0  0  0  0
  2  1  1  0  0  0  0
  2  3  1  0  0  0  0
  3  4  1  0  0  0  0
  4  7  1  0  0  0  0
  4  5  1  0  0  0  0
  6  5  1  0  0  0  0
  7  9  1  0  0  0  0
  8  7  2  0  0  0  0
  9 10  1  0  0  0  0
 10 11  1  0  0  0  0
 11 12  2  0  0  0  0
 11 13  1  0  0  0  0
 13 15  1  0  0  0  0
 14 16  1  0  0  0  0
 14 13  2  0  0  0  0
 15 19  2  0  0  0  0
 16 18  2  0  0  0  0
 17 10  1  0  0  0  0
 17 14  1  0  0  0  0
 18 19  1  0  0  0  0
 20 17  2  0  0  0  0
 21  1  1  0  0  0  0
 21 24  1  0  0  0  0
 22 21  2  0  0  0  0
 23 21  2  0  0  0  0
 24 25  2  0  0  0  0
 24 30  1  0  0  0  0
 25 26  1  0  0  0  0
 26 27  2  0  0  0  0
 27 29  1  0  0  0  0
 28 27  1  0  0  0  0
 30 28  2  0  0  0  0
M  END
>  <Pose>
1

>  <Score>
-7.915

$$$$
