MODEL 1
REMARK VINA RESULT:    -7.915      0.000      0.000
REMARK INTER + INTRA:         -10.363
REMARK INTER:                  -9.766
REMARK INTRA:                  -0.597
REMARK UNBOUND:                -0.597
REMARK  4 active torsions:
REMARK  status: ('A' for Active; 'I' for Inactive)
REMARK    1  A    between atoms: S_1  and  N_4 
REMARK    2  A    between atoms: S_1  and  C_24 
REMARK       I    between atoms: N_7  and  C_10 
REMARK    3  A    between atoms: C_10  and  C_12 
REMARK    4  A    between atoms: C_12  and  N_13 
ROOT
ATOM      1  N   UNK d   1      27.700  11.130  27.638  0.00  0.00    -0.304 N 
ATOM      2  C   UNK d   1      26.472  11.680  27.182  0.00  0.00     0.155 C 
ATOM      3  C   UNK d   1      25.417  11.759  28.257  0.00  0.00     0.146 C 
ATOM      4  N   UNK d   1      25.521  10.687  29.213  0.00  0.00    -0.348 N 
ATOM      5  C   UNK d   1      26.801  10.401  29.817  0.00  0.00     0.146 C 
ATOM      6  C   UNK d   1      27.865  11.119  29.045  0.00  0.00     0.155 C 
ATOM      7  C   UNK d   1      24.407   9.896  29.587  0.00  0.00     0.238 C 
ATOM      8  O   UNK d   1      23.299  10.136  29.071  0.00  0.00    -0.272 OA
ENDROOT
BRANCH   7   9
ATOM      9  C   UNK d   1      24.522   8.796  30.571  0.00  0.00     0.238 C 
BRANCH   9  10
ATOM     10  N   UNK d   1      23.251   8.490  31.159  0.00  0.00    -0.271 N 
ATOM     11  C   UNK d   1      22.391   9.308  31.941  0.00  0.00     0.262 A 
ATOM     12  O   UNK d   1      22.637  10.495  32.247  0.00  0.00    -0.267 OA
ATOM     13  C   UNK d   1      21.217   8.529  32.298  0.00  0.00     0.048 A 
ATOM     14  C   UNK d   1      21.334   7.269  31.762  0.00  0.00     0.048 A 
ATOM     15  C   UNK d   1      20.098   8.835  33.031  0.00  0.00     0.018 A 
ATOM     16  C   UNK d   1      20.323   6.341  31.974  0.00  0.00     0.018 A 
ATOM     17  C   UNK d   1      22.601   7.219  31.043  0.00  0.00     0.262 A 
ATOM     18  C   UNK d   1      19.209   6.649  32.705  0.00  0.00     0.001 A 
ATOM     19  C   UNK d   1      19.077   7.923  33.254  0.00  0.00     0.001 A 
ATOM     20  O   UNK d   1      22.995   6.188  30.439  0.00  0.00    -0.267 OA
ENDBRANCH   9  10
ENDBRANCH   7   9
BRANCH   1  21
ATOM     21  S   UNK d   1      28.314   9.829  26.773  0.00  0.00     0.260 S 
ATOM     22  O   UNK d   1      27.428   9.594  25.557  0.00  0.00    -0.200 OA
ATOM     23  O   UNK d   1      29.664  10.222  26.205  0.00  0.00    -0.200 OA
BRANCH  21  24
ATOM     24  C   UNK d   1      28.528   8.370  27.663  0.00  0.00     0.079 A 
ATOM     25  C   UNK d   1      27.479   7.473  27.780  0.00  0.00     0.026 A 
ATOM     26  C   UNK d   1      27.596   6.290  28.480  0.00  0.00     0.020 A 
ATOM     27  C   UNK d   1      28.812   6.010  29.078  0.00  0.00     0.011 A 
ATOM     28  C   UNK d   1      29.848   6.913  28.954  0.00  0.00     0.020 A 
ATOM     29 Br   UNK d   1      29.045   4.376  30.071  0.00  0.00    -0.051 Br
ATOM     30  C   UNK d   1      29.745   8.098  28.256  0.00  0.00     0.026 A 
ENDBRANCH  21  24
ENDBRANCH   1  21
TORSDOF 4
ENDMDL
