MODEL 1
REMARK VINA RESULT:    -8.297      0.000      0.000
REMARK INTER + INTRA:         -11.045
REMARK INTER:                 -10.238
REMARK INTRA:                  -0.808
REMARK UNBOUND:                -0.808
REMARK  4 active torsions:
REMARK  status: ('A' for Active; 'I' for Inactive)
REMARK    1  A    between atoms: C_10  and  C_24 
REMARK    2  A    between atoms: N_15  and  C_18 
REMARK    3  A    between atoms: C_18  and  C_19 
REMARK    4  A    between atoms: C_24  and  C_25 
REMARK       I    between atoms: C_25  and  N_27 
ROOT
ATOM      1 Cl   UNK d   1      29.063  10.424  28.751  0.00  0.00    -0.082 Cl
ATOM      2  C   UNK d   1      27.447  11.051  28.517  0.00  0.00     0.061 A 
ATOM      3  C   UNK d   1      26.461  10.619  29.404  0.00  0.00     0.066 A 
ATOM      4  C   UNK d   1      25.176  11.090  29.252  0.00  0.00     0.019 A 
ATOM      5  C   UNK d   1      24.924  11.984  28.209  0.00  0.00     0.013 A 
ATOM      6  C   UNK d   1      25.905  12.405  27.337  0.00  0.00     0.002 A 
ATOM      7  C   UNK d   1      27.192  11.933  27.491  0.00  0.00     0.026 A 
ATOM      8  C   UNK d   1      24.291  10.524  30.269  0.00  0.00     0.279 A 
ATOM      9  N   UNK d   1      23.624  11.537  31.065  0.00  0.00     0.114 N 
ATOM     10  C   UNK d   1      22.452  10.874  31.621  0.00  0.00     0.245 C 
ATOM     11  C   UNK d   1      22.003   9.876  30.590  0.00  0.00     0.128 C 
ATOM     12  C   UNK d   1      23.192   9.664  29.686  0.00  0.00     0.147 C 
ATOM     13  C   UNK d   1      23.520   8.219  29.778  0.00  0.00     0.235 C 
ATOM     14  O   UNK d   1      24.556   7.740  29.239  0.00  0.00    -0.272 OA
ATOM     15  N   UNK d   1      22.518   7.553  30.528  0.00  0.00    -0.285 N 
ATOM     16  C   UNK d   1      21.815   8.544  31.261  0.00  0.00     0.233 C 
ATOM     17  O   UNK d   1      21.125   8.404  32.311  0.00  0.00    -0.272 OA
ATOM     18  C   UNK d   1      25.161   9.656  31.078  0.00  0.00     0.267 A 
ATOM     19  O   UNK d   1      24.829   8.950  32.099  0.00  0.00    -0.270 OA
ATOM     20  N   UNK d   1      26.462   9.739  30.521  0.00  0.00    -0.323 N 
ATOM     21  H   UNK d   1      23.357  12.370  30.495  0.00  0.00     0.318 HD
ATOM     22  H   UNK d   1      27.315   9.227  30.874  0.00  0.00     0.169 HD
ENDROOT
BRANCH  10  23
ATOM     23  C   UNK d   1      21.402  11.905  31.914  0.00  0.00     0.139 C 
BRANCH  23  24
ATOM     24  C   UNK d   1      21.729  13.112  31.089  0.00  0.00     0.217 C 
ATOM     25  O   UNK d   1      22.410  14.009  31.649  0.00  0.00    -0.274 OA
ATOM     26  N   UNK d   1      21.302  13.257  29.744  0.00  0.00    -0.370 N 
ATOM     27  H   UNK d   1      21.780  12.690  29.017  0.00  0.00     0.159 HD
ATOM     28  H   UNK d   1      20.540  13.894  29.440  0.00  0.00     0.159 HD
ENDBRANCH  23  24
ENDBRANCH  10  23
BRANCH  15  29
ATOM     29  C   UNK d   1      22.264   6.158  30.539  0.00  0.00     0.166 C 
BRANCH  29  30
ATOM     30  C   UNK d   1      23.253   5.293  31.214  0.00  0.00     0.140 C 
ATOM     31  O   UNK d   1      24.081   4.569  30.369  0.00  0.00    -0.384 OA
ATOM     32  C   UNK d   1      24.940   3.967  31.289  0.00  0.00     0.168 C 
ATOM     33  C   UNK d   1      24.019   3.443  32.398  0.00  0.00     0.029 C 
ATOM     34  C   UNK d   1      22.738   4.256  32.143  0.00  0.00     0.035 C 
ENDBRANCH  29  30
ENDBRANCH  15  29
TORSDOF 4
ENDMDL
