/Users/jonathanwahrer/Desktop/Msc/3_Semester/Drug_Design_Praktikum/waehrer_HTS_screening/HTS_experiment/out/docking_results/vina_output/3elj/1718_docked.pdbqt
 OpenBabel03192218343D

 34 38  0  0  1  0  0  0  0  0999 V2000
   29.0630   10.4240   28.7510 Cl  0  0  0  0  0  0  0  0  0  0  0  0
   27.4470   11.0510   28.5170 C   0  0  0  0  0  0  0  0  0  0  0  0
   26.4610   10.6190   29.4040 C   0  0  0  0  0  0  0  0  0  0  0  0
   25.1760   11.0900   29.2520 C   0  0  0  0  0  0  0  0  0  0  0  0
   24.9240   11.9840   28.2090 C   0  0  0  0  0  3  0  0  0  0  0  0
   25.9050   12.4050   27.3370 C   0  0  0  0  0  3  0  0  0  0  0  0
   27.1920   11.9330   27.4910 C   0  0  0  0  0  3  0  0  0  0  0  0
   24.2910   10.5240   30.2690 C   0  0  1  0  0  0  0  0  0  0  0  0
   23.6240   11.5370   31.0650 N   0  0  0  0  0  0  0  0  0  0  0  0
   22.4520   10.8740   31.6210 C   0  0  2  0  0  3  0  0  0  0  0  0
   22.0030    9.8760   30.5900 C   0  0  1  0  0  3  0  0  0  0  0  0
   23.1920    9.6640   29.6860 C   0  0  2  0  0  3  0  0  0  0  0  0
   23.5200    8.2190   29.7780 C   0  0  0  0  0  0  0  0  0  0  0  0
   24.5560    7.7400   29.2390 O   0  0  0  0  0  0  0  0  0  0  0  0
   22.5180    7.5530   30.5280 N   0  0  0  0  0  0  0  0  0  0  0  0
   21.8150    8.5440   31.2610 C   0  0  0  0  0  0  0  0  0  0  0  0
   21.1250    8.4040   32.3110 O   0  0  0  0  0  0  0  0  0  0  0  0
   25.1610    9.6560   31.0780 C   0  0  0  0  0  0  0  0  0  0  0  0
   24.8290    8.9500   32.0990 O   0  0  0  0  0  0  0  0  0  0  0  0
   26.4620    9.7390   30.5210 N   0  0  0  0  0  0  0  0  0  0  0  0
   23.3570   12.3700   30.4950 H   0  0  0  0  0  0  0  0  0  0  0  0
   27.3150    9.2270   30.8740 H   0  0  0  0  0  0  0  0  0  0  0  0
   21.4020   11.9050   31.9140 C   0  0  0  0  0  2  0  0  0  0  0  0
   21.7290   13.1120   31.0890 C   0  0  0  0  0  0  0  0  0  0  0  0
   22.4100   14.0090   31.6490 O   0  0  0  0  0  0  0  0  0  0  0  0
   21.3020   13.2570   29.7440 N   0  0  0  0  0  0  0  0  0  0  0  0
   21.7800   12.6900   29.0170 H   0  0  0  0  0  0  0  0  0  0  0  0
   20.5400   13.8940   29.4400 H   0  0  0  0  0  0  0  0  0  0  0  0
   22.2640    6.1580   30.5390 C   0  0  0  0  0  2  0  0  0  0  0  0
   23.2530    5.2930   31.2140 C   0  0  2  0  0  3  0  0  0  0  0  0
   24.0810    4.5690   30.3690 O   0  0  0  0  0  0  0  0  0  0  0  0
   24.9400    3.9670   31.2890 C   0  0  0  0  0  2  0  0  0  0  0  0
   24.0190    3.4430   32.3980 C   0  0  0  0  0  2  0  0  0  0  0  0
   22.7380    4.2560   32.1430 C   0  0  0  0  0  2  0  0  0  0  0  0
  2  1  1  0  0  0  0
  2  3  1  0  0  0  0
  3 20  1  0  0  0  0
  4  3  2  0  0  0  0
  5  4  1  0  0  0  0
  6  7  1  0  0  0  0
  6  5  2  0  0  0  0
  7  2  2  0  0  0  0
  8  4  1  6  0  0  0
  8  9  1  0  0  0  0
  8 18  1  0  0  0  0
  9 10  1  0  0  0  0
 10 23  1  6  0  0  0
 11 16  1  1  0  0  0
 11 10  1  0  0  0  0
 12 13  1  1  0  0  0
 12  8  1  0  0  0  0
 12 11  1  0  0  0  0
 13 15  1  0  0  0  0
 14 13  2  0  0  0  0
 15 29  1  0  0  0  0
 15 16  1  0  0  0  0
 16 17  2  0  0  0  0
 18 19  2  0  0  0  0
 20 22  1  0  0  0  0
 20 18  1  0  0  0  0
 21  9  1  0  0  0  0
 24 25  2  0  0  0  0
 24 23  1  0  0  0  0
 26 24  1  0  0  0  0
 27 26  1  0  0  0  0
 28 26  1  0  0  0  0
 30 29  1  6  0  0  0
 30 34  1  0  0  0  0
 31 30  1  0  0  0  0
 31 32  1  0  0  0  0
 32 33  1  0  0  0  0
 34 33  1  0  0  0  0
M  END
>  <Pose>
1

>  <Score>
-8.297

$$$$
