/Users/jonathanwahrer/Desktop/Msc/3_Semester/Drug_Design_Praktikum/waehrer_HTS_screening/HTS_experiment/out/docking_results/vina_output/3elj/1721_docked.pdbqt
 OpenBabel03192218343D

 28 31  0  0  1  0  0  0  0  0999 V2000
   24.0620   12.7140   29.8180 C   0  0  0  0  0  2  0  0  0  0  0  0
   22.6750   12.8790   29.5940 N   0  0  0  0  0  0  0  0  0  0  0  0
   22.2350   12.5460   28.7320 H   0  0  0  0  0  0  0  0  0  0  0  0
   21.8690   13.5420   30.5970 C   0  0  0  0  0  0  0  0  0  0  0  0
   21.8890   14.9160   30.5950 C   0  0  1  0  0  3  0  0  0  0  0  0
   21.1290   15.5930   31.5460 C   0  0  0  0  0  0  0  0  0  0  0  0
   22.4850   15.8790   29.8760 N   0  0  0  0  0  0  0  0  0  0  0  0
   20.4300   14.8350   32.3960 N   0  0  0  0  0  4  0  0  0  0  0  0
   21.3020   16.9110   31.3540 N   0  0  0  0  0  0  0  0  0  0  0  0
   20.4030   13.5090   32.4060 C   0  0  0  0  0  0  0  0  0  0  0  0
   19.4530   12.6190   33.5660 Cl  0  0  0  0  0  0  0  0  0  0  0  0
   21.1420   12.8510   31.4840 N   0  0  0  0  0  0  0  0  0  0  0  0
   22.1410   17.1020   30.3220 C   0  0  0  0  0  3  0  0  0  0  0  0
   23.1310   15.6490   29.0750 H   0  0  0  0  0  0  0  0  0  0  0  0
   24.4450   11.6450   30.7260 C   0  0  0  0  0  0  0  0  0  0  0  0
   24.8590   12.1130   31.9230 O   0  0  0  0  0  0  0  0  0  0  0  0
   24.4620   10.2840   30.5870 N   0  0  0  0  0  0  0  0  0  0  0  0
   24.1930    9.5100   29.4240 C   0  0  0  0  0  2  0  0  0  0  0  0
   24.7890    9.5000   31.8380 C   0  0  0  0  0  2  0  0  0  0  0  0
   22.9540    8.6360   29.5980 C   0  0  0  0  0  2  0  0  0  0  0  0
   22.9070    8.3140   30.9960 N   0  0  0  0  0  0  0  0  0  0  0  0
   24.1520    8.1150   31.6790 C   0  0  0  0  0  2  0  0  0  0  0  0
   21.7000    8.1860   31.7050 C   0  0  0  0  0  0  0  0  0  0  0  0
   21.0700    6.9830   31.8430 N   0  0  0  0  0  0  0  0  0  0  0  0
   19.9360    6.7950   32.4950 C   0  0  0  0  0  3  0  0  0  0  0  0
   19.2790    7.8270   33.1030 C   0  0  0  0  0  3  0  0  0  0  0  0
   19.8650    9.0800   33.0010 C   0  0  0  0  0  3  0  0  0  0  0  0
   21.0560    9.2530   32.3130 C   0  0  0  0  0  3  0  0  0  0  0  0
  1 15  1  0  0  0  0
  2  1  1  0  0  0  0
  2  4  1  0  0  0  0
  3  2  1  0  0  0  0
  4 12  2  0  0  0  0
  5  4  1  1  0  0  0
  5  6  1  0  0  0  0
  6  8  2  0  0  0  0
  7 13  1  0  0  0  0
  7  5  1  0  0  0  0
  8 10  2  0  0  0  0
  9  6  1  0  0  0  0
 10 11  1  0  0  0  0
 12 10  1  0  0  0  0
 13  9  2  0  0  0  0
 14  7  1  0  0  0  0
 15 16  2  0  0  0  0
 17 15  1  0  0  0  0
 17 19  1  0  0  0  0
 18 20  1  0  0  0  0
 18 17  1  0  0  0  0
 20 21  1  0  0  0  0
 21 22  1  0  0  0  0
 21 23  1  0  0  0  0
 22 19  1  0  0  0  0
 23 24  2  0  0  0  0
 23 28  1  0  0  0  0
 24 25  1  0  0  0  0
 25 26  2  0  0  0  0
 27 26  1  0  0  0  0
 28 27  2  0  0  0  0
M  END
>  <Pose>
1

>  <Score>
-8.912

$$$$
