MODEL 1
REMARK VINA RESULT:    -7.760      0.000      0.000
REMARK INTER + INTRA:         -10.791
REMARK INTER:                 -10.255
REMARK INTRA:                  -0.536
REMARK UNBOUND:                -0.536
REMARK  6 active torsions:
REMARK  status: ('A' for Active; 'I' for Inactive)
REMARK    1  A    between atoms: C_3  and  O_10 
REMARK    2  A    between atoms: O_10  and  C_11 
REMARK    3  A    between atoms: C_11  and  C_12 
REMARK    4  A    between atoms: C_12  and  O_13 
REMARK    5  A    between atoms: C_12  and  C_14 
REMARK    6  A    between atoms: C_14  and  N_15 
ROOT
ATOM      1  N   UNK d   1      25.836   6.536  28.612  0.00  0.00    -0.068 N 
ATOM      2  C   UNK d   1      27.162   7.008  28.391  0.00  0.00     0.241 C 
ATOM      3  C   UNK d   1      28.125   5.989  27.867  0.00  0.00     0.031 C 
ATOM      4  C   UNK d   1      28.549   4.970  28.864  0.00  0.00     0.138 C 
ATOM      5  N   UNK d   1      28.101   3.633  28.592  0.00  0.00    -0.317 N 
ATOM      6  C   UNK d   1      27.036   3.324  27.828  0.00  0.00     0.020 A 
ATOM      7  C   UNK d   1      26.609   2.053  27.570  0.00  0.00     0.026 A 
ATOM      8  C   UNK d   1      27.306   0.997  28.121  0.00  0.00     0.007 A 
ATOM      9  C   UNK d   1      28.394   1.304  28.902  0.00  0.00     0.074 A 
ATOM     10  C   UNK d   1      28.796   2.596  29.142  0.00  0.00     0.247 A 
ATOM     11  O   UNK d   1      29.799   2.839  29.863  0.00  0.00    -0.268 OA
ATOM     12  C   UNK d   1      26.317   4.525  27.257  0.00  0.00     0.062 C 
ATOM     13  C   UNK d   1      25.592   5.166  28.373  0.00  0.00     0.245 C 
ATOM     14  C   UNK d   1      27.423   5.360  26.658  0.00  0.00     0.020 C 
ATOM     15  H   UNK d   1      25.192   7.094  27.973  0.00  0.00     0.280 HD
ENDROOT
BRANCH   1  16
ATOM     16  C   UNK d   1      25.460   6.929  29.956  0.00  0.00     0.268 C 
BRANCH  16  17
ATOM     17  C   UNK d   1      25.033   8.357  30.073  0.00  0.00     0.168 C 
BRANCH  17  18
ATOM     18  C   UNK d   1      23.507   8.365  30.005  0.00  0.00     0.209 C 
BRANCH  18  19
ATOM     19  O   UNK d   1      23.047   8.042  31.286  0.00  0.00    -0.346 OA
BRANCH  19  20
ATOM     20  C   UNK d   1      21.769   7.844  31.685  0.00  0.00     0.103 A 
ATOM     21  C   UNK d   1      20.992   8.907  32.087  0.00  0.00     0.046 A 
ATOM     22 Br   UNK d   1      21.761  10.650  32.063  0.00  0.00    -0.048 Br
ATOM     23  C   UNK d   1      19.674   8.744  32.506  0.00  0.00     0.028 A 
ATOM     24  C   UNK d   1      19.124   7.496  32.524  0.00  0.00    -0.059 A 
ATOM     25  C   UNK d   1      19.877   6.408  32.127  0.00  0.00     0.028 A 
ATOM     26  C   UNK d   1      17.707   7.327  32.975  0.00  0.00     0.048 C 
ATOM     27  C   UNK d   1      21.199   6.590  31.709  0.00  0.00     0.046 A 
ATOM     28 Br   UNK d   1      22.245   5.098  31.160  0.00  0.00    -0.048 Br
ENDBRANCH  19  20
ENDBRANCH  18  19
ENDBRANCH  17  18
BRANCH  17  29
ATOM     29  O   UNK d   1      25.490   8.890  31.277  0.00  0.00    -0.392 OA
ATOM     30  H   UNK d   1      24.710   8.864  31.901  0.00  0.00     0.210 HD
ENDBRANCH  17  29
ENDBRANCH  16  17
ENDBRANCH   1  16
TORSDOF 6
ENDMDL
