/Users/jonathanwahrer/Desktop/Msc/3_Semester/Drug_Design_Praktikum/waehrer_HTS_screening/HTS_experiment/out/docking_results/vina_output/3elj/1726_docked.pdbqt
 OpenBabel03192218343D

 30 33  0  0  1  0  0  0  0  0999 V2000
   25.8360    6.5360   28.6120 N   0  0  0  0  0  4  0  0  0  0  0  0
   27.1620    7.0080   28.3910 C   0  0  0  0  0  2  0  0  0  0  0  0
   28.1250    5.9890   27.8670 C   0  0  1  0  0  3  0  0  0  0  0  0
   28.5490    4.9700   28.8640 C   0  0  0  0  0  2  0  0  0  0  0  0
   28.1010    3.6330   28.5920 N   0  0  0  0  0  0  0  0  0  0  0  0
   27.0360    3.3240   27.8280 C   0  0  0  0  0  0  0  0  0  0  0  0
   26.6090    2.0530   27.5700 C   0  0  0  0  0  3  0  0  0  0  0  0
   27.3060    0.9970   28.1210 C   0  0  0  0  0  3  0  0  0  0  0  0
   28.3940    1.3040   28.9020 C   0  0  0  0  0  3  0  0  0  0  0  0
   28.7960    2.5960   29.1420 C   0  0  0  0  0  0  0  0  0  0  0  0
   29.7990    2.8390   29.8630 O   0  0  0  0  0  0  0  0  0  0  0  0
   26.3170    4.5250   27.2570 C   0  0  1  0  0  3  0  0  0  0  0  0
   25.5920    5.1660   28.3730 C   0  0  0  0  0  2  0  0  0  0  0  0
   27.4230    5.3600   26.6580 C   0  0  0  0  0  2  0  0  0  0  0  0
   25.1920    7.0940   27.9730 H   0  0  0  0  0  0  0  0  0  0  0  0
   25.4600    6.9290   29.9560 C   0  0  0  0  0  2  0  0  0  0  0  0
   25.0330    8.3570   30.0730 C   0  0  1  0  0  3  0  0  0  0  0  0
   23.5070    8.3650   30.0050 C   0  0  0  0  0  2  0  0  0  0  0  0
   23.0470    8.0420   31.2860 O   0  0  0  0  0  0  0  0  0  0  0  0
   21.7690    7.8440   31.6850 C   0  0  0  0  0  0  0  0  0  0  0  0
   20.9920    8.9070   32.0870 C   0  0  0  0  0  0  0  0  0  0  0  0
   21.7610   10.6500   32.0630 Br  0  0  0  0  0  0  0  0  0  0  0  0
   19.6740    8.7440   32.5060 C   0  0  0  0  0  3  0  0  0  0  0  0
   19.1240    7.4960   32.5240 C   0  0  0  0  0  0  0  0  0  0  0  0
   19.8770    6.4080   32.1270 C   0  0  0  0  0  3  0  0  0  0  0  0
   17.7070    7.3270   32.9750 C   0  0  0  0  0  1  0  0  0  0  0  0
   21.1990    6.5900   31.7090 C   0  0  0  0  0  0  0  0  0  0  0  0
   22.2450    5.0980   31.1600 Br  0  0  0  0  0  0  0  0  0  0  0  0
   25.4900    8.8900   31.2770 O   0  0  0  0  0  0  0  0  0  0  0  0
   24.7100    8.8640   31.9010 H   0  0  0  0  0  0  0  0  0  0  0  0
  1 16  1  0  0  0  0
  2  1  1  0  0  0  0
  3 14  1  6  0  0  0
  3  2  1  0  0  0  0
  3  4  1  0  0  0  0
  5  4  1  0  0  0  0
  5 10  1  0  0  0  0
  6  5  1  0  0  0  0
  7  6  2  0  0  0  0
  7  8  1  0  0  0  0
  8  9  2  0  0  0  0
  9 10  1  0  0  0  0
 10 11  2  0  0  0  0
 12 14  1  1  0  0  0
 12  6  1  0  0  0  0
 12 13  1  0  0  0  0
 13  1  1  0  0  0  0
 15  1  1  0  0  0  0
 17 16  1  1  0  0  0
 17 29  1  0  0  0  0
 18 17  1  0  0  0  0
 18 19  1  0  0  0  0
 19 20  1  0  0  0  0
 20 27  2  0  0  0  0
 20 21  1  0  0  0  0
 21 23  2  0  0  0  0
 22 21  1  0  0  0  0
 23 24  1  0  0  0  0
 24 26  1  0  0  0  0
 25 24  2  0  0  0  0
 27 25  1  0  0  0  0
 28 27  1  0  0  0  0
 29 30  1  0  0  0  0
M  END
>  <Pose>
1

>  <Score>
-7.760

$$$$
