/Users/jonathanwahrer/Desktop/Msc/3_Semester/Drug_Design_Praktikum/waehrer_HTS_screening/HTS_experiment/out/docking_results/vina_output/3elj/1732_docked.pdbqt
 OpenBabel03192218343D

 28 31  0  0  0  0  0  0  0  0999 V2000
   24.5640   10.3680   29.9770 N   0  0  0  0  0  0  0  0  0  0  0  0
   25.2760    9.9830   31.0230 N   0  0  0  0  0  2  0  0  0  0  0  0
   24.6340    9.0230   31.6790 N   0  0  0  0  0  0  0  0  0  0  0  0
   23.4720    8.7810   31.0370 C   0  0  0  0  0  0  0  0  0  0  0  0
   23.4680    9.6290   29.9950 N   0  0  0  0  0  2  0  0  0  0  0  0
   24.9170   11.4030   28.9920 C   0  0  0  0  0  2  0  0  0  0  0  0
   24.1730   12.6610   29.2640 C   0  0  0  0  0  0  0  0  0  0  0  0
   23.3300   12.7870   30.3690 N   0  0  0  0  0  0  0  0  0  0  0  0
   23.2610   11.9290   30.9940 H   0  0  0  0  0  0  0  0  0  0  0  0
   24.3380   13.5950   28.4580 O   0  0  0  0  0  0  0  0  0  0  0  0
   22.5580   13.8980   30.7700 C   0  0  0  0  0  0  0  0  0  0  0  0
   21.4750   13.7330   31.6350 C   0  0  0  0  0  0  0  0  0  0  0  0
   21.0800   11.9860   32.2470 Br  0  0  0  0  0  0  0  0  0  0  0  0
   20.6800   14.7660   32.0680 C   0  0  0  0  0  3  0  0  0  0  0  0
   20.9460   16.0470   31.6380 C   0  0  0  0  0  3  0  0  0  0  0  0
   21.9980   16.2720   30.7860 C   0  0  0  0  0  3  0  0  0  0  0  0
   22.7880   15.1990   30.3650 C   0  0  0  0  0  3  0  0  0  0  0  0
   22.4530    7.8090   31.4050 C   0  0  0  0  0  0  0  0  0  0  0  0
   22.6540    6.4960   31.0470 C   0  0  0  0  0  0  0  0  0  0  0  0
   21.6830    5.5710   31.3970 C   0  0  0  0  0  3  0  0  0  0  0  0
   20.5470    5.9260   32.0790 C   0  0  0  0  0  3  0  0  0  0  0  0
   20.3440    7.2440   32.4380 C   0  0  0  0  0  3  0  0  0  0  0  0
   21.3150    8.1660   32.0880 C   0  0  0  0  0  3  0  0  0  0  0  0
   23.8090    6.0500   30.3380 N   0  0  0  0  0  0  0  0  0  0  0  0
   23.9970    6.2290   29.0370 N   0  0  0  0  0  0  0  0  0  0  0  0
   25.1530    5.7040   28.7000 N   0  0  0  0  0  0  0  0  0  0  0  0
   25.7050    5.1860   29.7950 N   0  0  0  0  0  0  0  0  0  0  0  0
   24.8590    5.4040   30.8230 C   0  0  0  0  0  3  0  0  0  0  0  0
  1  5  1  0  0  0  0
  1  2  1  0  0  0  0
  2  3  1  0  0  0  0
  4 18  1  0  0  0  0
  4  3  2  0  0  0  0
  5  4  1  0  0  0  0
  6  7  1  0  0  0  0
  6  1  1  0  0  0  0
  7  8  1  0  0  0  0
  8 11  1  0  0  0  0
  8  9  1  0  0  0  0
 10  7  2  0  0  0  0
 11 12  1  0  0  0  0
 12 14  2  0  0  0  0
 12 13  1  0  0  0  0
 15 14  1  0  0  0  0
 16 15  2  0  0  0  0
 17 11  2  0  0  0  0
 17 16  1  0  0  0  0
 18 23  1  0  0  0  0
 19 20  1  0  0  0  0
 19 18  2  0  0  0  0
 20 21  2  0  0  0  0
 21 22  1  0  0  0  0
 23 22  2  0  0  0  0
 24 28  1  0  0  0  0
 24 19  1  0  0  0  0
 25 24  1  0  0  0  0
 26 25  2  0  0  0  0
 26 27  1  0  0  0  0
 27 28  2  0  0  0  0
M  END
>  <Pose>
1

>  <Score>
-8.617

$$$$
