/Users/jonathanwahrer/Desktop/Msc/3_Semester/Drug_Design_Praktikum/waehrer_HTS_screening/HTS_experiment/out/docking_results/vina_output/3elj/1736_docked.pdbqt
 OpenBabel03192218353D

 35 39  0  0  1  0  0  0  0  0999 V2000
   27.7980    9.4610   29.3610 Cl  0  0  0  0  0  0  0  0  0  0  0  0
   27.8520    7.9640   28.4170 C   0  0  0  0  0  0  0  0  0  0  0  0
   27.5180    6.7600   28.9850 C   0  0  0  0  0  3  0  0  0  0  0  0
   27.5620    5.6060   28.2480 C   0  0  0  0  0  0  0  0  0  0  0  0
   27.9450    5.6650   26.9320 C   0  0  0  0  0  0  0  0  0  0  0  0
   28.2900    6.8730   26.3270 C   0  0  0  0  0  3  0  0  0  0  0  0
   28.2350    8.0140   27.0950 C   0  0  0  0  0  3  0  0  0  0  0  0
   27.9330    4.3800   26.3380 N   0  0  0  0  0  0  0  0  0  0  0  0
   27.5180    3.4720   27.3480 C   0  0  0  0  0  0  0  0  0  0  0  0
   27.3890    2.2370   27.2070 O   0  0  0  0  0  0  0  0  0  0  0  0
   27.2580    4.2020   28.6030 C   0  0  1  0  0  0  0  0  0  0  0  0
   28.0660    3.7240   29.6980 N   0  0  0  0  0  0  0  0  0  0  0  0
   27.2710    3.7850   30.8850 C   0  0  1  0  0  3  0  0  0  0  0  0
   25.8420    3.5220   30.4700 C   0  0  2  0  0  3  0  0  0  0  0  0
   25.8530    3.9850   29.0360 C   0  0  1  0  0  3  0  0  0  0  0  0
   24.9990    5.1970   28.9790 C   0  0  0  0  0  0  0  0  0  0  0  0
   24.9790    6.1110   28.1160 O   0  0  0  0  0  0  0  0  0  0  0  0
   24.1540    5.1360   30.1460 N   0  0  0  0  0  0  0  0  0  0  0  0
   24.8620    4.3970   31.1620 C   0  0  0  0  0  0  0  0  0  0  0  0
   24.6960    4.4630   32.4080 O   0  0  0  0  0  0  0  0  0  0  0  0
   28.1770    4.1010   25.3430 H   0  0  0  0  0  0  0  0  0  0  0  0
   28.9280    4.2740   29.7720 H   0  0  0  0  0  0  0  0  0  0  0  0
   27.7420    2.7960   31.9290 C   0  0  1  0  0  3  0  0  0  0  0  0
   28.5850    3.5860   32.9250 C   0  0  0  0  0  1  0  0  0  0  0  0
   26.6210    2.3560   32.6270 O   0  0  0  0  0  0  0  0  0  0  0  0
   26.0150    3.1140   32.7900 H   0  0  0  0  0  0  0  0  0  0  0  0
   22.8320    5.7070   30.2920 C   0  0  0  0  0  2  0  0  0  0  0  0
   22.9200    7.0360   30.9670 C   0  0  0  0  0  0  0  0  0  0  0  0
   21.8530    7.5370   31.6830 C   0  0  0  0  0  0  0  0  0  0  0  0
   21.9590    8.7720   32.3000 C   0  0  0  0  0  3  0  0  0  0  0  0
   23.1110    9.5300   32.2250 C   0  0  0  0  0  3  0  0  0  0  0  0
   24.1830    9.0390   31.5120 C   0  0  0  0  0  3  0  0  0  0  0  0
   24.0640    7.8110   30.9040 C   0  0  0  0  0  3  0  0  0  0  0  0
   20.6870    6.7680   31.7580 O   0  0  0  0  0  0  0  0  0  0  0  0
   20.0780    6.5830   33.0400 C   0  0  0  0  0  1  0  0  0  0  0  0
  2  3  1  0  0  0  0
  2  1  1  0  0  0  0
  4 11  1  0  0  0  0
  4  3  2  0  0  0  0
  5  4  1  0  0  0  0
  6  5  2  0  0  0  0
  6  7  1  0  0  0  0
  7  2  2  0  0  0  0
  8  5  1  0  0  0  0
  8  9  1  0  0  0  0
 10  9  2  0  0  0  0
 11  9  1  6  0  0  0
 11 15  1  0  0  0  0
 11 12  1  0  0  0  0
 12 22  1  0  0  0  0
 12 13  1  0  0  0  0
 13 23  1  1  0  0  0
 14 13  1  0  0  0  0
 14 19  1  1  0  0  0
 15 16  1  1  0  0  0
 15 14  1  0  0  0  0
 16 18  1  0  0  0  0
 17 16  2  0  0  0  0
 18 27  1  0  0  0  0
 18 19  1  0  0  0  0
 19 20  2  0  0  0  0
 21  8  1  0  0  0  0
 23 25  1  0  0  0  0
 23 24  1  1  0  0  0
 25 26  1  0  0  0  0
 27 28  1  0  0  0  0
 28 29  1  0  0  0  0
 29 34  1  0  0  0  0
 29 30  2  0  0  0  0
 31 30  1  0  0  0  0
 32 31  2  0  0  0  0
 33 28  2  0  0  0  0
 33 32  1  0  0  0  0
 34 35  1  0  0  0  0
M  END
>  <Pose>
1

>  <Score>
-7.326

$$$$
