MODEL 1
REMARK VINA RESULT:    -9.663      0.000      0.000
REMARK INTER + INTRA:         -11.919
REMARK INTER:                 -11.922
REMARK INTRA:                   0.004
REMARK UNBOUND:                 0.004
REMARK  4 active torsions:
REMARK  status: ('A' for Active; 'I' for Inactive)
REMARK    1  A    between atoms: N_6  and  C_9 
REMARK    2  A    between atoms: C_9  and  C_10 
REMARK       I    between atoms: C_10  and  N_12 
REMARK    3  A    between atoms: N_15  and  C_18 
REMARK    4  A    between atoms: C_18  and  C_19 
REMARK       I    between atoms: C_19  and  N_21 
ROOT
ATOM      1  C   UNK d   1      23.805   8.935  29.887  0.00  0.00     0.238 C 
ATOM      2  O   UNK d   1      23.003   8.674  28.969  0.00  0.00    -0.272 OA
ATOM      3  N   UNK d   1      24.462  10.174  29.924  0.00  0.00    -0.348 N 
ATOM      4  C   UNK d   1      24.260  11.211  28.936  0.00  0.00     0.145 C 
ATOM      5  C   UNK d   1      23.923  12.484  29.694  0.00  0.00     0.137 C 
ATOM      6  N   UNK d   1      23.749  12.242  31.066  0.00  0.00    -0.401 N 
ATOM      7  C   UNK d   1      24.774  11.634  31.810  0.00  0.00     0.137 C 
ATOM      8  C   UNK d   1      25.416  10.523  30.987  0.00  0.00     0.145 C 
ENDROOT
BRANCH   1   9
ATOM      9  C   UNK d   1      24.050   7.898  30.946  0.00  0.00     0.231 C 
BRANCH   9  10
ATOM     10  N   UNK d   1      22.861   7.121  31.222  0.00  0.00    -0.347 N 
ATOM     11  C   UNK d   1      21.721   7.602  31.797  0.00  0.00     0.045 A 
ATOM     12  C   UNK d   1      20.788   6.600  31.919  0.00  0.00    -0.007 A 
ATOM     13  C   UNK d   1      21.417   8.871  32.235  0.00  0.00     0.032 A 
ATOM     14  C   UNK d   1      19.533   6.826  32.475  0.00  0.00     0.032 A 
ATOM     15  C   UNK d   1      21.361   5.457  31.404  0.00  0.00     0.031 A 
ATOM     16  C   UNK d   1      19.217   8.111  32.922  0.00  0.00     0.011 A 
ATOM     17 Br   UNK d   1      17.496   8.456  33.693  0.00  0.00    -0.051 Br
ATOM     18  C   UNK d   1      20.165   9.104  32.792  0.00  0.00     0.021 A 
ATOM     19  C   UNK d   1      22.626   5.824  30.991  0.00  0.00     0.092 A 
ENDBRANCH   9  10
ENDBRANCH   1   9
BRANCH   6  20
ATOM     20  C   UNK d   1      22.491  12.448  31.654  0.00  0.00     0.220 C 
BRANCH  20  21
ATOM     21  C   UNK d   1      21.868  13.758  31.331  0.00  0.00     0.237 C 
ATOM     22  O   UNK d   1      22.525  14.522  30.581  0.00  0.00    -0.272 OA
ATOM     23  N   UNK d   1      20.615  14.168  31.813  0.00  0.00    -0.347 N 
ATOM     24  C   UNK d   1      20.083  15.468  31.456  0.00  0.00     0.152 C 
ATOM     25  C   UNK d   1      19.776  13.361  32.676  0.00  0.00     0.152 C 
ATOM     26  C   UNK d   1      18.705  15.240  30.870  0.00  0.00     0.187 C 
ATOM     27  O   UNK d   1      17.928  14.743  31.927  0.00  0.00    -0.388 OA
ATOM     28  C   UNK d   1      18.337  13.489  32.312  0.00  0.00     0.187 C 
ENDBRANCH  20  21
ENDBRANCH   6  20
TORSDOF 4
ENDMDL
