MODEL 1
REMARK VINA RESULT:    -9.496      0.000      0.000
REMARK INTER + INTRA:         -12.950
REMARK INTER:                 -11.994
REMARK INTRA:                  -0.956
REMARK UNBOUND:                -0.956
REMARK  5 active torsions:
REMARK  status: ('A' for Active; 'I' for Inactive)
REMARK    1  A    between atoms: C_4  and  N_8 
REMARK    2  A    between atoms: C_14  and  C_17 
REMARK    3  A    between atoms: C_19  and  C_22 
REMARK    4  A    between atoms: C_24  and  O_30 
REMARK    5  A    between atoms: C_25  and  O_28 
ROOT
ATOM      1  N   UNK d   1      23.893  12.749  30.517  0.00  0.00    -0.233 N 
ATOM      2  C   UNK d   1      23.964  13.017  29.117  0.00  0.00     0.336 C 
ATOM      3  O   UNK d   1      23.234  13.854  28.532  0.00  0.00    -0.246 OA
ATOM      4  N   UNK d   1      24.918  12.296  28.340  0.00  0.00    -0.277 N 
ATOM      5  C   UNK d   1      25.767  11.333  28.983  0.00  0.00     0.244 C 
ATOM      6  O   UNK d   1      26.747  10.905  28.286  0.00  0.00    -0.272 OA
ATOM      7  C   UNK d   1      25.533  10.860  30.360  0.00  0.00     0.221 C 
ATOM      8  C   UNK d   1      24.727  11.804  31.173  0.00  0.00     0.251 C 
ATOM      9  O   UNK d   1      24.810  11.732  32.424  0.00  0.00    -0.271 OA
ATOM     10  H   UNK d   1      25.024  12.444  27.304  0.00  0.00     0.173 HD
ENDROOT
BRANCH   7  11
ATOM     11  C   UNK d   1      24.876   9.500  30.348  0.00  0.00     0.041 C 
ATOM     12  C   UNK d   1      24.001   9.108  29.440  0.00  0.00     0.026 C 
ATOM     13  C   UNK d   1      23.631   7.728  29.827  0.00  0.00     0.134 C 
ATOM     14  N   UNK d   1      24.832   7.276  30.506  0.00  0.00    -0.228 NA
ATOM     15  N   UNK d   1      25.106   8.436  31.271  0.00  0.00    -0.323 N 
ATOM     16  H   UNK d   1      24.725   6.424  31.063  0.00  0.00     0.147 HD
ATOM     17  H   UNK d   1      25.399   8.567  32.239  0.00  0.00     0.180 HD
BRANCH  13  18
ATOM     18  C   UNK d   1      22.469   7.735  30.759  0.00  0.00    -0.032 A 
ATOM     19  C   UNK d   1      21.892   6.622  31.301  0.00  0.00     0.048 A 
ATOM     20  C   UNK d   1      20.840   6.684  32.192  0.00  0.00     0.099 A 
ATOM     21  C   UNK d   1      20.321   7.907  32.575  0.00  0.00     0.101 A 
ATOM     22  C   UNK d   1      20.918   9.048  32.014  0.00  0.00     0.040 A 
ATOM     23  C   UNK d   1      21.965   8.967  31.126  0.00  0.00     0.012 A 
BRANCH  20  24
ATOM     24  O   UNK d   1      20.280   5.507  32.721  0.00  0.00    -0.358 OA
ATOM     25  H   UNK d   1      20.214   5.422  33.730  0.00  0.00     0.217 HD
ENDBRANCH  20  24
BRANCH  21  26
ATOM     26  O   UNK d   1      19.277   8.009  33.463  0.00  0.00    -0.353 OA
ATOM     27  C   UNK d   1      18.404   9.119  33.465  0.00  0.00     0.210 C 
ENDBRANCH  21  26
ENDBRANCH  13  18
ENDBRANCH   7  11
BRANCH   1  28
ATOM     28  C   UNK d   1      22.922  13.467  31.269  0.00  0.00     0.048 A 
ATOM     29  C   UNK d   1      21.720  12.886  31.635  0.00  0.00     0.054 A 
ATOM     30  C   UNK d   1      20.769  13.546  32.373  0.00  0.00     0.036 A 
ATOM     31 Cl   UNK d   1      19.266  12.774  32.806  0.00  0.00    -0.084 Cl
ATOM     32  C   UNK d   1      21.043  14.846  32.757  0.00  0.00     0.024 A 
ATOM     33  C   UNK d   1      22.229  15.462  32.412  0.00  0.00     0.004 A 
ATOM     34  C   UNK d   1      23.160  14.749  31.662  0.00  0.00     0.030 A 
ENDBRANCH   1  28
TORSDOF 5
ENDMDL
