MODEL 1
REMARK VINA RESULT:    -7.506      0.000      0.000
REMARK INTER + INTRA:          -9.530
REMARK INTER:                  -8.823
REMARK INTRA:                  -0.707
REMARK UNBOUND:                -0.707
REMARK  3 active torsions:
REMARK  status: ('A' for Active; 'I' for Inactive)
REMARK    1  A    between atoms: S_1  and  N_4 
REMARK    2  A    between atoms: S_1  and  N_22 
REMARK       I    between atoms: N_7  and  C_10 
REMARK    3  A    between atoms: C_10  and  C_12 
ROOT
ATOM      1  N   UNK d   1      24.720   8.066  30.836  0.00  0.00    -0.295 N 
ATOM      2  C   UNK d   1      24.647   8.945  31.963  0.00  0.00     0.156 C 
ATOM      3  C   UNK d   1      24.193  10.342  31.584  0.00  0.00     0.147 C 
ATOM      4  N   UNK d   1      24.954  10.789  30.449  0.00  0.00    -0.344 N 
ATOM      5  C   UNK d   1      26.038   9.949  29.980  0.00  0.00     0.147 C 
ATOM      6  C   UNK d   1      25.464   8.571  29.733  0.00  0.00     0.156 C 
ATOM      7  C   UNK d   1      24.688  12.015  29.773  0.00  0.00     0.274 C 
ATOM      8  O   UNK d   1      25.365  12.382  28.785  0.00  0.00    -0.266 OA
ENDROOT
BRANCH   7   9
ATOM      9  C   UNK d   1      23.602  12.891  30.219  0.00  0.00     0.142 A 
ATOM     10  N   UNK d   1      23.720  13.962  31.052  0.00  0.00    -0.224 NA
ATOM     11  C   UNK d   1      22.509  14.512  31.228  0.00  0.00     0.134 A 
ATOM     12  N   UNK d   1      21.642  13.794  30.514  0.00  0.00    -0.313 N 
ATOM     13  C   UNK d   1      22.059  15.599  31.960  0.00  0.00     0.052 A 
ATOM     14  C   UNK d   1      22.284  12.798  29.889  0.00  0.00     0.135 A 
ATOM     15  C   UNK d   1      20.342  14.148  30.525  0.00  0.00     0.122 A 
ATOM     16  C   UNK d   1      19.844  15.210  31.228  0.00  0.00     0.050 A 
ATOM     17  C   UNK d   1      20.733  15.971  31.979  0.00  0.00     0.029 A 
ATOM     18 Cl   UNK d   1      18.138  15.644  31.220  0.00  0.00    -0.083 Cl
ENDBRANCH   7   9
BRANCH   1  19
ATOM     19  S   UNK d   1      23.282   7.275  30.431  0.00  0.00     0.301 S 
ATOM     20  O   UNK d   1      22.640   7.948  29.261  0.00  0.00    -0.188 OA
ATOM     21  O   UNK d   1      23.605   5.859  30.046  0.00  0.00    -0.188 OA
BRANCH  19  22
ATOM     22  N   UNK d   1      22.140   7.209  31.713  0.00  0.00    -0.189 NA
ATOM     23  C   UNK d   1      21.345   5.995  31.682  0.00  0.00     0.135 C 
ATOM     24  C   UNK d   1      20.061   6.284  32.423  0.00  0.00     0.183 C 
ATOM     25  O   UNK d   1      20.261   7.174  33.472  0.00  0.00    -0.389 OA
ATOM     26  C   UNK d   1      20.593   8.454  33.035  0.00  0.00     0.183 C 
ATOM     27  C   UNK d   1      21.202   8.315  31.654  0.00  0.00     0.135 C 
ENDBRANCH  19  22
ENDBRANCH   1  19
TORSDOF 3
ENDMDL
