/Users/jonathanwahrer/Desktop/Msc/3_Semester/Drug_Design_Praktikum/waehrer_HTS_screening/HTS_experiment/out/docking_results/vina_output/3elj/1750_docked.pdbqt
 OpenBabel03192218363D

 27 30  0  0  0  0  0  0  0  0999 V2000
   24.7200    8.0660   30.8360 N   0  0  0  0  0  0  0  0  0  0  0  0
   24.6470    8.9450   31.9630 C   0  0  0  0  0  2  0  0  0  0  0  0
   24.1930   10.3420   31.5840 C   0  0  0  0  0  2  0  0  0  0  0  0
   24.9540   10.7890   30.4490 N   0  0  0  0  0  0  0  0  0  0  0  0
   26.0380    9.9490   29.9800 C   0  0  0  0  0  2  0  0  0  0  0  0
   25.4640    8.5710   29.7330 C   0  0  0  0  0  2  0  0  0  0  0  0
   24.6880   12.0150   29.7730 C   0  0  0  0  0  0  0  0  0  0  0  0
   25.3650   12.3820   28.7850 O   0  0  0  0  0  0  0  0  0  0  0  0
   23.6020   12.8910   30.2190 C   0  0  0  0  0  0  0  0  0  0  0  0
   23.7200   13.9620   31.0520 N   0  0  0  0  0  0  0  0  0  0  0  0
   22.5090   14.5120   31.2280 C   0  0  0  0  0  0  0  0  0  0  0  0
   21.6420   13.7940   30.5140 N   0  0  0  0  0  0  0  0  0  0  0  0
   22.0590   15.5990   31.9600 C   0  0  0  0  0  3  0  0  0  0  0  0
   22.2840   12.7980   29.8890 C   0  0  0  0  0  3  0  0  0  0  0  0
   20.3420   14.1480   30.5250 C   0  0  0  0  0  3  0  0  0  0  0  0
   19.8440   15.2100   31.2280 C   0  0  0  0  0  0  0  0  0  0  0  0
   20.7330   15.9710   31.9790 C   0  0  0  0  0  3  0  0  0  0  0  0
   18.1380   15.6440   31.2200 Cl  0  0  0  0  0  0  0  0  0  0  0  0
   23.2820    7.2750   30.4310 S   0  0  0  0  0  0  0  0  0  0  0  0
   22.6400    7.9480   29.2610 O   0  0  0  0  0  0  0  0  0  0  0  0
   23.6050    5.8590   30.0460 O   0  0  0  0  0  0  0  0  0  0  0  0
   22.1400    7.2090   31.7130 N   0  0  0  0  0  0  0  0  0  0  0  0
   21.3450    5.9950   31.6820 C   0  0  0  0  0  2  0  0  0  0  0  0
   20.0610    6.2840   32.4230 C   0  0  0  0  0  2  0  0  0  0  0  0
   20.2610    7.1740   33.4720 O   0  0  0  0  0  0  0  0  0  0  0  0
   20.5930    8.4540   33.0350 C   0  0  0  0  0  2  0  0  0  0  0  0
   21.2020    8.3150   31.6540 C   0  0  0  0  0  2  0  0  0  0  0  0
  1  2  1  0  0  0  0
  3  2  1  0  0  0  0
  4  3  1  0  0  0  0
  5  4  1  0  0  0  0
  6  5  1  0  0  0  0
  6  1  1  0  0  0  0
  7  9  1  0  0  0  0
  7  4  1  0  0  0  0
  8  7  2  0  0  0  0
  9 10  1  0  0  0  0
 10 11  2  0  0  0  0
 11 13  1  0  0  0  0
 12 15  1  0  0  0  0
 12 11  1  0  0  0  0
 13 17  2  0  0  0  0
 14  9  2  0  0  0  0
 14 12  1  0  0  0  0
 15 16  2  0  0  0  0
 16 17  1  0  0  0  0
 18 16  1  0  0  0  0
 19  1  1  0  0  0  0
 19 22  1  0  0  0  0
 20 19  2  0  0  0  0
 21 19  2  0  0  0  0
 23 22  1  0  0  0  0
 23 24  1  0  0  0  0
 24 25  1  0  0  0  0
 26 25  1  0  0  0  0
 27 22  1  0  0  0  0
 27 26  1  0  0  0  0
M  END
>  <Pose>
1

>  <Score>
-7.506

$$$$
