MODEL 1
REMARK VINA RESULT:    -8.617      0.000      0.000
REMARK INTER + INTRA:         -12.215
REMARK INTER:                 -11.639
REMARK INTRA:                  -0.576
REMARK UNBOUND:                -0.576
REMARK  6 active torsions:
REMARK  status: ('A' for Active; 'I' for Inactive)
REMARK    1  A    between atoms: S_1  and  N_4 
REMARK    2  A    between atoms: S_1  and  C_21 
REMARK    3  A    between atoms: C_5  and  C_9 
REMARK       I    between atoms: C_9  and  N_11 
REMARK    4  A    between atoms: N_11  and  C_12 
REMARK    5  A    between atoms: C_12  and  C_13 
REMARK    6  A    between atoms: C_13  and  N_14 
ROOT
ATOM      1  N   UNK d   1      20.906   6.870  32.371  0.00  0.00    -0.293 N 
ATOM      2  C   UNK d   1      20.218   7.932  31.815  0.00  0.00     0.188 C 
ATOM      3  C   UNK d   1      18.731   7.612  32.024  0.00  0.00     0.037 C 
ATOM      4  C   UNK d   1      18.751   6.950  33.384  0.00  0.00     0.023 C 
ATOM      5  C   UNK d   1      20.118   6.314  33.467  0.00  0.00     0.136 C 
ENDROOT
BRANCH   1   6
ATOM      6  S   UNK d   1      21.789   5.743  31.531  0.00  0.00     0.263 S 
ATOM      7  O   UNK d   1      20.987   5.078  30.414  0.00  0.00    -0.200 OA
ATOM      8  O   UNK d   1      22.114   4.584  32.476  0.00  0.00    -0.200 OA
BRANCH   6   9
ATOM      9  C   UNK d   1      23.299   6.312  30.883  0.00  0.00     0.104 A 
ATOM     10  C   UNK d   1      23.422   7.671  30.550  0.00  0.00     0.066 A 
ATOM     11  C   UNK d   1      24.537   8.216  29.980  0.00  0.00     0.097 A 
ATOM     12  C   UNK d   1      25.595   7.363  29.724  0.00  0.00     0.070 A 
ATOM     13  O   UNK d   1      24.653   9.558  29.654  0.00  0.00    -0.340 OA
ATOM     14  C   UNK d   1      25.545   6.035  30.022  0.00  0.00     0.058 A 
ATOM     15  N   UNK d   1      26.776   7.924  29.129  0.00  0.00    -0.323 N 
ATOM     16  C   UNK d   1      24.386   5.533  30.602  0.00  0.00     0.059 A 
ATOM     17 Cl   UNK d   1      24.437   3.842  31.051  0.00  0.00    -0.083 Cl
ATOM     18  C   UNK d   1      26.818   9.317  28.829  0.00  0.00     0.246 C 
ATOM     19  H   UNK d   1      27.588   7.288  28.929  0.00  0.00     0.169 HD
ATOM     20  O   UNK d   1      27.585   9.742  27.947  0.00  0.00    -0.271 OA
ATOM     21  C   UNK d   1      25.921  10.207  29.606  0.00  0.00     0.278 C 
ENDBRANCH   6   9
ENDBRANCH   1   6
BRANCH   2  22
ATOM     22  C   UNK d   1      20.549   9.187  32.604  0.00  0.00     0.241 C 
ATOM     23  O   UNK d   1      21.723   9.289  32.983  0.00  0.00    -0.271 OA
ATOM     24  N   UNK d   1      19.542  10.135  32.853  0.00  0.00    -0.358 N 
ATOM     25  H   UNK d   1      18.561  10.012  32.531  0.00  0.00     0.162 HD
BRANCH  24  26
ATOM     26  C   UNK d   1      19.842  11.337  33.591  0.00  0.00     0.152 C 
BRANCH  26  27
ATOM     27  C   UNK d   1      19.483  12.610  32.924  0.00  0.00     0.292 C 
BRANCH  27  28
ATOM     28  N   UNK d   1      20.558  13.388  32.420  0.00  0.00     0.090 N 
ATOM     29  C   UNK d   1      20.188  14.560  31.695  0.00  0.00     0.272 C 
ATOM     30  C   UNK d   1      21.164  15.660  32.064  0.00  0.00     0.030 C 
ATOM     31  C   UNK d   1      22.576  15.145  31.873  0.00  0.00     0.002 C 
ATOM     32  C   UNK d   1      22.652  14.455  30.538  0.00  0.00     0.002 C 
ATOM     33  C   UNK d   1      22.113  13.074  30.523  0.00  0.00     0.030 C 
ATOM     34  C   UNK d   1      21.555  12.577  31.803  0.00  0.00     0.272 C 
ENDBRANCH  27  28
ENDBRANCH  26  27
ENDBRANCH  24  26
ENDBRANCH   2  22
TORSDOF 6
ENDMDL
