MODEL 1
REMARK VINA RESULT:    -8.539      0.000      0.000
REMARK INTER + INTRA:         -10.127
REMARK INTER:                  -9.537
REMARK INTRA:                  -0.590
REMARK UNBOUND:                -0.590
REMARK  2 active torsions:
REMARK  status: ('A' for Active; 'I' for Inactive)
REMARK    1  A    between atoms: C_5  and  C_8 
REMARK       I    between atoms: C_8  and  N_10 
REMARK    2  A    between atoms: N_13  and  C_16 
ROOT
ATOM      1  C   UNK d   1      23.195   8.613  30.367  0.00  0.00     0.187 C 
ATOM      2  O   UNK d   1      23.106   8.440  29.072  0.00  0.00    -0.171 OA
ATOM      3  N   UNK d   1      24.345   9.265  30.788  0.00  0.00    -0.356 N 
ATOM      4  C   UNK d   1      24.824   9.582  32.092  0.00  0.00     0.145 C 
ATOM      5  C   UNK d   1      24.479  11.072  32.292  0.00  0.00     0.144 C 
ATOM      6  N   UNK d   1      24.767  11.756  31.018  0.00  0.00    -0.361 N 
ATOM      7  C   UNK d   1      25.742  11.165  30.147  0.00  0.00     0.144 C 
ATOM      8  C   UNK d   1      25.248   9.797  29.714  0.00  0.00     0.145 C 
ENDROOT
BRANCH   1   9
ATOM      9  C   UNK d   1      22.076   8.090  31.097  0.00  0.00     0.018 A 
ATOM     10  C   UNK d   1      21.160   8.971  31.685  0.00  0.00     0.017 A 
ATOM     11  C   UNK d   1      20.083   8.556  32.434  0.00  0.00     0.025 A 
ATOM     12  C   UNK d   1      19.848   7.221  32.648  0.00  0.00     0.034 A 
ATOM     13 Cl   UNK d   1      18.464   6.683  33.610  0.00  0.00    -0.084 Cl
ATOM     14  C   UNK d   1      20.718   6.321  32.091  0.00  0.00     0.025 A 
ATOM     15  C   UNK d   1      21.816   6.758  31.328  0.00  0.00     0.017 A 
ENDBRANCH   1   9
BRANCH   6  16
ATOM     16  C   UNK d   1      24.082  12.965  30.702  0.00  0.00     0.146 A 
ATOM     17  N   UNK d   1      23.494  13.708  31.665  0.00  0.00    -0.147 NA
ATOM     18  N   UNK d   1      22.849  14.832  31.409  0.00  0.00    -0.204 N 
ATOM     19  C   UNK d   1      22.728  15.325  30.169  0.00  0.00     0.174 A 
ATOM     20  C   UNK d   1      22.196  15.721  32.210  0.00  0.00     0.261 A 
ATOM     21  N   UNK d   1      22.023  16.483  30.190  0.00  0.00    -0.129 NA
ATOM     22  C   UNK d   1      23.304  14.620  29.125  0.00  0.00     0.058 A 
ATOM     23  N   UNK d   1      21.703  16.714  31.449  0.00  0.00    -0.141 NA
ATOM     24  C   UNK d   1      23.970  13.453  29.419  0.00  0.00     0.056 A 
ENDBRANCH   6  16
TORSDOF 2
ENDMDL
