/Users/jonathanwahrer/Desktop/Msc/3_Semester/Drug_Design_Praktikum/waehrer_HTS_screening/HTS_experiment/out/docking_results/vina_output/3elj/1781_docked.pdbqt
 OpenBabel03192218363D

 24 27  0  0  0  0  0  0  0  0999 V2000
   23.1950    8.6130   30.3670 C   0  0  0  0  0  0  0  0  0  0  0  0
   23.1060    8.4400   29.0720 O   0  0  0  0  0  0  0  0  0  0  0  0
   24.3450    9.2650   30.7880 N   0  0  0  0  0  0  0  0  0  0  0  0
   24.8240    9.5820   32.0920 C   0  0  0  0  0  2  0  0  0  0  0  0
   24.4790   11.0720   32.2920 C   0  0  0  0  0  2  0  0  0  0  0  0
   24.7670   11.7560   31.0180 N   0  0  0  0  0  0  0  0  0  0  0  0
   25.7420   11.1650   30.1470 C   0  0  0  0  0  2  0  0  0  0  0  0
   25.2480    9.7970   29.7140 C   0  0  0  0  0  2  0  0  0  0  0  0
   22.0760    8.0900   31.0970 C   0  0  0  0  0  0  0  0  0  0  0  0
   21.1600    8.9710   31.6850 C   0  0  0  0  0  3  0  0  0  0  0  0
   20.0830    8.5560   32.4340 C   0  0  0  0  0  3  0  0  0  0  0  0
   19.8480    7.2210   32.6480 C   0  0  0  0  0  0  0  0  0  0  0  0
   18.4640    6.6830   33.6100 Cl  0  0  0  0  0  0  0  0  0  0  0  0
   20.7180    6.3210   32.0910 C   0  0  0  0  0  3  0  0  0  0  0  0
   21.8160    6.7580   31.3280 C   0  0  0  0  0  3  0  0  0  0  0  0
   24.0820   12.9650   30.7020 C   0  0  0  0  0  0  0  0  0  0  0  0
   23.4940   13.7080   31.6650 N   0  0  0  0  0  0  0  0  0  0  0  0
   22.8490   14.8320   31.4090 N   0  0  0  0  0  0  0  0  0  0  0  0
   22.7280   15.3250   30.1690 C   0  0  0  0  0  0  0  0  0  0  0  0
   22.1960   15.7210   32.2100 C   0  0  0  0  0  3  0  0  0  0  0  0
   22.0230   16.4830   30.1900 N   0  0  0  0  0  0  0  0  0  0  0  0
   23.3040   14.6200   29.1250 C   0  0  0  0  0  3  0  0  0  0  0  0
   21.7030   16.7140   31.4490 N   0  0  0  0  0  0  0  0  0  0  0  0
   23.9700   13.4530   29.4190 C   0  0  0  0  0  3  0  0  0  0  0  0
  1  3  1  0  0  0  0
  1  9  1  0  0  0  0
  2  1  2  0  0  0  0
  3  4  1  0  0  0  0
  4  5  1  0  0  0  0
  6  5  1  0  0  0  0
  7  6  1  0  0  0  0
  8  7  1  0  0  0  0
  8  3  1  0  0  0  0
  9 15  2  0  0  0  0
  9 10  1  0  0  0  0
 10 11  2  0  0  0  0
 11 12  1  0  0  0  0
 12 13  1  0  0  0  0
 14 12  2  0  0  0  0
 15 14  1  0  0  0  0
 16  6  1  0  0  0  0
 16 17  2  0  0  0  0
 18 17  1  0  0  0  0
 18 20  1  0  0  0  0
 19 21  2  0  0  0  0
 19 18  1  0  0  0  0
 21 23  1  0  0  0  0
 22 24  2  0  0  0  0
 22 19  1  0  0  0  0
 23 20  2  0  0  0  0
 24 16  1  0  0  0  0
M  END
>  <Pose>
1

>  <Score>
-8.539

$$$$
