MODEL 1
REMARK VINA RESULT:    -9.811      0.000      0.000
REMARK INTER + INTRA:         -12.659
REMARK INTER:                 -12.105
REMARK INTRA:                  -0.554
REMARK UNBOUND:                -0.554
REMARK  4 active torsions:
REMARK  status: ('A' for Active; 'I' for Inactive)
REMARK    1  A    between atoms: C_5  and  N_8 
REMARK    2  A    between atoms: C_10  and  C_24 
REMARK    3  A    between atoms: N_11  and  C_14 
REMARK    4  A    between atoms: C_14  and  C_15 
REMARK       I    between atoms: C_15  and  N_17 
ROOT
ATOM      1  N   UNK d   1      23.389   6.317  31.121  0.00  0.00    -0.181 N 
ATOM      2  N   UNK d   1      22.535   6.862  31.911  0.00  0.00    -0.144 NA
ATOM      3  C   UNK d   1      22.017   8.029  31.373  0.00  0.00     0.165 A 
ATOM      4  N   UNK d   1      22.602   8.180  30.200  0.00  0.00    -0.272 N 
ATOM      5  C   UNK d   1      23.452   7.109  30.048  0.00  0.00     0.352 A 
ATOM      6  O   UNK d   1      24.166   6.940  29.036  0.00  0.00    -0.244 OA
ENDROOT
BRANCH   4   7
ATOM      7  C   UNK d   1      22.511   9.262  29.272  0.00  0.00     0.222 C 
BRANCH   7   8
ATOM      8  C   UNK d   1      23.442  10.382  29.511  0.00  0.00     0.172 C 
ATOM      9  O   UNK d   1      24.689  10.055  29.338  0.00  0.00    -0.175 OA
ATOM     10  N   UNK d   1      23.217  11.689  29.880  0.00  0.00    -0.351 N 
ATOM     11  C   UNK d   1      21.933  12.269  30.170  0.00  0.00     0.145 C 
ATOM     12  C   UNK d   1      24.361  12.611  29.988  0.00  0.00     0.227 C 
ATOM     13  C   UNK d   1      22.042  13.741  30.604  0.00  0.00     0.142 C 
ATOM     14  N   UNK d   1      22.803  14.481  29.593  0.00  0.00    -0.358 N 
ATOM     15  C   UNK d   1      24.011  13.805  29.181  0.00  0.00     0.235 C 
ATOM     16  H   UNK d   1      22.513  15.386  29.213  0.00  0.00     0.162 HD
ATOM     17  O   UNK d   1      24.675  14.232  28.210  0.00  0.00    -0.272 OA
ENDBRANCH   7   8
ENDBRANCH   4   7
BRANCH   3  18
ATOM     18  C   UNK d   1      21.045   8.817  32.129  0.00  0.00     0.012 A 
ATOM     19  C   UNK d   1      19.796   8.243  32.394  0.00  0.00     0.015 A 
ATOM     20  C   UNK d   1      18.777   8.892  33.036  0.00  0.00     0.001 A 
ATOM     21  C   UNK d   1      18.939  10.200  33.472  0.00  0.00     0.000 A 
ATOM     22  C   UNK d   1      20.154  10.772  33.217  0.00  0.00     0.001 A 
ATOM     23  C   UNK d   1      21.191  10.104  32.560  0.00  0.00     0.015 A 
ENDBRANCH   3  18
BRANCH   1  24
ATOM     24  C   UNK d   1      24.104   5.111  31.373  0.00  0.00     0.063 A 
ATOM     25  C   UNK d   1      23.513   4.095  32.098  0.00  0.00     0.033 A 
ATOM     26  C   UNK d   1      24.193   2.916  32.354  0.00  0.00     0.026 A 
ATOM     27  C   UNK d   1      25.481   2.693  31.906  0.00  0.00     0.034 A 
ATOM     28 Cl   UNK d   1      26.352   1.206  32.226  0.00  0.00    -0.084 Cl
ATOM     29  C   UNK d   1      26.072   3.715  31.179  0.00  0.00     0.026 A 
ATOM     30  C   UNK d   1      25.389   4.901  30.920  0.00  0.00     0.033 A 
ENDBRANCH   1  24
TORSDOF 4
ENDMDL
