MODEL 1
REMARK VINA RESULT:    -9.023      0.000      0.000
REMARK INTER + INTRA:         -10.583
REMARK INTER:                 -11.132
REMARK INTRA:                   0.550
REMARK UNBOUND:                 0.550
REMARK  4 active torsions:
REMARK  status: ('A' for Active; 'I' for Inactive)
REMARK    1  A    between atoms: C_5  and  N_8 
REMARK    2  A    between atoms: N_15  and  C_18 
REMARK    3  A    between atoms: C_20  and  O_26 
REMARK    4  A    between atoms: C_22  and  O_24 
ROOT
ATOM      1  N   UNK d   1      20.242  10.031  32.654  0.00  0.00    -0.234 N 
ATOM      2  N   UNK d   1      19.083   9.731  33.206  0.00  0.00    -0.234 N 
ATOM      3  N   UNK d   1      19.005   8.407  33.196  0.00  0.00    -0.278 N 
ATOM      4  C   UNK d   1      20.099   7.854  32.644  0.00  0.00     0.152 A 
ATOM      5  C   UNK d   1      20.877   8.895  32.304  0.00  0.00     0.160 A 
ATOM      6  C   UNK d   1      22.001   8.324  31.737  0.00  0.00     0.286 A 
ATOM      7  O   UNK d   1      22.964   9.017  31.294  0.00  0.00    -0.265 OA
ATOM      8  N   UNK d   1      21.929   6.982  31.723  0.00  0.00    -0.241 N 
ATOM      9  C   UNK d   1      20.745   6.688  32.288  0.00  0.00     0.286 A 
ATOM     10  O   UNK d   1      20.311   5.510  32.456  0.00  0.00    -0.265 OA
ATOM     11  H   UNK d   1      18.381  10.419  33.571  0.00  0.00     0.209 HD
ATOM     12  H   UNK d   1      18.199   7.860  33.567  0.00  0.00     0.189 HD
ENDROOT
BRANCH   8  13
ATOM     13  C   UNK d   1      22.928   6.106  31.207  0.00  0.00     0.051 A 
ATOM     14  C   UNK d   1      23.317   4.960  31.871  0.00  0.00     0.067 A 
ATOM     15  C   UNK d   1      24.281   4.097  31.391  0.00  0.00     0.073 A 
ATOM     16  C   UNK d   1      24.886   4.396  30.189  0.00  0.00     0.073 A 
ATOM     17  C   UNK d   1      24.537   5.528  29.482  0.00  0.00     0.073 A 
ATOM     18  C   UNK d   1      23.560   6.369  30.007  0.00  0.00     0.067 A 
BRANCH  15  19
ATOM     19  O   UNK d   1      24.642   2.939  32.107  0.00  0.00    -0.356 OA
ATOM     20  C   UNK d   1      23.833   2.522  33.183  0.00  0.00     0.210 C 
ENDBRANCH  15  19
BRANCH  17  21
ATOM     21  O   UNK d   1      25.169   5.796  28.275  0.00  0.00    -0.356 OA
ATOM     22  C   UNK d   1      25.925   4.827  27.602  0.00  0.00     0.210 C 
ENDBRANCH  17  21
ENDBRANCH   8  13
BRANCH   1  23
ATOM     23  C   UNK d   1      20.751  11.339  32.453  0.00  0.00     0.058 A 
ATOM     24  C   UNK d   1      21.890  11.585  31.702  0.00  0.00     0.033 A 
ATOM     25  C   UNK d   1      22.353  12.863  31.528  0.00  0.00     0.026 A 
ATOM     26  C   UNK d   1      21.716  13.952  32.087  0.00  0.00     0.034 A 
ATOM     27 Cl   UNK d   1      22.360  15.579  31.831  0.00  0.00    -0.084 Cl
ATOM     28  C   UNK d   1      20.589  13.731  32.834  0.00  0.00     0.026 A 
ATOM     29  C   UNK d   1      20.125  12.444  33.007  0.00  0.00     0.033 A 
ENDBRANCH   1  23
TORSDOF 4
ENDMDL
