/Users/jonathanwahrer/Desktop/Msc/3_Semester/Drug_Design_Praktikum/waehrer_HTS_screening/HTS_experiment/out/docking_results/vina_output/3elj/1801_docked.pdbqt
 OpenBabel03192218373D

 26 29  0  0  0  0  0  0  0  0999 V2000
   17.7220    8.7390   33.9300 Cl  0  0  0  0  0  0  0  0  0  0  0  0
   19.3020    9.1440   33.2600 C   0  0  0  0  0  0  0  0  0  0  0  0
   19.6330   10.4620   32.9980 C   0  0  0  0  0  3  0  0  0  0  0  0
   20.8560   10.7890   32.4790 C   0  0  0  0  0  0  0  0  0  0  0  0
   21.7270    9.7550   32.2350 C   0  0  0  0  0  0  0  0  0  0  0  0
   21.4250    8.4420   32.4870 C   0  0  0  0  0  3  0  0  0  0  0  0
   20.1830    8.1240   33.0120 C   0  0  0  0  0  3  0  0  0  0  0  0
   23.0560   10.0710   31.6750 C   0  0  0  0  0  0  0  0  0  0  0  0
   24.0650    9.3430   31.3460 N   0  0  0  0  0  0  0  0  0  0  0  0
   25.1540   10.1250   30.8350 C   0  0  0  0  0  3  0  0  0  0  0  0
   24.6680   11.5360   30.8880 C   0  0  0  0  0  3  0  0  0  0  0  0
   23.3330   11.4390   31.4280 N   0  0  0  0  0  0  0  0  0  0  0  0
   22.3850   12.4800   31.7020 C   0  0  0  0  0  0  0  0  0  0  0  0
   22.4280   13.8120   31.5520 N   0  0  0  0  0  0  0  0  0  0  0  0
   21.2900   14.3520   31.9510 N   0  0  0  0  0  0  0  0  0  0  0  0
   20.5250   13.3230   32.3570 C   0  0  0  0  0  0  0  0  0  0  0  0
   19.3610   13.4510   32.8080 O   0  0  0  0  0  0  0  0  0  0  0  0
   21.1870   12.1440   32.2120 N   0  0  0  0  0  0  0  0  0  0  0  0
   20.9140   15.7620   31.9600 C   0  0  0  0  0  2  0  0  0  0  0  0
   21.8800   16.5200   31.1310 C   0  0  0  0  0  0  0  0  0  0  0  0
   22.5660   17.4300   31.6770 O   0  0  0  0  0  0  0  0  0  0  0  0
   22.0690   16.2690   29.7470 N   0  0  0  0  0  0  0  0  0  0  0  0
   21.4960   15.5160   29.3140 H   0  0  0  0  0  0  0  0  0  0  0  0
   23.0240   17.0360   28.9790 C   0  0  0  0  0  3  0  0  0  0  0  0
   23.6920   16.1560   27.9190 C   0  0  0  0  0  1  0  0  0  0  0  0
   22.2270   18.0800   28.2090 C   0  0  0  0  0  1  0  0  0  0  0  0
  2  1  1  0  0  0  0
  3  2  2  0  0  0  0
  4  3  1  0  0  0  0
  5  4  2  0  0  0  0
  5  6  1  0  0  0  0
  6  7  2  0  0  0  0
  7  2  1  0  0  0  0
  8  5  1  0  0  0  0
  9  8  2  0  0  0  0
 10 11  2  0  0  0  0
 10  9  1  0  0  0  0
 11 12  1  0  0  0  0
 12  8  1  0  0  0  0
 12 13  1  0  0  0  0
 13 18  1  0  0  0  0
 14 13  2  0  0  0  0
 14 15  1  0  0  0  0
 15 19  1  0  0  0  0
 15 16  1  0  0  0  0
 16 17  2  0  0  0  0
 18 16  1  0  0  0  0
 18  4  1  0  0  0  0
 20 21  2  0  0  0  0
 20 19  1  0  0  0  0
 22 20  1  0  0  0  0
 23 22  1  0  0  0  0
 24 22  1  0  0  0  0
 25 24  1  0  0  0  0
 26 24  1  0  0  0  0
M  END
>  <Pose>
1

>  <Score>
-9.546

$$$$
