MODEL 1
REMARK VINA RESULT:    -8.880      0.000      0.000
REMARK INTER + INTRA:         -11.876
REMARK INTER:                 -11.476
REMARK INTRA:                  -0.400
REMARK UNBOUND:                -0.400
REMARK  5 active torsions:
REMARK  status: ('A' for Active; 'I' for Inactive)
REMARK    1  A    between atoms: N_15  and  C_19 
REMARK    2  A    between atoms: C_19  and  C_20 
REMARK       I    between atoms: C_20  and  N_22 
REMARK    3  A    between atoms: N_22  and  C_23 
REMARK    4  A    between atoms: C_23  and  C_24 
REMARK    5  A    between atoms: C_24  and  O_25 
ROOT
ATOM      1 Cl   UNK d   1      17.527   8.790  33.572  0.00  0.00    -0.084 Cl
ATOM      2  C   UNK d   1      18.977   8.067  32.871  0.00  0.00     0.036 A 
ATOM      3  C   UNK d   1      20.067   8.899  32.604  0.00  0.00     0.055 A 
ATOM      4  C   UNK d   1      21.234   8.399  32.064  0.00  0.00     0.077 A 
ATOM      5  C   UNK d   1      21.265   7.043  31.803  0.00  0.00     0.038 A 
ATOM      6  C   UNK d   1      20.231   6.201  32.047  0.00  0.00     0.019 A 
ATOM      7  C   UNK d   1      19.048   6.720  32.597  0.00  0.00     0.025 A 
ATOM      8  C   UNK d   1      22.530   6.522  31.227  0.00  0.00     0.153 A 
ATOM      9  N   UNK d   1      22.882   5.324  30.871  0.00  0.00    -0.270 NA
ATOM     10  C   UNK d   1      24.233   5.322  30.359  0.00  0.00     0.172 A 
ATOM     11  C   UNK d   1      24.734   6.742  30.446  0.00  0.00     0.171 A 
ATOM     12  N   UNK d   1      23.576   7.429  30.994  0.00  0.00    -0.160 N 
ATOM     13  C   UNK d   1      23.465   8.820  31.291  0.00  0.00     0.736 A 
ATOM     14  N   UNK d   1      24.335   9.843  31.156  0.00  0.00     0.025 NA
ATOM     15  N   UNK d   1      23.760  10.963  31.588  0.00  0.00    -0.194 N 
ATOM     16  C   UNK d   1      22.541  10.602  31.984  0.00  0.00     0.365 A 
ATOM     17  O   UNK d   1      21.675  11.385  32.465  0.00  0.00    -0.244 OA
ATOM     18  N   UNK d   1      22.326   9.269  31.809  0.00  0.00    -0.090 N 
ENDROOT
BRANCH  15  19
ATOM     19  C   UNK d   1      24.367  12.296  31.628  0.00  0.00     0.259 C 
BRANCH  19  20
ATOM     20  C   UNK d   1      23.651  13.031  30.452  0.00  0.00     0.237 C 
ATOM     21  O   UNK d   1      23.946  12.415  29.368  0.00  0.00    -0.272 OA
ATOM     22  N   UNK d   1      22.893  14.112  30.679  0.00  0.00    -0.358 N 
ATOM     23  H   UNK d   1      22.543  14.145  29.368  0.00  0.00     0.162 HD
BRANCH  22  24
ATOM     24  C   UNK d   1      22.114  15.224  30.912  0.00  0.00     0.148 C 
BRANCH  24  25
ATOM     25  C   UNK d   1      20.929  14.928  31.839  0.00  0.00     0.186 C 
BRANCH  25  26
ATOM     26  O   UNK d   1      19.878  15.780  31.599  0.00  0.00    -0.394 OA
ATOM     27  C   UNK d   1      18.860  15.262  30.852  0.00  0.00     0.201 C 
ENDBRANCH  25  26
ENDBRANCH  24  25
ENDBRANCH  22  24
ENDBRANCH  19  20
ENDBRANCH  15  19
TORSDOF 5
ENDMDL
