/Users/jonathanwahrer/Desktop/Msc/3_Semester/Drug_Design_Praktikum/waehrer_HTS_screening/HTS_experiment/out/docking_results/vina_output/3elj/1802_docked.pdbqt
 OpenBabel03192218373D

 27 30  0  0  0  0  0  0  0  0999 V2000
   17.5270    8.7900   33.5720 Cl  0  0  0  0  0  0  0  0  0  0  0  0
   18.9770    8.0670   32.8710 C   0  0  0  0  0  0  0  0  0  0  0  0
   20.0670    8.8990   32.6040 C   0  0  0  0  0  3  0  0  0  0  0  0
   21.2340    8.3990   32.0640 C   0  0  0  0  0  0  0  0  0  0  0  0
   21.2650    7.0430   31.8030 C   0  0  0  0  0  0  0  0  0  0  0  0
   20.2310    6.2010   32.0470 C   0  0  0  0  0  3  0  0  0  0  0  0
   19.0480    6.7200   32.5970 C   0  0  0  0  0  3  0  0  0  0  0  0
   22.5300    6.5220   31.2270 C   0  0  0  0  0  0  0  0  0  0  0  0
   22.8820    5.3240   30.8710 N   0  0  0  0  0  0  0  0  0  0  0  0
   24.2330    5.3220   30.3590 C   0  0  0  0  0  3  0  0  0  0  0  0
   24.7340    6.7420   30.4460 C   0  0  0  0  0  3  0  0  0  0  0  0
   23.5760    7.4290   30.9940 N   0  0  0  0  0  0  0  0  0  0  0  0
   23.4650    8.8200   31.2910 C   0  0  0  0  0  0  0  0  0  0  0  0
   24.3350    9.8430   31.1560 N   0  0  0  0  0  0  0  0  0  0  0  0
   23.7600   10.9630   31.5880 N   0  0  0  0  0  0  0  0  0  0  0  0
   22.5410   10.6020   31.9840 C   0  0  0  0  0  0  0  0  0  0  0  0
   21.6750   11.3850   32.4650 O   0  0  0  0  0  0  0  0  0  0  0  0
   22.3260    9.2690   31.8090 N   0  0  0  0  0  0  0  0  0  0  0  0
   24.3670   12.2960   31.6280 C   0  0  0  0  0  2  0  0  0  0  0  0
   23.6510   13.0310   30.4520 C   0  0  0  0  0  0  0  0  0  0  0  0
   23.9460   12.4150   29.3680 O   0  0  0  0  0  0  0  0  0  0  0  0
   22.8930   14.1120   30.6790 N   0  0  0  0  0  0  0  0  0  0  0  0
   22.5430   14.1450   29.3680 H   0  0  0  0  0  0  0  0  0  0  0  0
   22.1140   15.2240   30.9120 C   0  0  0  0  0  2  0  0  0  0  0  0
   20.9290   14.9280   31.8390 C   0  0  0  0  0  2  0  0  0  0  0  0
   19.8780   15.7800   31.5990 O   0  0  0  0  0  0  0  0  0  0  0  0
   18.8600   15.2620   30.8520 C   0  0  0  0  0  1  0  0  0  0  0  0
  2  1  1  0  0  0  0
  3  2  1  0  0  0  0
  4  3  2  0  0  0  0
  5  6  2  0  0  0  0
  5  4  1  0  0  0  0
  6  7  1  0  0  0  0
  7  2  2  0  0  0  0
  8  5  1  0  0  0  0
  9  8  2  0  0  0  0
 10 11  2  0  0  0  0
 10  9  1  0  0  0  0
 11 12  1  0  0  0  0
 12  8  1  0  0  0  0
 12 13  1  0  0  0  0
 13 18  1  0  0  0  0
 14 13  2  0  0  0  0
 14 15  1  0  0  0  0
 15 19  1  0  0  0  0
 15 16  1  0  0  0  0
 16 17  2  0  0  0  0
 18 16  1  0  0  0  0
 18  4  1  0  0  0  0
 20 22  1  0  0  0  0
 20 19  1  0  0  0  0
 21 20  2  0  0  0  0
 22 24  1  0  0  0  0
 23 22  1  0  0  0  0
 24 25  1  0  0  0  0
 26 25  1  0  0  0  0
 27 26  1  0  0  0  0
M  END
>  <Pose>
1

>  <Score>
-8.880

$$$$
