MODEL 1
REMARK VINA RESULT:    -9.878      0.000      0.000
REMARK INTER + INTRA:         -11.315
REMARK INTER:                 -11.032
REMARK INTRA:                  -0.282
REMARK UNBOUND:                -0.282
REMARK  2 active torsions:
REMARK  status: ('A' for Active; 'I' for Inactive)
REMARK    1  A    between atoms: N_15  and  C_19 
REMARK    2  A    between atoms: C_19  and  C_20 
REMARK       I    between atoms: C_20  and  N_22 
ROOT
ATOM      1 Cl   UNK d   1      17.388   8.689  33.580  0.00  0.00    -0.084 Cl
ATOM      2  C   UNK d   1      18.890   8.108  32.895  0.00  0.00     0.036 A 
ATOM      3  C   UNK d   1      19.978   8.931  32.655  0.00  0.00     0.055 A 
ATOM      4  C   UNK d   1      21.153   8.462  32.117  0.00  0.00     0.077 A 
ATOM      5  C   UNK d   1      21.204   7.121  31.823  0.00  0.00     0.038 A 
ATOM      6  C   UNK d   1      20.156   6.258  32.039  0.00  0.00     0.019 A 
ATOM      7  C   UNK d   1      18.976   6.766  32.587  0.00  0.00     0.025 A 
ATOM      8  C   UNK d   1      22.449   6.581  31.243  0.00  0.00     0.153 A 
ATOM      9  N   UNK d   1      22.773   5.395  30.877  0.00  0.00    -0.270 NA
ATOM     10  C   UNK d   1      24.114   5.335  30.361  0.00  0.00     0.172 A 
ATOM     11  C   UNK d   1      24.614   6.741  30.461  0.00  0.00     0.171 A 
ATOM     12  N   UNK d   1      23.516   7.481  31.026  0.00  0.00    -0.160 N 
ATOM     13  C   UNK d   1      23.406   8.881  31.355  0.00  0.00     0.736 A 
ATOM     14  N   UNK d   1      24.270   9.908  31.240  0.00  0.00     0.025 NA
ATOM     15  N   UNK d   1      23.696  11.014  31.683  0.00  0.00    -0.194 N 
ATOM     16  C   UNK d   1      22.464  10.649  32.073  0.00  0.00     0.365 A 
ATOM     17  O   UNK d   1      21.629  11.467  32.554  0.00  0.00    -0.244 OA
ATOM     18  N   UNK d   1      22.254   9.329  31.880  0.00  0.00    -0.090 N 
ENDROOT
BRANCH  15  19
ATOM     19  C   UNK d   1      24.276  12.364  31.742  0.00  0.00     0.259 C 
BRANCH  19  20
ATOM     20  C   UNK d   1      23.481  13.246  30.847  0.00  0.00     0.239 C 
ATOM     21  O   UNK d   1      23.483  12.957  29.624  0.00  0.00    -0.271 OA
ATOM     22  N   UNK d   1      22.755  14.363  31.340  0.00  0.00    -0.351 N 
ATOM     23  C   UNK d   1      21.965  15.259  30.518  0.00  0.00     0.126 C 
ATOM     24  C   UNK d   1      22.668  14.803  32.713  0.00  0.00     0.126 C 
ATOM     25  C   UNK d   1      21.540  16.393  31.412  0.00  0.00     0.021 C 
ATOM     26  C   UNK d   1      22.569  16.320  32.522  0.00  0.00     0.021 C 
ENDBRANCH  19  20
ENDBRANCH  15  19
TORSDOF 2
ENDMDL
