/Users/jonathanwahrer/Desktop/Msc/3_Semester/Drug_Design_Praktikum/waehrer_HTS_screening/HTS_experiment/out/docking_results/vina_output/3elj/1804_docked.pdbqt
 OpenBabel03192218373D

 26 30  0  0  0  0  0  0  0  0999 V2000
   17.3880    8.6890   33.5800 Cl  0  0  0  0  0  0  0  0  0  0  0  0
   18.8900    8.1080   32.8950 C   0  0  0  0  0  0  0  0  0  0  0  0
   19.9780    8.9310   32.6550 C   0  0  0  0  0  3  0  0  0  0  0  0
   21.1530    8.4620   32.1170 C   0  0  0  0  0  0  0  0  0  0  0  0
   21.2040    7.1210   31.8230 C   0  0  0  0  0  0  0  0  0  0  0  0
   20.1560    6.2580   32.0390 C   0  0  0  0  0  3  0  0  0  0  0  0
   18.9760    6.7660   32.5870 C   0  0  0  0  0  3  0  0  0  0  0  0
   22.4490    6.5810   31.2430 C   0  0  0  0  0  0  0  0  0  0  0  0
   22.7730    5.3950   30.8770 N   0  0  0  0  0  0  0  0  0  0  0  0
   24.1140    5.3350   30.3610 C   0  0  0  0  0  3  0  0  0  0  0  0
   24.6140    6.7410   30.4610 C   0  0  0  0  0  3  0  0  0  0  0  0
   23.5160    7.4810   31.0260 N   0  0  0  0  0  0  0  0  0  0  0  0
   23.4060    8.8810   31.3550 C   0  0  0  0  0  0  0  0  0  0  0  0
   24.2700    9.9080   31.2400 N   0  0  0  0  0  0  0  0  0  0  0  0
   23.6960   11.0140   31.6830 N   0  0  0  0  0  0  0  0  0  0  0  0
   22.4640   10.6490   32.0730 C   0  0  0  0  0  0  0  0  0  0  0  0
   21.6290   11.4670   32.5540 O   0  0  0  0  0  0  0  0  0  0  0  0
   22.2540    9.3290   31.8800 N   0  0  0  0  0  0  0  0  0  0  0  0
   24.2760   12.3640   31.7420 C   0  0  0  0  0  2  0  0  0  0  0  0
   23.4810   13.2460   30.8470 C   0  0  0  0  0  0  0  0  0  0  0  0
   23.4830   12.9570   29.6240 O   0  0  0  0  0  0  0  0  0  0  0  0
   22.7550   14.3630   31.3400 N   0  0  0  0  0  0  0  0  0  0  0  0
   21.9650   15.2590   30.5180 C   0  0  0  0  0  2  0  0  0  0  0  0
   22.6680   14.8030   32.7130 C   0  0  0  0  0  2  0  0  0  0  0  0
   21.5400   16.3930   31.4120 C   0  0  0  0  0  2  0  0  0  0  0  0
   22.5690   16.3200   32.5220 C   0  0  0  0  0  2  0  0  0  0  0  0
  2  1  1  0  0  0  0
  3  2  1  0  0  0  0
  4  3  2  0  0  0  0
  5  6  2  0  0  0  0
  5  4  1  0  0  0  0
  6  7  1  0  0  0  0
  7  2  2  0  0  0  0
  8  5  1  0  0  0  0
  9  8  2  0  0  0  0
 10 11  2  0  0  0  0
 10  9  1  0  0  0  0
 11 12  1  0  0  0  0
 12  8  1  0  0  0  0
 12 13  1  0  0  0  0
 13 18  1  0  0  0  0
 14 13  2  0  0  0  0
 14 15  1  0  0  0  0
 15 19  1  0  0  0  0
 15 16  1  0  0  0  0
 16 17  2  0  0  0  0
 18 16  1  0  0  0  0
 18  4  1  0  0  0  0
 20 22  1  0  0  0  0
 20 19  1  0  0  0  0
 21 20  2  0  0  0  0
 22 24  1  0  0  0  0
 23 22  1  0  0  0  0
 23 25  1  0  0  0  0
 25 26  1  0  0  0  0
 26 24  1  0  0  0  0
M  END
>  <Pose>
1

>  <Score>
-9.878

$$$$
