MODEL 1
REMARK VINA RESULT:    -9.681      0.000      0.000
REMARK INTER + INTRA:         -11.477
REMARK INTER:                 -11.378
REMARK INTRA:                  -0.099
REMARK UNBOUND:                -0.099
REMARK  3 active torsions:
REMARK  status: ('A' for Active; 'I' for Inactive)
REMARK    1  A    between atoms: C_10  and  N_11 
REMARK    2  A    between atoms: N_14  and  C_17 
REMARK    3  A    between atoms: C_22  and  C_23 
REMARK       I    between atoms: C_23  and  N_25 
ROOT
ATOM      1  N   UNK d   1      23.242  11.032  31.081  0.00  0.00    -0.384 N 
ATOM      2  C   UNK d   1      24.256  10.331  31.841  0.00  0.00     0.142 C 
ATOM      3  C   UNK d   1      23.928   8.831  31.761  0.00  0.00     0.144 C 
ATOM      4  N   UNK d   1      22.672   8.591  31.137  0.00  0.00    -0.362 N 
ATOM      5  C   UNK d   1      22.594   9.039  29.747  0.00  0.00     0.144 C 
ATOM      6  C   UNK d   1      22.910  10.515  29.768  0.00  0.00     0.142 C 
ENDROOT
BRANCH   1   7
ATOM      7  C   UNK d   1      22.590  12.206  31.546  0.00  0.00     0.134 C 
ATOM      8  C   UNK d   1      22.577  13.383  30.966  0.00  0.00     0.124 A 
ATOM      9  N   UNK d   1      23.244  13.646  29.748  0.00  0.00    -0.340 N 
ATOM     10  N   UNK d   1      21.856  14.472  31.586  0.00  0.00    -0.308 N 
ATOM     11  C   UNK d   1      23.204  14.958  29.143  0.00  0.00     0.049 A 
ATOM     12  H   UNK d   1      23.772  12.894  29.271  0.00  0.00     0.167 HD
ATOM     13  C   UNK d   1      22.526  16.005  29.714  0.00  0.00     0.060 A 
ATOM     14  C   UNK d   1      23.865  15.170  27.961  0.00  0.00     0.032 A 
ATOM     15  C   UNK d   1      22.509  17.246  29.110  0.00  0.00     0.043 A 
ATOM     16  C   UNK d   1      21.835  15.747  30.970  0.00  0.00     0.259 A 
ATOM     17  C   UNK d   1      23.166  17.454  27.936  0.00  0.00     0.035 A 
ATOM     18 Cl   UNK d   1      23.180  19.015  27.119  0.00  0.00    -0.084 Cl
ATOM     19  C   UNK d   1      23.850  16.412  27.352  0.00  0.00     0.026 A 
ATOM     20  O   UNK d   1      21.204  16.725  31.499  0.00  0.00    -0.267 OA
ATOM     21  H   UNK d   1      21.354  14.315  32.482  0.00  0.00     0.170 HD
ENDBRANCH   1   7
BRANCH   4  22
ATOM     22  C   UNK d   1      21.501   8.004  31.677  0.00  0.00     0.141 A 
ATOM     23  N   UNK d   1      20.560   8.840  32.253  0.00  0.00    -0.242 NA
ATOM     24  C   UNK d   1      19.427   8.413  32.807  0.00  0.00     0.119 A 
ATOM     25  C   UNK d   1      19.175   7.069  32.807  0.00  0.00     0.020 A 
ATOM     26  C   UNK d   1      20.081   6.214  32.246  0.00  0.00     0.022 A 
ATOM     27  C   UNK d   1      21.281   6.659  31.658  0.00  0.00     0.077 A 
BRANCH  27  28
ATOM     28  C   UNK d   1      22.193   5.738  31.052  0.00  0.00     0.253 C 
ATOM     29  O   UNK d   1      22.652   5.824  29.915  0.00  0.00    -0.268 OA
ATOM     30  N   UNK d   1      22.623   4.613  31.809  0.00  0.00    -0.366 N 
ATOM     31  H   UNK d   1      23.241   4.735  32.642  0.00  0.00     0.159 HD
ATOM     32  H   UNK d   1      22.355   3.630  31.585  0.00  0.00     0.159 HD
ENDBRANCH  27  28
ENDBRANCH   4  22
TORSDOF 3
ENDMDL
