/Users/jonathanwahrer/Desktop/Msc/3_Semester/Drug_Design_Praktikum/waehrer_HTS_screening/HTS_experiment/out/docking_results/vina_output/3elj/1810_docked.pdbqt
 OpenBabel03192218383D

 32 35  0  0  1  0  0  0  0  0999 V2000
   22.5750   13.8650   31.0130 N   0  0  0  0  0  0  0  0  0  0  0  0
   23.6420   13.6160   31.9500 C   0  0  0  0  0  2  0  0  0  0  0  0
   24.3740   12.3750   31.4960 C   0  0  0  0  0  2  0  0  0  0  0  0
   23.9540   12.0330   30.1620 N   0  0  0  0  0  0  0  0  0  0  0  0
   23.7610   13.0510   29.1360 C   0  0  0  0  0  2  0  0  0  0  0  0
   23.1750   14.3130   29.7720 C   0  0  0  0  0  2  0  0  0  0  0  0
   23.7090   10.6890   29.8290 C   0  0  0  0  0  0  0  0  0  0  0  0
   23.3760   10.3990   28.6280 O   0  0  0  0  0  0  0  0  0  0  0  0
   23.8320    9.6200   30.8570 C   0  0  1  0  0  3  0  0  0  0  0  0
   22.8550    8.4990   30.6490 C   0  0  0  0  0  2  0  0  0  0  0  0
   23.6330    7.4030   30.0780 N   0  0  0  0  0  0  0  0  0  0  0  0
   24.9680    7.8240   29.8700 C   0  0  0  0  0  0  0  0  0  0  0  0
   25.7600    7.2980   29.0520 O   0  0  0  0  0  0  0  0  0  0  0  0
   25.1810    8.9560   30.7970 C   0  0  0  0  0  2  0  0  0  0  0  0
   23.1040    6.0940   29.7720 C   0  0  0  0  0  2  0  0  0  0  0  0
   23.6210    5.0590   30.6980 C   0  0  0  0  0  0  0  0  0  0  0  0
   22.8630    4.6990   31.8020 C   0  0  0  0  0  0  0  0  0  0  0  0
   23.2810    3.7420   32.7110 C   0  0  0  0  0  3  0  0  0  0  0  0
   21.3280    5.4900   32.0380 Cl  0  0  0  0  0  0  0  0  0  0  0  0
   24.5040    3.1460   32.4800 C   0  0  0  0  0  3  0  0  0  0  0  0
   25.2860    3.4810   31.3890 C   0  0  0  0  0  3  0  0  0  0  0  0
   24.8390    4.4480   30.4900 C   0  0  0  0  0  3  0  0  0  0  0  0
   21.4480   15.0040   31.6350 S   0  0  0  0  0  0  0  0  0  0  0  0
   21.2630   16.1670   30.7030 O   0  0  0  0  0  0  0  0  0  0  0  0
   22.0600   15.5770   32.8960 O   0  0  0  0  0  0  0  0  0  0  0  0
   19.9340   14.2520   32.0400 C   0  0  0  0  0  0  0  0  0  0  0  0
   19.6460   13.2000   32.8800 C   0  0  0  0  0  0  0  0  0  0  0  0
   18.2940   12.9950   32.8370 N   0  0  0  0  0  0  0  0  0  0  0  0
   20.6370   12.4520   33.6780 C   0  0  0  0  0  1  0  0  0  0  0  0
   17.7960   13.8570   32.0330 O   0  0  0  0  0  0  0  0  0  0  0  0
   18.7140   14.6400   31.5190 C   0  0  0  0  0  0  0  0  0  0  0  0
   18.4180   15.7260   30.5590 C   0  0  0  0  0  1  0  0  0  0  0  0
  1 23  1  0  0  0  0
  1  2  1  0  0  0  0
  3  2  1  0  0  0  0
  4  3  1  0  0  0  0
  5  6  1  0  0  0  0
  5  4  1  0  0  0  0
  6  1  1  0  0  0  0
  7  4  1  0  0  0  0
  8  7  2  0  0  0  0
  9  7  1  6  0  0  0
 10  9  1  0  0  0  0
 11 10  1  0  0  0  0
 12 11  1  0  0  0  0
 12 14  1  0  0  0  0
 13 12  2  0  0  0  0
 14  9  1  0  0  0  0
 15 11  1  0  0  0  0
 15 16  1  0  0  0  0
 16 17  1  0  0  0  0
 17 19  1  0  0  0  0
 17 18  2  0  0  0  0
 20 18  1  0  0  0  0
 21 20  2  0  0  0  0
 22 16  2  0  0  0  0
 22 21  1  0  0  0  0
 23 26  1  0  0  0  0
 23 25  2  0  0  0  0
 24 23  2  0  0  0  0
 26 27  1  0  0  0  0
 27 29  1  0  0  0  0
 28 27  2  0  0  0  0
 30 28  1  0  0  0  0
 31 30  1  0  0  0  0
 31 26  2  0  0  0  0
 32 31  1  0  0  0  0
M  END
>  <Pose>
1

>  <Score>
-8.955

$$$$
