MODEL 1
REMARK VINA RESULT:    -8.955      0.000      0.000
REMARK INTER + INTRA:         -12.053
REMARK INTER:                 -11.572
REMARK INTRA:                  -0.481
REMARK UNBOUND:                -0.481
REMARK  5 active torsions:
REMARK  status: ('A' for Active; 'I' for Inactive)
REMARK    1  A    between atoms: S_1  and  N_4 
REMARK    2  A    between atoms: S_1  and  C_26 
REMARK       I    between atoms: N_7  and  C_10 
REMARK    3  A    between atoms: C_10  and  C_12 
REMARK    4  A    between atoms: N_14  and  C_18 
REMARK    5  A    between atoms: C_18  and  C_19 
ROOT
ATOM      1  N   UNK d   1      22.575  13.865  31.013  0.00  0.00    -0.203 NA
ATOM      2  C   UNK d   1      23.642  13.616  31.950  0.00  0.00     0.127 C 
ATOM      3  C   UNK d   1      24.374  12.375  31.496  0.00  0.00     0.141 C 
ATOM      4  N   UNK d   1      23.954  12.033  30.162  0.00  0.00    -0.349 N 
ATOM      5  C   UNK d   1      23.761  13.051  29.136  0.00  0.00     0.141 C 
ATOM      6  C   UNK d   1      23.175  14.313  29.772  0.00  0.00     0.127 C 
ATOM      7  C   UNK d   1      23.709  10.689  29.829  0.00  0.00     0.226 C 
ATOM      8  O   UNK d   1      23.376  10.399  28.628  0.00  0.00    -0.273 OA
ENDROOT
BRANCH   7   9
ATOM      9  C   UNK d   1      23.832   9.620  30.857  0.00  0.00     0.105 C 
ATOM     10  C   UNK d   1      22.855   8.499  30.649  0.00  0.00     0.140 C 
ATOM     11  N   UNK d   1      23.633   7.403  30.078  0.00  0.00    -0.347 N 
ATOM     12  C   UNK d   1      24.968   7.824  29.870  0.00  0.00     0.221 C 
ATOM     13  O   UNK d   1      25.760   7.298  29.052  0.00  0.00    -0.273 OA
ATOM     14  C   UNK d   1      25.181   8.956  30.797  0.00  0.00     0.118 C 
BRANCH  11  15
ATOM     15  C   UNK d   1      23.104   6.094  29.772  0.00  0.00     0.166 C 
BRANCH  15  16
ATOM     16  C   UNK d   1      23.621   5.059  30.698  0.00  0.00    -0.018 A 
ATOM     17  C   UNK d   1      22.863   4.699  31.802  0.00  0.00     0.042 A 
ATOM     18  C   UNK d   1      23.281   3.742  32.711  0.00  0.00     0.024 A 
ATOM     19 Cl   UNK d   1      21.328   5.490  32.038  0.00  0.00    -0.084 Cl
ATOM     20  C   UNK d   1      24.504   3.146  32.480  0.00  0.00     0.002 A 
ATOM     21  C   UNK d   1      25.286   3.481  31.389  0.00  0.00     0.001 A 
ATOM     22  C   UNK d   1      24.839   4.448  30.490  0.00  0.00     0.010 A 
ENDBRANCH  15  16
ENDBRANCH  11  15
ENDBRANCH   7   9
BRANCH   1  23
ATOM     23  S   UNK d   1      21.448  15.004  31.635  0.00  0.00     0.248 S 
ATOM     24  O   UNK d   1      21.263  16.167  30.703  0.00  0.00    -0.206 OA
ATOM     25  O   UNK d   1      22.060  15.577  32.896  0.00  0.00    -0.206 OA
BRANCH  23  26
ATOM     26  C   UNK d   1      19.934  14.252  32.040  0.00  0.00     0.132 A 
ATOM     27  C   UNK d   1      19.646  13.200  32.880  0.00  0.00     0.083 A 
ATOM     28  N   UNK d   1      18.294  12.995  32.837  0.00  0.00    -0.132 NA
ATOM     29  C   UNK d   1      20.637  12.452  33.678  0.00  0.00     0.074 C 
ATOM     30  O   UNK d   1      17.796  13.857  32.033  0.00  0.00    -0.216 OA
ATOM     31  C   UNK d   1      18.714  14.640  31.519  0.00  0.00     0.100 A 
ATOM     32  C   UNK d   1      18.418  15.726  30.559  0.00  0.00     0.081 C 
ENDBRANCH  23  26
ENDBRANCH   1  23
TORSDOF 5
ENDMDL
