MODEL 1
REMARK VINA RESULT:    -9.551      0.000      0.000
REMARK INTER + INTRA:         -11.864
REMARK INTER:                 -11.784
REMARK INTRA:                  -0.080
REMARK UNBOUND:                -0.080
REMARK  4 active torsions:
REMARK  status: ('A' for Active; 'I' for Inactive)
REMARK    1  A    between atoms: C_7  and  O_8 
REMARK    2  A    between atoms: C_13  and  C_16 
REMARK    3  A    between atoms: C_16  and  C_17 
REMARK       I    between atoms: C_17  and  N_19 
REMARK       I    between atoms: N_22  and  C_25 
REMARK    4  A    between atoms: C_25  and  C_27 
ROOT
ATOM      1  C   UNK d   1      22.506   9.062  31.155  0.00  0.00     0.224 C 
ATOM      2  O   UNK d   1      21.788   9.227  32.201  0.00  0.00    -0.273 OA
ATOM      3  N   UNK d   1      23.513   9.981  30.917  0.00  0.00    -0.349 N 
ATOM      4  C   UNK d   1      23.782  11.093  31.775  0.00  0.00     0.145 C 
ATOM      5  C   UNK d   1      23.619  12.372  30.951  0.00  0.00     0.145 C 
ATOM      6  N   UNK d   1      24.461  12.308  29.804  0.00  0.00    -0.355 N 
ATOM      7  C   UNK d   1      25.252  11.070  29.634  0.00  0.00     0.145 C 
ATOM      8  C   UNK d   1      24.362   9.853  29.755  0.00  0.00     0.145 C 
ATOM      9  C   UNK d   1      24.595  13.314  28.824  0.00  0.00     0.204 C 
ATOM     10  O   UNK d   1      25.457  13.002  27.863  0.00  0.00    -0.170 OA
ENDROOT
BRANCH   1  11
ATOM     11  C   UNK d   1      22.191   7.894  30.288  0.00  0.00     0.148 C 
BRANCH  11  12
ATOM     12  C   UNK d   1      22.635   6.625  30.909  0.00  0.00     0.033 A 
ATOM     13  C   UNK d   1      21.754   5.890  31.700  0.00  0.00     0.295 A 
ATOM     14  O   UNK d   1      22.092   4.761  32.273  0.00  0.00    -0.274 OA
ATOM     15  O   UNK d   1      20.582   6.375  31.843  0.00  0.00    -0.259 OA
ATOM     16  C   UNK d   1      23.284   4.231  32.151  0.00  0.00     0.093 A 
ATOM     17  C   UNK d   1      24.232   4.876  31.390  0.00  0.00     0.006 A 
ATOM     18  C   UNK d   1      23.616   3.022  32.777  0.00  0.00     0.076 A 
ATOM     19  C   UNK d   1      25.477   4.307  31.271  0.00  0.00     0.041 A 
ATOM     20  C   UNK d   1      23.892   6.081  30.769  0.00  0.00    -0.036 A 
ATOM     21  C   UNK d   1      25.803   3.107  31.895  0.00  0.00     0.068 A 
ATOM     22 Cl   UNK d   1      27.388   2.383  31.747  0.00  0.00    -0.081 Cl
ATOM     23  C   UNK d   1      24.864   2.453  32.658  0.00  0.00     0.092 A 
ATOM     24  C   UNK d   1      24.902   6.756  29.961  0.00  0.00     0.050 C 
BRANCH  23  25
ATOM     25  O   UNK d   1      25.188   1.239  33.291  0.00  0.00    -0.354 OA
ATOM     26  C   UNK d   1      24.954   1.029  34.662  0.00  0.00     0.210 C 
ENDBRANCH  23  25
ENDBRANCH  11  12
ENDBRANCH   1  11
BRANCH   9  27
ATOM     27  C   UNK d   1      23.976  14.597  28.680  0.00  0.00     0.095 A 
ATOM     28  C   UNK d   1      24.283  15.394  27.548  0.00  0.00     0.108 A 
ATOM     29  C   UNK d   1      23.717  16.629  27.376  0.00  0.00     0.253 A 
ATOM     30  O   UNK d   1      24.007  17.316  26.362  0.00  0.00    -0.268 OA
ATOM     31  N   UNK d   1      22.852  17.156  28.252  0.00  0.00    -0.271 N 
ATOM     32  C   UNK d   1      22.563  16.407  29.318  0.00  0.00     0.329 A 
ATOM     33  C   UNK d   1      22.266  18.462  28.054  0.00  0.00     0.164 C 
ATOM     34  O   UNK d   1      21.744  16.863  30.182  0.00  0.00    -0.246 OA
ATOM     35  N   UNK d   1      23.115  15.160  29.521  0.00  0.00    -0.304 N 
ATOM     36  H   UNK d   1      22.820  14.656  30.380  0.00  0.00     0.171 HD
ENDBRANCH   9  27
TORSDOF 4
ENDMDL
