/Users/jonathanwahrer/Desktop/Msc/3_Semester/Drug_Design_Praktikum/waehrer_HTS_screening/HTS_experiment/out/docking_results/vina_output/3elj/1822_docked.pdbqt
 OpenBabel03192218383D

 24 27  0  0  1  0  0  0  0  0999 V2000
   22.6910   20.2110   26.8490 Cl  0  0  0  0  0  0  0  0  0  0  0  0
   23.2430   18.5490   27.0240 C   0  0  0  0  0  0  0  0  0  0  0  0
   24.0540   18.0220   26.0440 C   0  0  0  0  0  0  0  0  0  0  0  0
   24.4690   16.7530   26.1870 N   0  0  0  0  0  0  0  0  0  0  0  0
   24.1230   15.9830   27.2510 C   0  0  0  0  0  0  0  0  0  0  0  0
   23.3320   16.4870   28.2140 N   0  0  0  0  0  0  0  0  0  0  0  0
   23.1360   15.5520   29.1390 N   0  0  0  0  0  0  0  0  0  0  0  0
   23.7910   14.4220   28.8030 C   0  0  0  0  0  0  0  0  0  0  0  0
   24.3950   14.7200   27.6250 N   0  0  0  0  0  0  0  0  0  0  0  0
   22.8940   17.7650   28.1010 C   0  0  0  0  0  0  0  0  0  0  0  0
   22.1460   18.2440   29.0120 O   0  0  0  0  0  0  0  0  0  0  0  0
   24.4460   18.8600   24.8610 C   0  0  0  0  0  1  0  0  0  0  0  0
   25.0860   16.3460   25.4440 H   0  0  0  0  0  0  0  0  0  0  0  0
   23.8380   13.1910   29.5190 N   0  0  0  0  0  0  0  0  0  0  0  0
   23.1370   12.8990   30.7200 C   0  0  0  0  0  0  0  0  0  0  0  0
   22.1250   13.4790   31.1920 O   0  0  0  0  0  0  0  0  0  0  0  0
   23.7960   11.7340   31.4020 C   0  0  2  0  0  3  0  0  0  0  0  0
   24.7310   11.1590   30.3990 C   0  0  1  0  0  3  0  0  0  0  0  0
   22.7320   10.7280   31.7850 C   0  0  0  0  0  2  0  0  0  0  0  0
   24.3870    9.7470   29.9560 C   0  0  0  0  0  2  0  0  0  0  0  0
   24.5720   12.0170   29.2100 C   0  0  0  0  0  0  0  0  0  0  0  0
   22.9330    9.7590   29.5960 C   0  0  0  0  0  3  0  0  0  0  0  0
   22.1260   10.2510   30.5190 C   0  0  0  0  0  3  0  0  0  0  0  0
   25.0270   11.7530   28.0490 O   0  0  0  0  0  0  0  0  0  0  0  0
  1  2  1  0  0  0  0
  2 10  1  0  0  0  0
  3  4  1  0  0  0  0
  3  2  2  0  0  0  0
  4  5  1  0  0  0  0
  5  9  2  0  0  0  0
  5  6  1  0  0  0  0
  6  7  1  0  0  0  0
  8  7  2  0  0  0  0
  8 14  1  0  0  0  0
  9  8  1  0  0  0  0
 10  6  1  0  0  0  0
 10 11  2  0  0  0  0
 12  3  1  0  0  0  0
 13  4  1  0  0  0  0
 14 15  1  0  0  0  0
 15 16  2  0  0  0  0
 15 17  1  0  0  0  0
 17 19  1  6  0  0  0
 18 20  1  6  0  0  0
 18 17  1  0  0  0  0
 21 14  1  0  0  0  0
 21 18  1  0  0  0  0
 22 20  1  0  0  0  0
 22 23  2  0  0  0  0
 23 19  1  0  0  0  0
 24 21  2  0  0  0  0
M  END
>  <Pose>
1

>  <Score>
-8.895

$$$$
