MODEL 1
REMARK VINA RESULT:    -8.895      0.000      0.000
REMARK INTER + INTRA:          -9.431
REMARK INTER:                  -9.415
REMARK INTRA:                  -0.016
REMARK UNBOUND:                -0.016
REMARK  1 active torsions:
REMARK  status: ('A' for Active; 'I' for Inactive)
REMARK    1  A    between atoms: C_8  and  N_10 
ROOT
ATOM      1 Cl   UNK d   1      22.691  20.211  26.849  0.00  0.00    -0.076 Cl
ATOM      2  C   UNK d   1      23.243  18.549  27.024  0.00  0.00     0.127 A 
ATOM      3  C   UNK d   1      24.054  18.022  26.044  0.00  0.00     0.050 A 
ATOM      4  N   UNK d   1      24.469  16.753  26.187  0.00  0.00    -0.190 N 
ATOM      5  C   UNK d   1      24.123  15.983  27.251  0.00  0.00     0.747 A 
ATOM      6  N   UNK d   1      23.332  16.487  28.214  0.00  0.00    -0.005 N 
ATOM      7  N   UNK d   1      23.136  15.552  29.139  0.00  0.00     0.046 NA
ATOM      8  C   UNK d   1      23.791  14.422  28.803  0.00  0.00     0.772 A 
ATOM      9  N   UNK d   1      24.395  14.720  27.625  0.00  0.00     0.133 NA
ATOM     10  C   UNK d   1      22.894  17.765  28.101  0.00  0.00     0.308 A 
ATOM     11  O   UNK d   1      22.146  18.244  29.012  0.00  0.00    -0.264 OA
ATOM     12  C   UNK d   1      24.446  18.860  24.861  0.00  0.00     0.071 C 
ATOM     13  H   UNK d   1      25.086  16.346  25.444  0.00  0.00     0.184 HD
ENDROOT
BRANCH   8  14
ATOM     14  N   UNK d   1      23.838  13.191  29.519  0.00  0.00    -0.076 N 
ATOM     15  C   UNK d   1      23.137  12.899  30.720  0.00  0.00     0.251 C 
ATOM     16  O   UNK d   1      22.125  13.479  31.192  0.00  0.00    -0.272 OA
ATOM     17  C   UNK d   1      23.796  11.734  31.402  0.00  0.00     0.096 C 
ATOM     18  C   UNK d   1      24.731  11.159  30.399  0.00  0.00     0.096 C 
ATOM     19  C   UNK d   1      22.732  10.728  31.785  0.00  0.00     0.042 C 
ATOM     20  C   UNK d   1      24.387   9.747  29.956  0.00  0.00     0.042 C 
ATOM     21  C   UNK d   1      24.572  12.017  29.210  0.00  0.00     0.251 C 
ATOM     22  C   UNK d   1      22.933   9.759  29.596  0.00  0.00    -0.030 C 
ATOM     23  C   UNK d   1      22.126  10.251  30.519  0.00  0.00    -0.030 C 
ATOM     24  O   UNK d   1      25.027  11.753  28.049  0.00  0.00    -0.272 OA
ENDBRANCH   8  14
TORSDOF 1
ENDMDL
