MODEL 1
REMARK VINA RESULT:    -9.197      0.000      0.000
REMARK INTER + INTRA:         -13.932
REMARK INTER:                 -12.960
REMARK INTRA:                  -0.971
REMARK UNBOUND:                -0.971
REMARK  9 active torsions:
REMARK  status: ('A' for Active; 'I' for Inactive)
REMARK    1  A    between atoms: C_3  and  C_9 
REMARK    2  A    between atoms: N_10  and  N_11 
REMARK    3  A    between atoms: N_11  and  C_12 
REMARK    4  A    between atoms: N_13  and  C_22 
REMARK    5  A    between atoms: C_18  and  N_21 
REMARK    6  A    between atoms: C_24  and  C_29 
REMARK    7  A    between atoms: C_25  and  O_28 
REMARK    8  A    between atoms: C_26  and  O_27 
REMARK    9  A    between atoms: C_29  and  O_30 
ROOT
ATOM      1  C   UNK d   1      24.090  11.238  30.527  0.00  0.00     0.727 A 
ATOM      2  N   UNK d   1      23.728  12.527  30.426  0.00  0.00    -0.131 N 
ATOM      3  C   UNK d   1      24.403  13.020  29.373  0.00  0.00     0.182 A 
ATOM      4  N   UNK d   1      24.445  14.245  28.796  0.00  0.00    -0.221 NA
ATOM      5  C   UNK d   1      25.217  14.499  27.722  0.00  0.00     0.237 A 
ATOM      6  N   UNK d   1      25.979  13.519  27.189  0.00  0.00    -0.222 NA
ATOM      7  C   UNK d   1      25.992  12.276  27.706  0.00  0.00     0.156 A 
ATOM      8  C   UNK d   1      25.191  12.041  28.806  0.00  0.00     0.168 A 
ATOM      9  N   UNK d   1      24.976  10.931  29.551  0.00  0.00    -0.055 NA
ENDROOT
BRANCH   1  10
ATOM     10  N   UNK d   1      23.619  10.323  31.506  0.00  0.00    -0.107 N 
ATOM     11  H   UNK d   1      24.258   9.942  32.244  0.00  0.00     0.208 HD
BRANCH  10  12
ATOM     12  N   UNK d   1      22.295   9.882  31.539  0.00  0.00    -0.172 NA
ATOM     13  C   UNK d   1      21.881   9.260  32.581  0.00  0.00     0.154 C 
BRANCH  13  14
ATOM     14  C   UNK d   1      20.508   8.762  32.701  0.00  0.00     0.026 A 
ATOM     15  C   UNK d   1      19.496   9.560  33.189  0.00  0.00     0.047 A 
ATOM     16 Cl   UNK d   1      19.893  11.194  33.666  0.00  0.00    -0.083 Cl
ATOM     17  C   UNK d   1      18.195   9.064  33.293  0.00  0.00     0.025 A 
ATOM     18  C   UNK d   1      17.877   7.776  32.919  0.00  0.00     0.003 A 
ATOM     19  C   UNK d   1      18.896   6.984  32.431  0.00  0.00     0.025 A 
ATOM     20  C   UNK d   1      20.190   7.474  32.327  0.00  0.00     0.047 A 
ATOM     21 Cl   UNK d   1      21.479   6.450  31.702  0.00  0.00    -0.083 Cl
ENDBRANCH  13  14
ENDBRANCH  10  12
ENDBRANCH   1  10
BRANCH   2  22
ATOM     22  C   UNK d   1      22.823  13.300  31.225  0.00  0.00     0.279 C 
ATOM     23  O   UNK d   1      23.468  14.296  31.955  0.00  0.00    -0.353 OA
ATOM     24  C   UNK d   1      22.389  15.084  32.356  0.00  0.00     0.179 C 
ATOM     25  C   UNK d   1      21.736  15.381  31.015  0.00  0.00     0.182 C 
ATOM     26  C   UNK d   1      21.800  14.016  30.361  0.00  0.00     0.199 C 
BRANCH  24  27
ATOM     27  C   UNK d   1      22.820  16.342  33.061  0.00  0.00     0.198 C 
BRANCH  27  28
ATOM     28  O   UNK d   1      22.567  17.480  32.335  0.00  0.00    -0.398 OA
ATOM     29  H   UNK d   1      22.564  17.309  31.368  0.00  0.00     0.209 HD
ENDBRANCH  27  28
ENDBRANCH  24  27
BRANCH  25  30
ATOM     30  O   UNK d   1      20.429  15.823  31.164  0.00  0.00    -0.390 OA
ATOM     31  H   UNK d   1      20.468  16.772  31.462  0.00  0.00     0.210 HD
ENDBRANCH  25  30
BRANCH  26  32
ATOM     32  O   UNK d   1      20.534  13.441  30.489  0.00  0.00    -0.388 OA
ATOM     33  H   UNK d   1      19.941  13.688  29.751  0.00  0.00     0.210 HD
ENDBRANCH  26  32
ENDBRANCH   2  22
BRANCH   7  34
ATOM     34  N   UNK d   1      26.800  11.271  27.126  0.00  0.00    -0.382 N 
ATOM     35  H   UNK d   1      26.395  10.410  26.720  0.00  0.00     0.157 HD
ATOM     36  H   UNK d   1      27.828  11.400  27.109  0.00  0.00     0.157 HD
ENDBRANCH   7  34
TORSDOF 9
ENDMDL
