MODEL 1
REMARK VINA RESULT:    -7.656      0.000      0.000
REMARK INTER + INTRA:         -11.308
REMARK INTER:                  -9.894
REMARK INTRA:                  -1.414
REMARK UNBOUND:                -1.414
REMARK  5 active torsions:
REMARK  status: ('A' for Active; 'I' for Inactive)
REMARK    1  A    between atoms: C_5  and  N_8 
REMARK       I    between atoms: N_8  and  C_9 
REMARK    2  A    between atoms: C_9  and  C_11 
REMARK    3  A    between atoms: C_11  and  N_12 
REMARK    4  A    between atoms: N_15  and  C_18 
REMARK    5  A    between atoms: N_23  and  C_27 
ROOT
ATOM      1  N   UNK d   1      27.277   6.297  28.788  0.00  0.00     0.100 N 
ATOM      2  C   UNK d   1      27.002   5.540  27.548  0.00  0.00     0.293 C 
ATOM      3  C   UNK d   1      25.928   4.535  28.011  0.00  0.00     0.154 C 
ATOM      4  N   UNK d   1      26.350   4.211  29.383  0.00  0.00    -0.360 N 
ATOM      5  C   UNK d   1      27.761   4.088  29.566  0.00  0.00     0.154 C 
ATOM      6  C   UNK d   1      28.327   5.515  29.484  0.00  0.00     0.293 C 
ENDROOT
BRANCH   1   7
ATOM      7  C   UNK d   1      27.807   7.612  28.477  0.00  0.00     0.375 C 
BRANCH   7   8
ATOM      8  C   UNK d   1      26.796   8.610  28.993  0.00  0.00     0.250 C 
ATOM      9  N   UNK d   1      25.747   8.232  29.835  0.00  0.00    -0.326 N 
ATOM     10  H   UNK d   1      25.679   7.191  30.062  0.00  0.00     0.169 HD
ATOM     11  O   UNK d   1      26.916   9.811  28.641  0.00  0.00    -0.271 OA
BRANCH   9  12
ATOM     12  C   UNK d   1      24.743   9.046  30.401  0.00  0.00     0.034 A 
ATOM     13  C   UNK d   1      23.649   9.462  29.626  0.00  0.00     0.031 A 
ATOM     14  C   UNK d   1      22.642  10.244  30.128  0.00  0.00     0.026 A 
ATOM     15  C   UNK d   1      22.673  10.660  31.452  0.00  0.00     0.034 A 
ATOM     16 Cl   UNK d   1      21.403  11.659  32.125  0.00  0.00    -0.084 Cl
ATOM     17  C   UNK d   1      23.737  10.261  32.223  0.00  0.00     0.026 A 
ATOM     18  C   UNK d   1      24.751   9.467  31.701  0.00  0.00     0.031 A 
ENDBRANCH   9  12
ENDBRANCH   7   8
ENDBRANCH   1   7
BRANCH   4  19
ATOM     19  C   UNK d   1      25.368   4.071  30.374  0.00  0.00     0.162 A 
ATOM     20  N   UNK d   1      25.510   3.130  31.358  0.00  0.00    -0.222 NA
ATOM     21  C   UNK d   1      24.616   2.928  32.326  0.00  0.00     0.237 A 
ATOM     22  N   UNK d   1      23.505   3.672  32.362  0.00  0.00    -0.220 NA
ATOM     23  C   UNK d   1      23.256   4.618  31.462  0.00  0.00     0.183 A 
ATOM     24  N   UNK d   1      22.243   5.485  31.269  0.00  0.00    -0.232 N 
ATOM     25  C   UNK d   1      24.202   4.819  30.452  0.00  0.00     0.173 A 
ATOM     26  N   UNK d   1      22.547   6.183  30.204  0.00  0.00    -0.064 NA
ATOM     27  N   UNK d   1      23.712   5.794  29.709  0.00  0.00    -0.124 NA
BRANCH  24  28
ATOM     28  C   UNK d   1      21.033   5.653  32.052  0.00  0.00     0.150 C 
ATOM     29  C   UNK d   1      20.683   7.116  32.219  0.00  0.00     0.029 C 
ENDBRANCH  24  28
ENDBRANCH   4  19
TORSDOF 5
ENDMDL
