/Users/jonathanwahrer/Desktop/Msc/3_Semester/Drug_Design_Praktikum/waehrer_HTS_screening/HTS_experiment/out/docking_results/vina_output/3elj/1837_docked.pdbqt
 OpenBabel03192218393D

 29 32  0  0  0  0  0  0  0  0999 V2000
   27.2770    6.2970   28.7880 N   0  0  0  0  0  0  0  0  0  0  0  0
   27.0020    5.5400   27.5480 C   0  0  0  0  0  2  0  0  0  0  0  0
   25.9280    4.5350   28.0110 C   0  0  0  0  0  2  0  0  0  0  0  0
   26.3500    4.2110   29.3830 N   0  0  0  0  0  0  0  0  0  0  0  0
   27.7610    4.0880   29.5660 C   0  0  0  0  0  2  0  0  0  0  0  0
   28.3270    5.5150   29.4840 C   0  0  0  0  0  2  0  0  0  0  0  0
   27.8070    7.6120   28.4770 C   0  0  0  0  0  2  0  0  0  0  0  0
   26.7960    8.6100   28.9930 C   0  0  0  0  0  0  0  0  0  0  0  0
   25.7470    8.2320   29.8350 N   0  0  0  0  0  0  0  0  0  0  0  0
   25.6790    7.1910   30.0620 H   0  0  0  0  0  0  0  0  0  0  0  0
   26.9160    9.8110   28.6410 O   0  0  0  0  0  0  0  0  0  0  0  0
   24.7430    9.0460   30.4010 C   0  0  0  0  0  0  0  0  0  0  0  0
   23.6490    9.4620   29.6260 C   0  0  0  0  0  3  0  0  0  0  0  0
   22.6420   10.2440   30.1280 C   0  0  0  0  0  3  0  0  0  0  0  0
   22.6730   10.6600   31.4520 C   0  0  0  0  0  0  0  0  0  0  0  0
   21.4030   11.6590   32.1250 Cl  0  0  0  0  0  0  0  0  0  0  0  0
   23.7370   10.2610   32.2230 C   0  0  0  0  0  3  0  0  0  0  0  0
   24.7510    9.4670   31.7010 C   0  0  0  0  0  3  0  0  0  0  0  0
   25.3680    4.0710   30.3740 C   0  0  0  0  0  0  0  0  0  0  0  0
   25.5100    3.1300   31.3580 N   0  0  0  0  0  0  0  0  0  0  0  0
   24.6160    2.9280   32.3260 C   0  0  0  0  0  3  0  0  0  0  0  0
   23.5050    3.6720   32.3620 N   0  0  0  0  0  0  0  0  0  0  0  0
   23.2560    4.6180   31.4620 C   0  0  0  0  0  0  0  0  0  0  0  0
   22.2430    5.4850   31.2690 N   0  0  0  0  0  0  0  0  0  0  0  0
   24.2020    4.8190   30.4520 C   0  0  0  0  0  0  0  0  0  0  0  0
   22.5470    6.1830   30.2040 N   0  0  0  0  0  0  0  0  0  0  0  0
   23.7120    5.7940   29.7090 N   0  0  0  0  0  0  0  0  0  0  0  0
   21.0330    5.6530   32.0520 C   0  0  0  0  0  2  0  0  0  0  0  0
   20.6830    7.1160   32.2190 C   0  0  0  0  0  1  0  0  0  0  0  0
  1  6  1  0  0  0  0
  2  3  1  0  0  0  0
  2  1  1  0  0  0  0
  3  4  1  0  0  0  0
  4  5  1  0  0  0  0
  4 19  1  0  0  0  0
  6  5  1  0  0  0  0
  7  1  1  0  0  0  0
  7  8  1  0  0  0  0
  8  9  1  0  0  0  0
  9 10  1  0  0  0  0
  9 12  1  0  0  0  0
 11  8  2  0  0  0  0
 12 18  1  0  0  0  0
 13 14  1  0  0  0  0
 13 12  2  0  0  0  0
 14 15  2  0  0  0  0
 15 16  1  0  0  0  0
 15 17  1  0  0  0  0
 18 17  2  0  0  0  0
 19 25  2  0  0  0  0
 19 20  1  0  0  0  0
 20 21  2  0  0  0  0
 21 22  1  0  0  0  0
 23 22  2  0  0  0  0
 24 23  1  0  0  0  0
 24 28  1  0  0  0  0
 25 23  1  0  0  0  0
 26 24  1  0  0  0  0
 27 26  2  0  0  0  0
 27 25  1  0  0  0  0
 28 29  1  0  0  0  0
M  END
>  <Pose>
1

>  <Score>
-7.656

$$$$
