/Users/jonathanwahrer/Desktop/Msc/3_Semester/Drug_Design_Praktikum/waehrer_HTS_screening/HTS_experiment/out/docking_results/vina_output/3elj/1856_docked.pdbqt
 OpenBabel03192218403D

 31 34  0  0  0  0  0  0  0  0999 V2000
   24.1620   11.0030   29.5270 C   0  0  0  0  0  0  0  0  0  0  0  0
   23.2440   11.8040   30.0880 N   0  0  0  0  0  4  0  0  0  0  0  0
   23.1650   13.1420   29.8620 C   0  0  0  0  0  0  0  0  0  0  0  0
   24.0990   13.6360   29.0070 N   0  0  0  0  0  0  0  0  0  0  0  0
   25.0410   12.8850   28.4160 C   0  0  0  0  0  0  0  0  0  0  0  0
   25.0520   11.5860   28.6870 N   0  0  0  0  0  2  0  0  0  0  0  0
   24.2030    9.6090   29.7950 N   0  0  0  0  0  0  0  0  0  0  0  0
   25.0940    9.0770   29.7430 H   0  0  0  0  0  0  0  0  0  0  0  0
   23.0490    8.9040   30.1400 N   0  0  0  0  0  0  0  0  0  0  0  0
   22.8200    8.6980   31.4190 C   0  0  0  0  0  3  0  0  0  0  0  0
   21.6290    7.9680   31.8230 C   0  0  0  0  0  0  0  0  0  0  0  0
   20.5520    8.6660   32.3920 C   0  0  0  0  0  3  0  0  0  0  0  0
   19.4280    7.9980   32.7760 C   0  0  0  0  0  0  0  0  0  0  0  0
   17.9630    8.9420   33.5510 Br  0  0  0  0  0  0  0  0  0  0  0  0
   19.3210    6.6350   32.6160 C   0  0  0  0  0  3  0  0  0  0  0  0
   20.3600    5.9310   32.0620 C   0  0  0  0  0  3  0  0  0  0  0  0
   21.5210    6.6130   31.6640 C   0  0  0  0  0  0  0  0  0  0  0  0
   22.5490    5.8750   31.1100 O   0  0  0  0  0  0  0  0  0  0  0  0
   22.6250    5.6440   30.1410 H   0  0  0  0  0  0  0  0  0  0  0  0
   22.1880   13.9540   30.4670 N   0  0  0  0  0  0  0  0  0  0  0  0
   20.9500   13.3930   30.9170 C   0  0  0  0  0  2  0  0  0  0  0  0
   20.7810   13.7900   32.3740 C   0  0  0  0  0  2  0  0  0  0  0  0
   20.7940   15.1920   32.4170 O   0  0  0  0  0  0  0  0  0  0  0  0
   22.0690   15.6710   32.1110 C   0  0  0  0  0  2  0  0  0  0  0  0
   22.4050   15.3580   30.6480 C   0  0  0  0  0  2  0  0  0  0  0  0
   25.9830   13.4660   27.5360 N   0  0  0  0  0  0  0  0  0  0  0  0
   27.0350   12.7090   26.8870 C   0  0  0  0  0  2  0  0  0  0  0  0
   27.3690   13.3380   25.5520 C   0  0  0  0  0  2  0  0  0  0  0  0
   27.7290   14.6570   25.6390 O   0  0  0  0  0  0  0  0  0  0  0  0
   27.3970   15.2500   26.8500 C   0  0  0  0  0  2  0  0  0  0  0  0
   25.9580   14.8970   27.2160 C   0  0  0  0  0  2  0  0  0  0  0  0
  1  7  1  0  0  0  0
  1  2  2  0  0  0  0
  3  2  2  0  0  0  0
  3 20  1  0  0  0  0
  4  3  1  0  0  0  0
  5  6  1  0  0  0  0
  5  4  2  0  0  0  0
  6  1  1  0  0  0  0
  7  9  1  0  0  0  0
  8  7  1  0  0  0  0
  9 10  2  0  0  0  0
 10 11  1  0  0  0  0
 11 12  1  0  0  0  0
 12 13  2  0  0  0  0
 13 14  1  0  0  0  0
 15 13  1  0  0  0  0
 16 15  2  0  0  0  0
 17 11  2  0  0  0  0
 17 16  1  0  0  0  0
 18 17  1  0  0  0  0
 19 18  1  0  0  0  0
 20 25  1  0  0  0  0
 20 21  1  0  0  0  0
 21 22  1  0  0  0  0
 22 23  1  0  0  0  0
 24 23  1  0  0  0  0
 25 24  1  0  0  0  0
 26  5  1  0  0  0  0
 27 26  1  0  0  0  0
 28 29  1  0  0  0  0
 28 27  1  0  0  0  0
 29 30  1  0  0  0  0
 30 31  1  0  0  0  0
 31 26  1  0  0  0  0
M  END
>  <Pose>
1

>  <Score>
-8.556

$$$$
