MODEL 1
REMARK VINA RESULT:    -6.542      0.000      0.000
REMARK INTER + INTRA:          -6.813
REMARK INTER:                  -7.880
REMARK INTRA:                   1.067
REMARK UNBOUND:                 1.067
REMARK  4 active torsions:
REMARK  status: ('A' for Active; 'I' for Inactive)
REMARK    1  A    between atoms: C_5  and  C_8 
REMARK    2  A    between atoms: C_8  and  O_26 
REMARK    3  A    between atoms: N_9  and  C_18 
REMARK    4  A    between atoms: C_21  and  O_24 
ROOT
ATOM      1  C   UNK d   1      25.908   2.589  30.771  0.00  0.00     0.287 C 
ATOM      2  N   UNK d   1      24.769   3.031  31.477  0.00  0.00     0.042 N 
ATOM      3  C   UNK d   1      24.695   2.410  32.732  0.00  0.00     0.210 C 
ATOM      4  C   UNK d   1      23.908   2.296  33.774  0.00  0.00     0.030 C 
ATOM      5  C   UNK d   1      24.282   1.481  34.935  0.00  0.00     0.032 C 
ATOM      6  C   UNK d   1      25.665   1.061  35.126  0.00  0.00     0.024 C 
ATOM      7  C   UNK d   1      26.607   1.405  34.000  0.00  0.00     0.125 C 
ATOM      8  N   UNK d   1      25.906   1.604  32.782  0.00  0.00    -0.351 N 
ATOM      9  C   UNK d   1      26.057   1.190  31.393  0.00  0.00     0.151 C 
ATOM     10  C   UNK d   1      27.353   0.528  31.177  0.00  0.00     0.038 C 
ATOM     11  H   UNK d   1      23.956   2.474  30.948  0.00  0.00     0.299 HD
ENDROOT
BRANCH   1  12
ATOM     12  C   UNK d   1      27.161   3.325  30.925  0.00  0.00     0.008 A 
ATOM     13  C   UNK d   1      27.853   3.731  29.814  0.00  0.00     0.014 A 
ATOM     14  C   UNK d   1      29.062   4.418  29.906  0.00  0.00     0.024 A 
ATOM     15  C   UNK d   1      29.569   4.693  31.169  0.00  0.00     0.034 A 
ATOM     16 Cl   UNK d   1      31.082   5.550  31.391  0.00  0.00    -0.084 Cl
ATOM     17  C   UNK d   1      28.859   4.278  32.279  0.00  0.00     0.024 A 
ATOM     18  C   UNK d   1      27.662   3.597  32.186  0.00  0.00     0.014 A 
ENDBRANCH   1  12
BRANCH   1  19
ATOM     19  O   UNK d   1      25.587   2.370  29.451  0.00  0.00    -0.359 OA
ATOM     20  H   UNK d   1      25.198   1.505  29.228  0.00  0.00     0.213 HD
ENDBRANCH   1  19
BRANCH   2  21
ATOM     21  C   UNK d   1      24.335   4.335  31.267  0.00  0.00     0.146 A 
ATOM     22  C   UNK d   1      22.969   4.537  31.156  0.00  0.00     0.041 A 
ATOM     23  C   UNK d   1      22.413   5.774  30.937  0.00  0.00     0.039 A 
ATOM     24  C   UNK d   1      23.198   6.924  30.810  0.00  0.00     0.068 A 
ATOM     25  C   UNK d   1      24.547   6.695  30.923  0.00  0.00     0.039 A 
ATOM     26  C   UNK d   1      25.096   5.456  31.143  0.00  0.00     0.041 A 
BRANCH  24  27
ATOM     27  O   UNK d   1      22.627   8.164  30.594  0.00  0.00    -0.356 OA
ATOM     28  C   UNK d   1      23.237   9.062  29.701  0.00  0.00     0.210 C 
ENDBRANCH  24  27
ENDBRANCH   2  21
TORSDOF 4
ENDMDL
