MODEL 1
REMARK VINA RESULT:    -8.533      0.000      0.000
REMARK INTER + INTRA:         -10.571
REMARK INTER:                 -10.029
REMARK INTRA:                  -0.542
REMARK UNBOUND:                -0.542
REMARK  3 active torsions:
REMARK  status: ('A' for Active; 'I' for Inactive)
REMARK    1  A    between atoms: C_5  and  N_8 
REMARK    2  A    between atoms: N_15  and  C_16 
REMARK    3  A    between atoms: C_16  and  C_17 
ROOT
ATOM      1  N   UNK d   1      21.443   7.430  31.818  0.00  0.00    -0.241 N 
ATOM      2  C   UNK d   1      21.497   8.662  32.372  0.00  0.00     0.286 A 
ATOM      3  O   UNK d   1      22.523   9.374  32.395  0.00  0.00    -0.265 OA
ATOM      4  C   UNK d   1      20.270   9.021  32.904  0.00  0.00     0.154 A 
ATOM      5  C   UNK d   1      19.452   7.985  32.668  0.00  0.00     0.152 A 
ATOM      6  N   UNK d   1      18.265   8.344  33.185  0.00  0.00    -0.279 N 
ATOM      7  N   UNK d   1      18.359   9.551  33.715  0.00  0.00    -0.239 N 
ATOM      8  N   UNK d   1      19.590   9.983  33.550  0.00  0.00    -0.266 N 
ATOM      9  C   UNK d   1      20.182   7.021  32.004  0.00  0.00     0.286 A 
ATOM     10  O   UNK d   1      19.723   5.908  31.626  0.00  0.00    -0.265 OA
ATOM     11  H   UNK d   1      17.387   7.785  33.187  0.00  0.00     0.189 HD
ATOM     12  H   UNK d   1      17.578  10.089  34.195  0.00  0.00     0.208 HD
ENDROOT
BRANCH   1  13
ATOM     13  C   UNK d   1      22.499   6.719  31.175  0.00  0.00     0.046 A 
ATOM     14  C   UNK d   1      23.115   7.215  30.045  0.00  0.00     0.032 A 
ATOM     15  C   UNK d   1      24.140   6.534  29.416  0.00  0.00     0.026 A 
ATOM     16  C   UNK d   1      24.591   5.322  29.895  0.00  0.00     0.034 A 
ATOM     17 Cl   UNK d   1      25.898   4.455  29.091  0.00  0.00    -0.084 Cl
ATOM     18  C   UNK d   1      23.982   4.815  31.024  0.00  0.00     0.026 A 
ATOM     19  C   UNK d   1      22.959   5.503  31.646  0.00  0.00     0.032 A 
ENDBRANCH   1  13
BRANCH   8  20
ATOM     20  C   UNK d   1      20.134  11.249  33.979  0.00  0.00     0.189 C 
BRANCH  20  21
ATOM     21  C   UNK d   1      20.020  12.321  32.967  0.00  0.00    -0.038 A 
ATOM     22  C   UNK d   1      18.845  13.021  32.847  0.00  0.00     0.009 A 
ATOM     23  C   UNK d   1      18.760  14.011  31.896  0.00  0.00     0.001 A 
ATOM     24  C   UNK d   1      19.826  14.312  31.067  0.00  0.00     0.000 A 
ATOM     25  C   UNK d   1      21.004  13.610  31.187  0.00  0.00     0.001 A 
ATOM     26  C   UNK d   1      21.073  12.630  32.137  0.00  0.00     0.009 A 
ENDBRANCH  20  21
ENDBRANCH   8  20
TORSDOF 3
ENDMDL
