MODEL 1
REMARK VINA RESULT:    -8.190      0.000      0.000
REMARK INTER + INTRA:         -10.839
REMARK INTER:                  -9.626
REMARK INTRA:                  -1.214
REMARK UNBOUND:                -1.214
REMARK  3 active torsions:
REMARK  status: ('A' for Active; 'I' for Inactive)
REMARK    1  A    between atoms: S_1  and  N_4 
REMARK    2  A    between atoms: S_1  and  C_26 
REMARK       I    between atoms: N_7  and  C_10 
REMARK    3  A    between atoms: C_12  and  N_13 
ROOT
ATOM      1  N   UNK d   1      28.092   8.454  27.898  0.00  0.00    -0.303 N 
ATOM      2  C   UNK d   1      26.894   8.420  28.643  0.00  0.00     0.155 C 
ATOM      3  C   UNK d   1      26.902   9.645  29.581  0.00  0.00     0.145 C 
ATOM      4  N   UNK d   1      26.749  10.756  28.678  0.00  0.00    -0.358 N 
ATOM      5  C   UNK d   1      27.923  10.925  27.794  0.00  0.00     0.145 C 
ATOM      6  C   UNK d   1      28.506   9.660  27.315  0.00  0.00     0.155 C 
ATOM      7  C   UNK d   1      25.686  11.647  28.542  0.00  0.00     0.172 C 
ATOM      8  O   UNK d   1      25.886  12.545  27.596  0.00  0.00    -0.175 OA
ATOM      9  C   UNK d   1      24.413  11.813  29.194  0.00  0.00     0.224 C 
ENDROOT
BRANCH   9  10
ATOM     10  N   UNK d   1      24.069  10.917  30.256  0.00  0.00    -0.260 N 
ATOM     11  C   UNK d   1      24.291  11.152  31.648  0.00  0.00     0.326 C 
ATOM     12  O   UNK d   1      24.851  12.205  32.106  0.00  0.00    -0.247 OA
ATOM     13  N   UNK d   1      23.792  10.045  32.367  0.00  0.00    -0.324 N 
ATOM     14  C   UNK d   1      22.906   9.296  31.490  0.00  0.00     0.119 C 
ATOM     15  H   UNK d   1      24.003   9.789  33.344  0.00  0.00     0.165 HD
ATOM     16  C   UNK d   1      22.974   7.820  31.667  0.00  0.00     0.019 C 
ATOM     17  C   UNK d   1      21.513   9.846  31.701  0.00  0.00     0.041 C 
ATOM     18  C   UNK d   1      23.427   9.646  30.134  0.00  0.00     0.257 C 
ATOM     19  C   UNK d   1      21.576   7.256  31.391  0.00  0.00     0.007 C 
ATOM     20  C   UNK d   1      23.904   7.124  30.700  0.00  0.00     0.013 C 
ATOM     21  C   UNK d   1      20.728   7.636  32.590  0.00  0.00     0.001 C 
ATOM     22  C   UNK d   1      20.927   9.102  32.893  0.00  0.00     0.003 C 
ATOM     23  O   UNK d   1      23.323   8.967  29.095  0.00  0.00    -0.270 OA
ENDBRANCH   9  10
BRANCH   1  24
ATOM     24  S   UNK d   1      28.403   7.050  26.977  0.00  0.00     0.267 S 
ATOM     25  O   UNK d   1      27.975   7.135  25.566  0.00  0.00    -0.200 OA
ATOM     26  O   UNK d   1      29.890   6.785  27.016  0.00  0.00    -0.200 OA
BRANCH  24  27
ATOM     27  C   UNK d   1      27.575   5.703  27.778  0.00  0.00     0.121 A 
ATOM     28  S   UNK d   1      27.984   4.861  29.201  0.00  0.00    -0.064 SA
ATOM     29  C   UNK d   1      26.691   3.755  29.245  0.00  0.00     0.075 A 
ATOM     30  C   UNK d   1      25.964   4.078  28.130  0.00  0.00     0.033 A 
ATOM     31 Cl   UNK d   1      26.364   2.492  30.443  0.00  0.00    -0.076 Cl
ATOM     32  C   UNK d   1      26.427   5.088  27.373  0.00  0.00     0.035 A 
ENDBRANCH  24  27
ENDBRANCH   1  24
TORSDOF 3
ENDMDL
