/Users/jonathanwahrer/Desktop/Msc/3_Semester/Drug_Design_Praktikum/waehrer_HTS_screening/HTS_experiment/out/docking_results/vina_output/3elj/1906_docked.pdbqt
 OpenBabel03192218423D

 33 36  0  0  1  0  0  0  0  0999 V2000
   24.5000    7.1600   30.1480 C   0  0  1  0  0  0  0  0  0  0  0  0
   24.8050    6.4110   31.2930 O   0  0  0  0  0  0  0  0  0  0  0  0
   24.8130    5.0560   31.1010 C   0  0  0  0  0  2  0  0  0  0  0  0
   25.9750    4.5570   30.2660 C   0  0  0  0  0  2  0  0  0  0  0  0
   26.1320    5.5980   29.2170 N   0  0  0  0  0  0  0  0  0  0  0  0
   24.9580    6.3290   28.9350 C   0  0  0  0  0  2  0  0  0  0  0  0
   27.3720    5.7490   28.6320 C   0  0  0  0  0  0  0  0  0  0  0  0
   28.3650    4.9940   28.9970 O   0  0  0  0  0  0  0  0  0  0  0  0
   23.0000    7.1990   30.0710 C   0  0  0  0  0  2  0  0  0  0  0  0
   22.2640    7.2670   31.1570 O   0  0  0  0  0  0  0  0  0  0  0  0
   21.2280    7.6980   31.8150 C   0  0  0  0  0  0  0  0  0  0  0  0
   21.0530    8.9800   32.2690 C   0  0  0  0  0  3  0  0  0  0  0  0
   19.9220    9.3290   32.9570 C   0  0  0  0  0  0  0  0  0  0  0  0
   19.7310   10.9880   33.5250 Cl  0  0  0  0  0  0  0  0  0  0  0  0
   18.9190    8.4150   33.2190 C   0  0  0  0  0  3  0  0  0  0  0  0
   19.0900    7.1330   32.7650 C   0  0  0  0  0  3  0  0  0  0  0  0
   20.2030    6.7690   32.0830 C   0  0  0  0  0  3  0  0  0  0  0  0
   25.1900    8.4430   30.2390 C   0  0  0  0  0  2  0  0  0  0  0  0
   24.6800    9.4500   31.1730 C   0  0  0  0  0  0  0  0  0  0  0  0
   24.7560    9.2790   32.4040 O   0  0  0  0  0  0  0  0  0  0  0  0
   24.0790   10.6550   30.7090 N   0  0  0  0  0  0  0  0  0  0  0  0
   23.9440   10.9400   29.2850 C   0  0  0  0  0  2  0  0  0  0  0  0
   23.5710   11.6530   31.6270 C   0  0  0  0  0  2  0  0  0  0  0  0
   24.4290   12.3580   29.0680 C   0  0  0  0  0  2  0  0  0  0  0  0
   23.6710   13.2210   29.8670 O   0  0  0  0  0  0  0  0  0  0  0  0
   24.0210   13.0130   31.2000 C   0  0  0  0  0  2  0  0  0  0  0  0
   27.6890    6.7020   27.6130 C   0  0  0  0  0  0  0  0  0  0  0  0
   27.8670    8.0030   27.8430 N   0  0  0  0  0  0  0  0  0  0  0  0
   28.1660    8.9060   26.8880 C   0  0  0  0  0  3  0  0  0  0  0  0
   28.3040    8.4860   25.5750 C   0  0  0  0  0  0  0  0  0  0  0  0
   28.1360    7.2010   25.3080 N   0  0  0  0  0  0  0  0  0  0  0  0
   28.6340    9.5220   24.5650 C   0  0  0  0  0  1  0  0  0  0  0  0
   27.8380    6.3180   26.2760 C   0  0  0  0  0  3  0  0  0  0  0  0
  1  9  1  6  0  0  0
  1 18  1  0  0  0  0
  1  2  1  0  0  0  0
  3  2  1  0  0  0  0
  4  3  1  0  0  0  0
  5  4  1  0  0  0  0
  6  5  1  0  0  0  0
  6  1  1  0  0  0  0
  7  8  2  0  0  0  0
  7  5  1  0  0  0  0
  9 10  1  0  0  0  0
 10 11  1  0  0  0  0
 11 17  2  0  0  0  0
 11 12  1  0  0  0  0
 12 13  2  0  0  0  0
 13 15  1  0  0  0  0
 13 14  1  0  0  0  0
 16 15  2  0  0  0  0
 17 16  1  0  0  0  0
 18 19  1  0  0  0  0
 19 20  2  0  0  0  0
 21 19  1  0  0  0  0
 21 23  1  0  0  0  0
 22 21  1  0  0  0  0
 24 22  1  0  0  0  0
 24 25  1  0  0  0  0
 25 26  1  0  0  0  0
 26 23  1  0  0  0  0
 27 28  1  0  0  0  0
 27  7  1  0  0  0  0
 29 28  2  0  0  0  0
 30 29  1  0  0  0  0
 31 30  2  0  0  0  0
 31 33  1  0  0  0  0
 32 30  1  0  0  0  0
 33 27  2  0  0  0  0
M  END
>  <Pose>
1

>  <Score>
-8.520

$$$$
