MODEL 1
REMARK VINA RESULT:    -9.625      0.000      0.000
REMARK INTER + INTRA:         -12.939
REMARK INTER:                 -12.439
REMARK INTRA:                  -0.500
REMARK UNBOUND:                -0.500
REMARK  5 active torsions:
REMARK  status: ('A' for Active; 'I' for Inactive)
REMARK    1  A    between atoms: C_5  and  C_8 
REMARK    2  A    between atoms: C_11  and  C_13 
REMARK    3  A    between atoms: C_13  and  N_14 
REMARK    4  A    between atoms: C_22  and  C_24 
REMARK    5  A    between atoms: C_24  and  O_26 
ROOT
ATOM      1  N   UNK d   1      23.917  14.086  29.045  0.00  0.00    -0.357 N 
ATOM      2  C   UNK d   1      24.113  14.857  27.955  0.00  0.00     0.110 A 
ATOM      3  C   UNK d   1      23.618  16.135  27.899  0.00  0.00     0.080 A 
ATOM      4  C   UNK d   1      22.866  16.662  29.043  0.00  0.00     0.111 A 
ATOM      5  N   UNK d   1      22.506  17.922  28.717  0.00  0.00    -0.170 NA
ATOM      6  N   UNK d   1      22.954  18.206  27.511  0.00  0.00    -0.242 N 
ATOM      7  C   UNK d   1      23.626  17.177  26.974  0.00  0.00     0.275 A 
ATOM      8  O   UNK d   1      24.176  17.121  25.848  0.00  0.00    -0.266 OA
ATOM      9  C   UNK d   1      22.692  15.837  30.135  0.00  0.00     0.086 A 
ATOM     10  C   UNK d   1      23.232  14.583  30.072  0.00  0.00     0.111 A 
ATOM     11  H   UNK d   1      22.806  19.116  27.038  0.00  0.00     0.192 HD
ENDROOT
BRANCH   1  12
ATOM     12  C   UNK d   1      24.468  12.729  29.049  0.00  0.00     0.216 C 
BRANCH  12  13
ATOM     13  C   UNK d   1      23.890  11.956  30.166  0.00  0.00     0.191 A 
ATOM     14  O   UNK d   1      24.572  11.516  31.194  0.00  0.00    -0.194 OA
ATOM     15  N   UNK d   1      23.768  10.877  31.991  0.00  0.00    -0.105 NA
ATOM     16  C   UNK d   1      22.522  10.884  31.494  0.00  0.00     0.189 A 
ATOM     17  N   UNK d   1      22.600  11.565  30.343  0.00  0.00    -0.202 NA
BRANCH  16  18
ATOM     18  C   UNK d   1      21.359  10.265  32.116  0.00  0.00     0.014 A 
ATOM     19  C   UNK d   1      21.064   8.934  31.934  0.00  0.00     0.017 A 
ATOM     20  C   UNK d   1      19.964   8.337  32.519  0.00  0.00     0.025 A 
ATOM     21  C   UNK d   1      19.110   9.076  33.319  0.00  0.00     0.034 A 
ATOM     22 Cl   UNK d   1      17.706   8.340  34.074  0.00  0.00    -0.084 Cl
ATOM     23  C   UNK d   1      19.405  10.419  33.505  0.00  0.00     0.025 A 
ATOM     24  C   UNK d   1      20.512  11.007  32.913  0.00  0.00     0.017 A 
ENDBRANCH  16  18
ENDBRANCH  12  13
ENDBRANCH   1  12
BRANCH   9  25
ATOM     25  C   UNK d   1      21.947  16.329  31.294  0.00  0.00     0.296 C 
ATOM     26  O   UNK d   1      20.720  16.181  31.368  0.00  0.00    -0.259 OA
BRANCH  25  27
ATOM     27  O   UNK d   1      22.593  16.970  32.337  0.00  0.00    -0.322 OA
ATOM     28  C   UNK d   1      23.122  16.302  33.458  0.00  0.00     0.213 C 
ENDBRANCH  25  27
ENDBRANCH   9  25
TORSDOF 5
ENDMDL
