/Users/jonathanwahrer/Desktop/Msc/3_Semester/Drug_Design_Praktikum/waehrer_HTS_screening/HTS_experiment/out/docking_results/vina_output/3elj/1928_docked.pdbqt
 OpenBabel03192218423D

 28 31  0  0  0  0  0  0  0  0999 V2000
   23.9170   14.0860   29.0450 N   0  0  0  0  0  0  0  0  0  0  0  0
   24.1130   14.8570   27.9550 C   0  0  0  0  0  2  0  0  0  0  0  0
   23.6180   16.1350   27.8990 C   0  0  0  0  0  0  0  0  0  0  0  0
   22.8660   16.6620   29.0430 C   0  0  0  0  0  0  0  0  0  0  0  0
   22.5060   17.9220   28.7170 N   0  0  0  0  0  2  0  0  0  0  0  0
   22.9540   18.2060   27.5110 N   0  0  0  0  0  0  0  0  0  0  0  0
   23.6260   17.1770   26.9740 C   0  0  0  0  0  0  0  0  0  0  0  0
   24.1760   17.1210   25.8480 O   0  0  0  0  0  0  0  0  0  0  0  0
   22.6920   15.8370   30.1350 C   0  0  0  0  0  0  0  0  0  0  0  0
   23.2320   14.5830   30.0720 C   0  0  0  0  0  3  0  0  0  0  0  0
   22.8060   19.1160   27.0380 H   0  0  0  0  0  0  0  0  0  0  0  0
   24.4680   12.7290   29.0490 C   0  0  0  0  0  2  0  0  0  0  0  0
   23.8900   11.9560   30.1660 C   0  0  0  0  0  0  0  0  0  0  0  0
   24.5720   11.5160   31.1940 O   0  0  0  0  0  0  0  0  0  0  0  0
   23.7680   10.8770   31.9910 N   0  0  0  0  0  0  0  0  0  0  0  0
   22.5220   10.8840   31.4940 C   0  0  0  0  0  0  0  0  0  0  0  0
   22.6000   11.5650   30.3430 N   0  0  0  0  0  0  0  0  0  0  0  0
   21.3590   10.2650   32.1160 C   0  0  0  0  0  0  0  0  0  0  0  0
   21.0640    8.9340   31.9340 C   0  0  0  0  0  3  0  0  0  0  0  0
   19.9640    8.3370   32.5190 C   0  0  0  0  0  3  0  0  0  0  0  0
   19.1100    9.0760   33.3190 C   0  0  0  0  0  0  0  0  0  0  0  0
   17.7060    8.3400   34.0740 Cl  0  0  0  0  0  0  0  0  0  0  0  0
   19.4050   10.4190   33.5050 C   0  0  0  0  0  3  0  0  0  0  0  0
   20.5120   11.0070   32.9130 C   0  0  0  0  0  3  0  0  0  0  0  0
   21.9470   16.3290   31.2940 C   0  0  0  0  0  0  0  0  0  0  0  0
   20.7200   16.1810   31.3680 O   0  0  0  0  0  0  0  0  0  0  0  0
   22.5930   16.9700   32.3370 O   0  0  0  0  0  0  0  0  0  0  0  0
   23.1220   16.3020   33.4580 C   0  0  0  0  0  1  0  0  0  0  0  0
  1 12  1  0  0  0  0
  1 10  1  0  0  0  0
  2  1  1  0  0  0  0
  3  2  1  0  0  0  0
  3  4  2  0  0  0  0
  4  9  1  0  0  0  0
  5  4  1  0  0  0  0
  6  5  1  0  0  0  0
  7  6  1  0  0  0  0
  7  3  1  0  0  0  0
  8  7  2  0  0  0  0
  9 25  1  0  0  0  0
 10  9  2  0  0  0  0
 11  6  1  0  0  0  0
 12 13  1  0  0  0  0
 13 17  2  0  0  0  0
 13 14  1  0  0  0  0
 14 15  1  0  0  0  0
 16 15  2  0  0  0  0
 16 18  1  0  0  0  0
 17 16  1  0  0  0  0
 18 24  1  0  0  0  0
 19 18  2  0  0  0  0
 19 20  1  0  0  0  0
 20 21  2  0  0  0  0
 21 23  1  0  0  0  0
 21 22  1  0  0  0  0
 24 23  2  0  0  0  0
 25 26  2  0  0  0  0
 25 27  1  0  0  0  0
 27 28  1  0  0  0  0
M  END
>  <Pose>
1

>  <Score>
-9.625

$$$$
