MODEL 1
REMARK VINA RESULT:    -8.424      0.000      0.000
REMARK INTER + INTRA:         -11.063
REMARK INTER:                 -10.640
REMARK INTRA:                  -0.423
REMARK UNBOUND:                -0.423
REMARK  5 active torsions:
REMARK  status: ('A' for Active; 'I' for Inactive)
REMARK    1  A    between atoms: C_6  and  C_12 
REMARK    2  A    between atoms: C_12  and  C_13 
REMARK    3  A    between atoms: C_13  and  C_14 
REMARK       I    between atoms: C_14  and  N_16 
REMARK    4  A    between atoms: C_18  and  N_24 
REMARK    5  A    between atoms: C_19  and  O_22 
ROOT
ATOM      1  C   UNK d   1      24.715   7.901  29.553  0.00  0.00     0.220 C 
ATOM      2  O   UNK d   1      25.247   9.038  29.477  0.00  0.00    -0.273 OA
ATOM      3  N   UNK d   1      25.507   6.750  29.383  0.00  0.00    -0.350 N 
ATOM      4  C   UNK d   1      26.945   6.818  29.118  0.00  0.00     0.154 C 
ATOM      5  C   UNK d   1      27.124   6.242  27.727  0.00  0.00     0.146 C 
ATOM      6  C   UNK d   1      26.535   4.854  27.637  0.00  0.00     0.078 C 
ATOM      7  C   UNK d   1      26.015   4.406  29.008  0.00  0.00     0.059 C 
ATOM      8  C   UNK d   1      24.963   5.405  29.458  0.00  0.00     0.129 C 
ATOM      9  C   UNK d   1      27.481   3.829  27.089  0.00  0.00     0.048 C 
ENDROOT
BRANCH   1  10
ATOM     10  C   UNK d   1      23.260   7.806  29.820  0.00  0.00     0.110 C 
BRANCH  10  11
ATOM     11  C   UNK d   1      22.903   7.981  31.260  0.00  0.00     0.088 C 
BRANCH  11  12
ATOM     12  C   UNK d   1      22.334   9.314  31.581  0.00  0.00     0.107 A 
ATOM     13  N   UNK d   1      22.684  10.523  31.110  0.00  0.00    -0.233 NA
ATOM     14  C   UNK d   1      21.923  11.490  31.650  0.00  0.00     0.087 A 
ATOM     15  C   UNK d   1      21.843  12.869  31.534  0.00  0.00     0.057 A 
ATOM     16  C   UNK d   1      21.043  10.866  32.509  0.00  0.00     0.064 A 
ATOM     17  C   UNK d   1      20.932  13.617  32.234  0.00  0.00     0.036 A 
ATOM     18 Cl   UNK d   1      20.822  15.365  32.095  0.00  0.00    -0.084 Cl
ATOM     19  C   UNK d   1      20.066  12.962  33.084  0.00  0.00     0.026 A 
ATOM     20  C   UNK d   1      20.111  11.580  33.232  0.00  0.00     0.034 A 
ATOM     21  N   UNK d   1      21.310   9.556  32.449  0.00  0.00    -0.338 N 
ATOM     22  C   UNK d   1      20.645   8.479  33.180  0.00  0.00     0.158 C 
ENDBRANCH  11  12
ENDBRANCH  10  11
ENDBRANCH   1  10
BRANCH   5  23
ATOM     23  N   UNK d   1      28.439   6.364  27.203  0.00  0.00    -0.300 N 
ATOM     24  C   UNK d   1      29.541   6.113  27.969  0.00  0.00     0.108 A 
ATOM     25  C   UNK d   1      30.817   6.232  27.462  0.00  0.00     0.022 A 
ATOM     26  C   UNK d   1      30.994   6.612  26.151  0.00  0.00     0.256 A 
ATOM     27  C   UNK d   1      32.036   5.966  28.267  0.00  0.00     0.056 C 
ATOM     28  O   UNK d   1      32.160   6.734  25.643  0.00  0.00    -0.267 OA
ATOM     29  N   UNK d   1      29.904   6.858  25.403  0.00  0.00    -0.275 N 
ATOM     30  C   UNK d   1      28.660   6.728  25.949  0.00  0.00     0.329 A 
ATOM     31  H   UNK d   1      30.032   7.145  24.415  0.00  0.00     0.173 HD
ATOM     32  O   UNK d   1      27.684   6.970  25.205  0.00  0.00    -0.246 OA
ENDBRANCH   5  23
BRANCH   6  33
ATOM     33  O   UNK d   1      25.391   4.816  26.803  0.00  0.00    -0.388 OA
ATOM     34  H   UNK d   1      24.625   5.042  27.387  0.00  0.00     0.210 HD
ENDBRANCH   6  33
TORSDOF 5
ENDMDL
