MODEL 1
REMARK VINA RESULT:    -8.264      0.000      0.000
REMARK INTER + INTRA:         -10.064
REMARK INTER:                 -10.196
REMARK INTRA:                   0.132
REMARK UNBOUND:                 0.132
REMARK  4 active torsions:
REMARK  status: ('A' for Active; 'I' for Inactive)
REMARK    1  A    between atoms: C_6  and  C_11 
REMARK    2  A    between atoms: C_11  and  N_12 
REMARK       I    between atoms: N_12  and  C_13 
REMARK    3  A    between atoms: C_13  and  C_15 
REMARK    4  A    between atoms: C_15  and  N_18 
ROOT
ATOM      1  N   UNK d   1      20.753  13.278  33.105  0.00  0.00    -0.352 N 
ATOM      2  C   UNK d   1      20.734  14.232  32.070  0.00  0.00     0.246 C 
ATOM      3  O   UNK d   1      19.641  14.479  31.532  0.00  0.00    -0.271 OA
ATOM      4  H   UNK d   1      21.663  13.054  33.571  0.00  0.00     0.162 HD
ENDROOT
BRANCH   1   5
ATOM      5  C   UNK d   1      19.560  12.585  33.556  0.00  0.00     0.201 C 
BRANCH   5   6
ATOM      6  C   UNK d   1      19.674  11.117  33.248  0.00  0.00     0.123 A 
ATOM      7  N   UNK d   1      20.769  10.462  32.821  0.00  0.00    -0.232 NA
ATOM      8  C   UNK d   1      20.504   9.155  32.649  0.00  0.00     0.087 A 
ATOM      9  C   UNK d   1      21.215   8.046  32.244  0.00  0.00     0.057 A 
ATOM     10  C   UNK d   1      19.160   8.968  32.986  0.00  0.00     0.062 A 
ATOM     11  C   UNK d   1      20.678   6.773  32.154  0.00  0.00     0.036 A 
ATOM     12 Cl   UNK d   1      21.634   5.388  31.632  0.00  0.00    -0.084 Cl
ATOM     13  C   UNK d   1      19.338   6.617  32.497  0.00  0.00     0.026 A 
ATOM     14  C   UNK d   1      18.613   7.709  32.902  0.00  0.00     0.034 A 
ATOM     15  N   UNK d   1      18.710  10.188  33.342  0.00  0.00    -0.341 N 
ATOM     16  H   UNK d   1      17.732  10.389  33.651  0.00  0.00     0.167 HD
ENDBRANCH   5   6
ENDBRANCH   1   5
BRANCH   2  17
ATOM     17  C   UNK d   1      21.943  14.936  31.608  0.00  0.00     0.110 A 
ATOM     18  C   UNK d   1      21.785  16.373  31.297  0.00  0.00     0.044 A 
ATOM     19  C   UNK d   1      22.449  16.057  32.578  0.00  0.00     0.044 A 
BRANCH  17  20
ATOM     20  N   UNK d   1      23.038  14.188  31.067  0.00  0.00    -0.392 N 
ATOM     21  C   UNK d   1      22.827  13.583  29.812  0.00  0.00     0.144 C 
ATOM     22  C   UNK d   1      22.445  12.128  30.056  0.00  0.00     0.187 C 
ATOM     23  O   UNK d   1      23.525  11.433  30.544  0.00  0.00    -0.388 OA
ATOM     24  C   UNK d   1      24.402  12.174  31.297  0.00  0.00     0.187 C 
ATOM     25  C   UNK d   1      23.741  13.364  31.963  0.00  0.00     0.144 C 
ENDBRANCH  17  20
ENDBRANCH   2  17
TORSDOF 4
ENDMDL
