MODEL 1
REMARK VINA RESULT:    -7.061      0.000      0.000
REMARK INTER + INTRA:          -7.137
REMARK INTER:                  -9.125
REMARK INTRA:                   1.987
REMARK UNBOUND:                 1.987
REMARK  5 active torsions:
REMARK  status: ('A' for Active; 'I' for Inactive)
REMARK    1  A    between atoms: C_3  and  C_8 
REMARK    2  A    between atoms: C_8  and  N_9 
REMARK       I    between atoms: N_9  and  C_10 
REMARK    3  A    between atoms: C_10  and  C_12 
REMARK    4  A    between atoms: C_12  and  N_13 
REMARK       I    between atoms: N_16  and  C_19 
REMARK    5  A    between atoms: C_19  and  C_21 
ROOT
ATOM      1  N   UNK d   1      25.894   4.610  30.233  0.00  0.00     0.100 N 
ATOM      2  C   UNK d   1      27.154   4.564  30.815  0.00  0.00     0.293 C 
ATOM      3  C   UNK d   1      28.208   4.897  29.675  0.00  0.00     0.156 C 
ATOM      4  N   UNK d   1      27.420   5.753  28.828  0.00  0.00    -0.346 N 
ATOM      5  C   UNK d   1      26.553   4.945  27.922  0.00  0.00     0.156 C 
ATOM      6  C   UNK d   1      25.924   3.965  28.873  0.00  0.00     0.293 C 
ATOM      7  C   UNK d   1      27.505   7.112  28.779  0.00  0.00     0.251 C 
ATOM      8  O   UNK d   1      26.479   7.755  28.366  0.00  0.00    -0.270 OA
ENDROOT
BRANCH   1   9
ATOM      9  C   UNK d   1      24.705   4.118  30.886  0.00  0.00     0.374 C 
BRANCH   9  10
ATOM     10  C   UNK d   1      23.582   5.108  30.561  0.00  0.00     0.246 C 
ATOM     11  N   UNK d   1      23.951   6.413  30.225  0.00  0.00    -0.355 N 
ATOM     12  H   UNK d   1      24.973   6.665  30.471  0.00  0.00     0.162 HD
ATOM     13  O   UNK d   1      22.436   4.740  30.590  0.00  0.00    -0.272 OA
BRANCH  11  14
ATOM     14  C   UNK d   1      23.119   7.439  29.710  0.00  0.00     0.162 C 
BRANCH  14  15
ATOM     15  C   UNK d   1      22.578   8.335  30.765  0.00  0.00    -0.019 A 
ATOM     16  C   UNK d   1      22.850   9.695  30.671  0.00  0.00     0.042 A 
ATOM     17 Cl   UNK d   1      24.025  10.225  29.492  0.00  0.00    -0.084 Cl
ATOM     18  C   UNK d   1      22.274  10.605  31.497  0.00  0.00     0.024 A 
ATOM     19  C   UNK d   1      21.366  10.271  32.480  0.00  0.00     0.002 A 
ATOM     20  C   UNK d   1      21.092   8.891  32.573  0.00  0.00     0.001 A 
ATOM     21  C   UNK d   1      21.692   7.955  31.738  0.00  0.00     0.010 A 
ENDBRANCH  14  15
ENDBRANCH  11  14
ENDBRANCH   9  10
ENDBRANCH   1   9
BRANCH   7  22
ATOM     22  C   UNK d   1      28.677   7.975  29.129  0.00  0.00     0.245 C 
ATOM     23  O   UNK d   1      29.777   7.416  28.338  0.00  0.00    -0.331 OA
ATOM     24  C   UNK d   1      29.298   6.972  27.071  0.00  0.00     0.103 A 
ATOM     25  C   UNK d   1      28.286   7.693  26.493  0.00  0.00     0.102 A 
ATOM     26  C   UNK d   1      29.825   5.858  26.428  0.00  0.00     0.040 A 
ATOM     27  C   UNK d   1      27.748   7.333  25.263  0.00  0.00     0.039 A 
ATOM     28  O   UNK d   1      27.784   8.818  27.157  0.00  0.00    -0.345 OA
ATOM     29  C   UNK d   1      28.294   6.207  24.656  0.00  0.00     0.003 A 
ATOM     30  C   UNK d   1      29.317   5.466  25.206  0.00  0.00     0.003 A 
ATOM     31  C   UNK d   1      28.401   9.305  28.376  0.00  0.00     0.218 C 
ENDBRANCH   7  22
TORSDOF 5
ENDMDL
