/Users/jonathanwahrer/Desktop/Msc/3_Semester/Drug_Design_Praktikum/waehrer_HTS_screening/HTS_experiment/out/docking_results/vina_output/3elj/1939_docked.pdbqt
 OpenBabel03192218433D

 28 31  0  0  0  0  0  0  0  0999 V2000
   23.7850   11.6070   31.3200 N   0  0  0  0  0  0  0  0  0  0  0  0
   24.6730   11.3070   30.3240 C   0  0  0  0  0  0  0  0  0  0  0  0
   24.7160   12.3260   29.4140 C   0  0  0  0  0  0  0  0  0  0  0  0
   23.8530   13.2210   29.8780 N   0  0  0  0  0  0  0  0  0  0  0  0
   23.2670   12.8060   31.0470 C   0  0  0  0  0  0  0  0  0  0  0  0
   25.5110   12.2730   28.3290 N   0  0  0  0  0  0  0  0  0  0  0  0
   26.2950   11.1830   28.1210 C   0  0  0  0  0  0  0  0  0  0  0  0
   27.0170   11.1780   27.0990 O   0  0  0  0  0  0  0  0  0  0  0  0
   26.2870   10.1550   28.9870 N   0  0  0  0  0  0  0  0  0  0  0  0
   25.4910   10.2190   30.0650 C   0  0  0  0  0  0  0  0  0  0  0  0
   25.5190    9.2370   30.8390 O   0  0  0  0  0  0  0  0  0  0  0  0
   25.4940   13.4010   27.4140 C   0  0  0  0  0  1  0  0  0  0  0  0
   26.9070    9.3440   28.7820 H   0  0  0  0  0  0  0  0  0  0  0  0
   23.5250   10.7190   32.4220 C   0  0  0  0  0  2  0  0  0  0  0  0
   22.3280    9.8860   32.3320 C   0  0  0  0  0  0  0  0  0  0  0  0
   21.1120   10.2280   32.8240 C   0  0  0  0  0  3  0  0  0  0  0  0
   20.0070    9.3740   32.7590 C   0  0  0  0  0  3  0  0  0  0  0  0
   20.1200    8.1420   32.1860 C   0  0  0  0  0  0  0  0  0  0  0  0
   18.7080    7.1100   32.1300 Cl  0  0  0  0  0  0  0  0  0  0  0  0
   21.3370    7.7550   31.6740 C   0  0  0  0  0  3  0  0  0  0  0  0
   22.4100    8.6120   31.7490 C   0  0  0  0  0  3  0  0  0  0  0  0
   22.3030   13.5810   31.7290 N   0  0  0  0  0  0  0  0  0  0  0  0
   22.7310   14.8560   32.2880 C   0  0  0  0  0  2  0  0  0  0  0  0
   21.5020   15.7620   32.0930 C   0  0  0  0  0  2  0  0  0  0  0  0
   20.7750   15.4210   30.8900 N   0  0  0  0  0  0  0  0  0  0  0  0
   20.1480   14.1180   30.9320 C   0  0  0  0  0  2  0  0  0  0  0  0
   20.0260   16.1250   30.7860 H   0  0  0  0  0  0  0  0  0  0  0  0
   20.9320   13.3030   31.9510 C   0  0  0  0  0  2  0  0  0  0  0  0
  1 14  1  0  0  0  0
  2  1  1  0  0  0  0
  3  4  1  0  0  0  0
  3  2  2  0  0  0  0
  4  5  2  0  0  0  0
  5  1  1  0  0  0  0
  5 22  1  0  0  0  0
  6  3  1  0  0  0  0
  7  6  1  0  0  0  0
  7  9  1  0  0  0  0
  8  7  2  0  0  0  0
  9 10  1  0  0  0  0
 10  2  1  0  0  0  0
 10 11  2  0  0  0  0
 12  6  1  0  0  0  0
 13  9  1  0  0  0  0
 15 14  1  0  0  0  0
 15 16  1  0  0  0  0
 17 16  2  0  0  0  0
 18 17  1  0  0  0  0
 19 18  1  0  0  0  0
 20 21  1  0  0  0  0
 20 18  2  0  0  0  0
 21 15  2  0  0  0  0
 22 28  1  0  0  0  0
 22 23  1  0  0  0  0
 24 23  1  0  0  0  0
 25 26  1  0  0  0  0
 25 24  1  0  0  0  0
 26 28  1  0  0  0  0
 27 25  1  0  0  0  0
M  END
>  <Pose>
1

>  <Score>
-7.782

$$$$
