MODEL 1
REMARK VINA RESULT:    -7.782      0.000      0.000
REMARK INTER + INTRA:          -9.814
REMARK INTER:                  -9.147
REMARK INTRA:                  -0.667
REMARK UNBOUND:                -0.667
REMARK  3 active torsions:
REMARK  status: ('A' for Active; 'I' for Inactive)
REMARK    1  A    between atoms: C_5  and  C_8 
REMARK    2  A    between atoms: C_8  and  N_9 
REMARK    3  A    between atoms: C_13  and  N_14 
ROOT
ATOM      1  N   UNK d   1      23.785  11.607  31.320  0.00  0.00    -0.168 N 
ATOM      2  C   UNK d   1      24.673  11.307  30.324  0.00  0.00     0.167 A 
ATOM      3  C   UNK d   1      24.716  12.326  29.414  0.00  0.00     0.185 A 
ATOM      4  N   UNK d   1      23.853  13.221  29.878  0.00  0.00    -0.044 NA
ATOM      5  C   UNK d   1      23.267  12.806  31.047  0.00  0.00     0.707 A 
ATOM      6  N   UNK d   1      25.511  12.273  28.329  0.00  0.00    -0.286 N 
ATOM      7  C   UNK d   1      26.295  11.183  28.121  0.00  0.00     0.330 A 
ATOM      8  O   UNK d   1      27.017  11.178  27.099  0.00  0.00    -0.246 OA
ATOM      9  N   UNK d   1      26.287  10.155  28.987  0.00  0.00    -0.273 N 
ATOM     10  C   UNK d   1      25.491  10.219  30.065  0.00  0.00     0.280 A 
ATOM     11  O   UNK d   1      25.519   9.237  30.839  0.00  0.00    -0.265 OA
ATOM     12  C   UNK d   1      25.494  13.401  27.414  0.00  0.00     0.163 C 
ATOM     13  H   UNK d   1      26.907   9.344  28.782  0.00  0.00     0.173 HD
ENDROOT
BRANCH   1  14
ATOM     14  C   UNK d   1      23.525  10.719  32.422  0.00  0.00     0.186 C 
BRANCH  14  15
ATOM     15  C   UNK d   1      22.328   9.886  32.332  0.00  0.00    -0.039 A 
ATOM     16  C   UNK d   1      21.112  10.228  32.824  0.00  0.00     0.010 A 
ATOM     17  C   UNK d   1      20.007   9.374  32.759  0.00  0.00     0.024 A 
ATOM     18  C   UNK d   1      20.120   8.142  32.186  0.00  0.00     0.034 A 
ATOM     19 Cl   UNK d   1      18.708   7.110  32.130  0.00  0.00    -0.084 Cl
ATOM     20  C   UNK d   1      21.337   7.755  31.674  0.00  0.00     0.024 A 
ATOM     21  C   UNK d   1      22.410   8.612  31.749  0.00  0.00     0.010 A 
ENDBRANCH  14  15
ENDBRANCH   1  14
BRANCH   5  22
ATOM     22  N   UNK d   1      22.303  13.581  31.729  0.00  0.00    -0.212 N 
ATOM     23  C   UNK d   1      22.731  14.856  32.288  0.00  0.00     0.171 C 
ATOM     24  C   UNK d   1      21.502  15.762  32.093  0.00  0.00     0.290 C 
ATOM     25  N   UNK d   1      20.775  15.421  30.890  0.00  0.00     0.086 N 
ATOM     26  C   UNK d   1      20.148  14.118  30.932  0.00  0.00     0.290 C 
ATOM     27  H   UNK d   1      20.026  16.125  30.786  0.00  0.00     0.316 HD
ATOM     28  C   UNK d   1      20.932  13.303  31.951  0.00  0.00     0.171 C 
ENDBRANCH   5  22
TORSDOF 3
ENDMDL
