/Users/jonathanwahrer/Desktop/Msc/3_Semester/Drug_Design_Praktikum/waehrer_HTS_screening/HTS_experiment/out/docking_results/vina_output/3elj/1940_docked.pdbqt
 OpenBabel03192218443D

 30 33  0  0  1  0  0  0  0  0999 V2000
   23.3250   10.8020   31.9130 C   0  0  1  0  0  3  0  0  0  0  0  0
   23.7420    9.9980   30.7560 N   0  0  0  0  0  0  0  0  0  0  0  0
   22.8350   10.3300   29.7210 C   0  0  0  0  0  0  0  0  0  0  0  0
   22.4790    9.5910   28.7720 O   0  0  0  0  0  0  0  0  0  0  0  0
   22.3870   11.7130   29.9700 C   0  0  0  0  0  0  0  0  0  0  0  0
   21.5820   12.3930   29.2940 O   0  0  0  0  0  0  0  0  0  0  0  0
   23.0880   12.1130   31.1830 C   0  0  0  0  0  0  0  0  0  0  0  0
   23.4280   13.3050   31.5320 C   0  0  0  0  0  0  0  0  0  0  0  0
   24.1130   13.5380   32.7230 O   0  0  0  0  0  1  0  0  0  0  0  0
   24.8530    9.0570   30.7180 C   0  0  0  0  0  2  0  0  0  0  0  0
   24.4690    7.6390   31.0090 C   0  0  0  0  0  2  0  0  0  0  0  0
   23.9790    6.8820   29.9080 N   0  0  0  0  0  4  0  0  0  0  0  0
   24.7270    5.7230   29.5400 C   0  0  0  0  0  2  0  0  0  0  0  0
   24.7560    4.6530   30.6070 C   0  0  0  0  0  2  0  0  0  0  0  0
   23.4660    4.2670   30.9570 O   0  0  0  0  0  0  0  0  0  0  0  0
   22.6580    5.3570   31.2650 C   0  0  0  0  0  2  0  0  0  0  0  0
   22.6110    6.3900   30.1700 C   0  0  0  0  0  2  0  0  0  0  0  0
   23.9340    7.5080   29.0750 H   0  0  0  0  0  0  0  0  0  0  0  0
   21.9850   10.3760   32.3880 C   0  0  0  0  0  0  0  0  0  0  0  0
   21.0220   11.2760   32.7670 C   0  0  0  0  0  3  0  0  0  0  0  0
   19.7680   10.8910   33.2000 C   0  0  0  0  0  3  0  0  0  0  0  0
   19.4540    9.5500   33.2610 C   0  0  0  0  0  0  0  0  0  0  0  0
   17.8940    8.9760   33.7940 Cl  0  0  0  0  0  0  0  0  0  0  0  0
   20.4020    8.6330   32.8870 C   0  0  0  0  0  3  0  0  0  0  0  0
   21.6500    9.0240   32.4550 C   0  0  0  0  0  3  0  0  0  0  0  0
   23.1040   14.4510   30.6880 C   0  0  0  0  0  0  0  0  0  0  0  0
   23.4990   14.7960   29.5140 O   0  0  0  0  0  0  0  0  0  0  0  0
   22.9420   15.9140   29.1440 C   0  0  0  0  0  3  0  0  0  0  0  0
   22.1090   16.3560   30.1400 C   0  0  0  0  0  3  0  0  0  0  0  0
   22.2040   15.4270   31.1380 C   0  0  0  0  0  3  0  0  0  0  0  0
  1 19  1  6  0  0  0
  2  1  1  0  0  0  0
  3  5  1  0  0  0  0
  3  2  1  0  0  0  0
  4  3  2  0  0  0  0
  5  7  1  0  0  0  0
  6  5  2  0  0  0  0
  7  8  2  0  0  0  0
  7  1  1  0  0  0  0
  8  9  1  0  0  0  0
 10  2  1  0  0  0  0
 10 11  1  0  0  0  0
 12 17  1  0  0  0  0
 12 11  1  0  0  0  0
 13 12  1  0  0  0  0
 13 14  1  0  0  0  0
 14 15  1  0  0  0  0
 15 16  1  0  0  0  0
 17 16  1  0  0  0  0
 18 12  1  0  0  0  0
 19 25  2  0  0  0  0
 19 20  1  0  0  0  0
 20 21  2  0  0  0  0
 21 22  1  0  0  0  0
 22 23  1  0  0  0  0
 24 22  2  0  0  0  0
 25 24  1  0  0  0  0
 26 30  2  0  0  0  0
 26  8  1  0  0  0  0
 27 26  1  0  0  0  0
 28 27  1  0  0  0  0
 28 29  2  0  0  0  0
 29 30  1  0  0  0  0
M  END
>  <Pose>
1

>  <Score>
-7.858

$$$$
