MODEL 1
REMARK VINA RESULT:    -7.122      0.000      0.000
REMARK INTER + INTRA:          -7.950
REMARK INTER:                  -7.539
REMARK INTRA:                  -0.411
REMARK UNBOUND:                -0.411
REMARK  1 active torsions:
REMARK  status: ('A' for Active; 'I' for Inactive)
REMARK    1  A    between atoms: C_5  and  N_8 
ROOT
ATOM      1  N   UNK d   1      24.807   6.839  29.726  0.00  0.00    -0.252 N 
ATOM      2  C   UNK d   1      23.431   7.119  30.019  0.00  0.00     0.237 C 
ATOM      3  O   UNK d   1      22.477   6.533  29.400  0.00  0.00    -0.272 OA
ATOM      4  C   UNK d   1      23.352   8.131  31.085  0.00  0.00     0.104 C 
ATOM      5  C   UNK d   1      24.715   8.779  31.038  0.00  0.00     0.104 C 
ATOM      6  C   UNK d   1      24.554  10.234  30.652  0.00  0.00     0.076 C 
ATOM      7  C   UNK d   1      23.834  10.892  31.838  0.00  0.00     0.091 C 
ATOM      8  C   UNK d   1      22.482  10.240  31.890  0.00  0.00     0.133 C 
ATOM      9  O   UNK d   1      21.654  10.615  32.676  0.00  0.00    -0.298 OA
ATOM     10  C   UNK d   1      22.247   9.117  30.918  0.00  0.00     0.076 C 
ATOM     11  C   UNK d   1      22.310   9.760  29.528  0.00  0.00     0.091 C 
ATOM     12  C   UNK d   1      23.668  10.401  29.449  0.00  0.00     0.133 C 
ATOM     13  O   UNK d   1      23.989  11.007  28.463  0.00  0.00    -0.298 OA
ATOM     14  C   UNK d   1      25.533   7.997  30.113  0.00  0.00     0.237 C 
ATOM     15  O   UNK d   1      26.685   8.299  29.726  0.00  0.00    -0.272 OA
ENDROOT
BRANCH   1  16
ATOM     16  C   UNK d   1      25.357   5.652  29.166  0.00  0.00     0.045 A 
ATOM     17  C   UNK d   1      25.375   4.483  29.903  0.00  0.00     0.032 A 
ATOM     18  C   UNK d   1      25.894   3.309  29.405  0.00  0.00     0.026 A 
ATOM     19  C   UNK d   1      26.422   3.251  28.139  0.00  0.00     0.034 A 
ATOM     20 Cl   UNK d   1      27.087   1.755  27.492  0.00  0.00    -0.084 Cl
ATOM     21  C   UNK d   1      26.414   4.411  27.382  0.00  0.00     0.026 A 
ATOM     22  C   UNK d   1      25.891   5.574  27.899  0.00  0.00     0.032 A 
ENDBRANCH   1  16
TORSDOF 1
ENDMDL
