MODEL 1
REMARK VINA RESULT:    -8.452      0.000      0.000
REMARK INTER + INTRA:         -10.796
REMARK INTER:                  -9.934
REMARK INTRA:                  -0.862
REMARK UNBOUND:                -0.862
REMARK  3 active torsions:
REMARK  status: ('A' for Active; 'I' for Inactive)
REMARK    1  A    between atoms: C_5  and  N_8 
REMARK    2  A    between atoms: C_14  and  C_18 
REMARK    3  A    between atoms: C_18  and  C_19 
REMARK       I    between atoms: C_19  and  N_21 
ROOT
ATOM      1  N   UNK d   1      21.746   7.169  30.962  0.00  0.00    -0.252 N 
ATOM      2  C   UNK d   1      22.470   5.921  30.911  0.00  0.00     0.239 C 
ATOM      3  O   UNK d   1      22.224   4.912  31.579  0.00  0.00    -0.272 OA
ATOM      4  C   UNK d   1      23.558   6.024  29.930  0.00  0.00     0.147 C 
ATOM      5  C   UNK d   1      24.905   5.521  30.392  0.00  0.00     0.279 C 
ATOM      6  N   UNK d   1      25.626   6.639  30.951  0.00  0.00     0.114 N 
ATOM      7  C   UNK d   1      24.654   7.699  31.132  0.00  0.00     0.245 C 
ATOM      8  C   UNK d   1      23.792   7.517  29.899  0.00  0.00     0.129 C 
ATOM      9  C   UNK d   1      22.424   8.048  30.049  0.00  0.00     0.238 C 
ATOM     10  O   UNK d   1      22.009   9.054  29.469  0.00  0.00    -0.272 OA
ATOM     11  C   UNK d   1      25.570   5.002  29.147  0.00  0.00     0.017 A 
ATOM     12  C   UNK d   1      25.638   3.642  29.251  0.00  0.00     0.044 A 
ATOM     13  C   UNK d   1      26.154   2.846  28.216  0.00  0.00     0.030 A 
ATOM     14  C   UNK d   1      26.614   3.433  27.056  0.00  0.00     0.002 A 
ATOM     15  C   UNK d   1      26.549   4.796  26.951  0.00  0.00     0.001 A 
ATOM     16  C   UNK d   1      26.038   5.564  27.977  0.00  0.00     0.012 A 
ATOM     17  N   UNK d   1      25.206   3.207  30.531  0.00  0.00    -0.324 N 
ATOM     18  C   UNK d   1      24.856   4.368  31.268  0.00  0.00     0.267 C 
ATOM     19  O   UNK d   1      24.563   4.346  32.482  0.00  0.00    -0.270 OA
ATOM     20  H   UNK d   1      26.032   6.330  31.866  0.00  0.00     0.318 HD
ATOM     21  H   UNK d   1      25.156   2.199  30.874  0.00  0.00     0.169 HD
ENDROOT
BRANCH   7  22
ATOM     22  C   UNK d   1      25.293   9.063  31.155  0.00  0.00     0.139 C 
BRANCH  22  23
ATOM     23  C   UNK d   1      25.605   9.602  29.835  0.00  0.00     0.217 C 
ATOM     24  O   UNK d   1      26.499   9.089  29.136  0.00  0.00    -0.274 OA
ATOM     25  N   UNK d   1      24.890  10.717  29.340  0.00  0.00    -0.370 N 
ATOM     26  H   UNK d   1      24.164  11.244  29.883  0.00  0.00     0.159 HD
ATOM     27  H   UNK d   1      25.039  11.108  28.364  0.00  0.00     0.159 HD
ENDBRANCH  22  23
ENDBRANCH   7  22
BRANCH   1  28
ATOM     28  C   UNK d   1      20.615   7.502  31.715  0.00  0.00     0.045 A 
ATOM     29  C   UNK d   1      19.532   6.677  31.849  0.00  0.00     0.032 A 
ATOM     30  C   UNK d   1      18.409   7.007  32.600  0.00  0.00     0.026 A 
ATOM     31  C   UNK d   1      18.367   8.217  33.249  0.00  0.00     0.034 A 
ATOM     32 Cl   UNK d   1      16.961   8.643  34.209  0.00  0.00    -0.084 Cl
ATOM     33  C   UNK d   1      19.426   9.064  33.136  0.00  0.00     0.026 A 
ATOM     34  C   UNK d   1      20.543   8.705  32.373  0.00  0.00     0.032 A 
ENDBRANCH   1  28
TORSDOF 3
ENDMDL
