MODEL 1
REMARK VINA RESULT:    -8.334      0.000      0.000
REMARK INTER + INTRA:         -10.589
REMARK INTER:                 -10.283
REMARK INTRA:                  -0.306
REMARK UNBOUND:                -0.306
REMARK  4 active torsions:
REMARK  status: ('A' for Active; 'I' for Inactive)
REMARK    1  A    between atoms: N_15  and  C_16 
REMARK    2  A    between atoms: C_16  and  C_17 
REMARK       I    between atoms: C_17  and  N_19 
REMARK    3  A    between atoms: N_19  and  C_20 
REMARK    4  A    between atoms: C_20  and  C_21 
ROOT
ATOM      1 Cl   UNK d   1      24.697   5.532  30.189  0.00  0.00    -0.084 Cl
ATOM      2  C   UNK d   1      23.200   6.104  30.898  0.00  0.00     0.036 A 
ATOM      3  C   UNK d   1      23.037   7.411  31.294  0.00  0.00     0.054 A 
ATOM      4  C   UNK d   1      21.838   7.855  31.859  0.00  0.00     0.055 A 
ATOM      5  C   UNK d   1      20.807   6.939  32.011  0.00  0.00     0.037 A 
ATOM      6  C   UNK d   1      20.954   5.630  31.620  0.00  0.00     0.019 A 
ATOM      7  C   UNK d   1      22.137   5.207  31.069  0.00  0.00     0.025 A 
ATOM      8  C   UNK d   1      19.524   7.361  32.601  0.00  0.00     0.141 A 
ATOM      9  N   UNK d   1      18.428   6.730  32.851  0.00  0.00    -0.270 NA
ATOM     10  C   UNK d   1      17.428   7.576  33.442  0.00  0.00     0.171 A 
ATOM     11  C   UNK d   1      18.089   8.917  33.537  0.00  0.00     0.157 A 
ATOM     12  N   UNK d   1      19.405   8.715  32.992  0.00  0.00    -0.281 N 
ATOM     13  C   UNK d   1      20.481   9.630  32.822  0.00  0.00     0.331 A 
ATOM     14  O   UNK d   1      20.394  10.843  33.163  0.00  0.00    -0.246 OA
ATOM     15  N   UNK d   1      21.734   9.220  32.246  0.00  0.00    -0.290 N 
ENDROOT
BRANCH  15  16
ATOM     16  C   UNK d   1      22.822  10.174  32.082  0.00  0.00     0.236 C 
BRANCH  16  17
ATOM     17  C   UNK d   1      22.457  11.240  31.120  0.00  0.00     0.236 C 
ATOM     18  O   UNK d   1      22.396  10.943  29.902  0.00  0.00    -0.272 OA
ATOM     19  N   UNK d   1      22.175  12.571  31.510  0.00  0.00    -0.359 N 
ATOM     20  H   UNK d   1      22.228  12.801  32.523  0.00  0.00     0.162 HD
BRANCH  19  21
ATOM     21  C   UNK d   1      21.821  13.590  30.552  0.00  0.00     0.127 C 
BRANCH  21  22
ATOM     22  C   UNK d   1      22.389  14.918  30.978  0.00  0.00     0.003 A 
ATOM     23  C   UNK d   1      22.502  15.234  32.428  0.00  0.00     0.007 A 
ATOM     24  C   UNK d   1      21.444  15.888  31.624  0.00  0.00     0.007 A 
ENDBRANCH  21  22
ENDBRANCH  19  21
ENDBRANCH  16  17
ENDBRANCH  15  16
TORSDOF 4
ENDMDL
