/Users/jonathanwahrer/Desktop/Msc/3_Semester/Drug_Design_Praktikum/waehrer_HTS_screening/HTS_experiment/out/docking_results/vina_output/3elj/1956_docked.pdbqt
 OpenBabel03192218443D

 35 38  0  0  1  0  0  0  0  0999 V2000
   24.0740   11.1730   31.6090 C   0  0  0  0  0  0  0  0  0  0  0  0
   24.7870   10.8030   30.5590 C   0  0  0  0  0  0  0  0  0  0  0  0
   25.6850    9.5930   30.4960 C   0  0  2  0  0  3  0  0  0  0  0  0
   26.4810    9.7680   29.3150 N   0  0  0  0  0  0  0  0  0  0  0  0
   25.9690   10.8240   28.5160 C   0  0  0  0  0  0  0  0  0  0  0  0
   26.3380   11.1450   27.3770 O   0  0  0  0  0  0  0  0  0  0  0  0
   24.9000   11.4780   29.3060 C   0  0  0  0  0  0  0  0  0  0  0  0
   24.2290   12.4600   28.9080 O   0  0  0  0  0  0  0  0  0  0  0  0
   24.1860   10.3500   32.7560 O   0  0  0  0  0  1  0  0  0  0  0  0
   24.7890    8.4060   30.4430 C   0  0  0  0  0  0  0  0  0  0  0  0
   25.0860    7.2930   31.1770 C   0  0  0  0  0  3  0  0  0  0  0  0
   24.2510    6.2130   31.1330 C   0  0  0  0  0  3  0  0  0  0  0  0
   23.1080    6.2100   30.3640 C   0  0  0  0  0  0  0  0  0  0  0  0
   22.8060    7.3350   29.6200 C   0  0  0  0  0  3  0  0  0  0  0  0
   23.6570    8.4300   29.6680 C   0  0  0  0  0  3  0  0  0  0  0  0
   22.2630    5.1050   30.3240 O   0  0  0  0  0  0  0  0  0  0  0  0
   20.9060    5.2770   30.7570 C   0  0  0  0  0  2  0  0  0  0  0  0
   20.9100    5.7090   32.2210 C   0  0  0  0  0  2  0  0  0  0  0  0
   19.9770    6.9060   32.3320 C   0  0  0  0  0  1  0  0  0  0  0  0
   27.6660    8.9860   28.9770 C   0  0  0  0  0  2  0  0  0  0  0  0
   27.3000    7.9070   28.0180 C   0  0  0  0  0  2  0  0  0  0  0  0
   27.3080    6.5850   28.6660 N   0  0  0  0  0  4  0  0  0  0  0  0
   28.6210    6.0330   28.5280 C   0  0  0  0  0  2  0  0  0  0  0  0
   28.6400    4.5320   28.8050 C   0  0  0  0  0  2  0  0  0  0  0  0
   27.7320    3.9560   27.8970 O   0  0  0  0  0  0  0  0  0  0  0  0
   26.4650    4.3290   28.2950 C   0  0  0  0  0  2  0  0  0  0  0  0
   26.2760    5.8070   28.0160 C   0  0  0  0  0  2  0  0  0  0  0  0
   27.0760    6.6770   29.6890 H   0  0  0  0  0  0  0  0  0  0  0  0
   23.2220   12.3410   31.6120 C   0  0  0  0  0  0  0  0  0  0  0  0
   21.8560   12.2020   31.3290 C   0  0  0  0  0  3  0  0  0  0  0  0
   20.9970   13.2800   31.2740 C   0  0  0  0  0  3  0  0  0  0  0  0
   21.4560   14.5550   31.4970 C   0  0  0  0  0  0  0  0  0  0  0  0
   20.4200   15.9630   31.4430 Cl  0  0  0  0  0  0  0  0  0  0  0  0
   22.7830   14.7250   31.7740 C   0  0  0  0  0  3  0  0  0  0  0  0
   23.6530   13.6290   31.8290 C   0  0  0  0  0  3  0  0  0  0  0  0
  1 29  1  0  0  0  0
  1  9  1  0  0  0  0
  2  1  2  0  0  0  0
  3 10  1  6  0  0  0
  3  2  1  0  0  0  0
  4  3  1  0  0  0  0
  5  7  1  0  0  0  0
  5  4  1  0  0  0  0
  6  5  2  0  0  0  0
  7  2  1  0  0  0  0
  8  7  2  0  0  0  0
 10 11  1  0  0  0  0
 12 11  2  0  0  0  0
 13 12  1  0  0  0  0
 14 15  1  0  0  0  0
 14 13  2  0  0  0  0
 15 10  2  0  0  0  0
 16 13  1  0  0  0  0
 16 17  1  0  0  0  0
 17 18  1  0  0  0  0
 18 19  1  0  0  0  0
 20  4  1  0  0  0  0
 21 22  1  0  0  0  0
 21 20  1  0  0  0  0
 22 28  1  0  0  0  0
 23 22  1  0  0  0  0
 23 24  1  0  0  0  0
 25 26  1  0  0  0  0
 25 24  1  0  0  0  0
 27 26  1  0  0  0  0
 27 22  1  0  0  0  0
 29 35  1  0  0  0  0
 30 29  2  0  0  0  0
 31 30  1  0  0  0  0
 31 32  2  0  0  0  0
 32 34  1  0  0  0  0
 33 32  1  0  0  0  0
 34 35  2  0  0  0  0
M  END
>  <Pose>
1

>  <Score>
-7.139

$$$$
