MODEL 1
REMARK VINA RESULT:    -7.139      0.000      0.000
REMARK INTER + INTRA:         -12.075
REMARK INTER:                 -10.478
REMARK INTRA:                  -1.597
REMARK UNBOUND:                -1.597
REMARK  8 active torsions:
REMARK  status: ('A' for Active; 'I' for Inactive)
REMARK    1  A    between atoms: C_5  and  C_8 
REMARK    2  A    between atoms: C_10  and  C_24 
REMARK    3  A    between atoms: N_11  and  C_16 
REMARK    4  A    between atoms: C_16  and  C_17 
REMARK    5  A    between atoms: C_17  and  N_18 
REMARK    6  A    between atoms: C_27  and  O_30 
REMARK    7  A    between atoms: O_30  and  C_31 
REMARK    8  A    between atoms: C_31  and  C_32 
ROOT
ATOM      1  C   UNK d   1      24.074  11.173  31.609  0.00  0.00     0.130 C 
ATOM      2  C   UNK d   1      24.787  10.803  30.559  0.00  0.00     0.062 C 
ATOM      3  C   UNK d   1      25.685   9.593  30.496  0.00  0.00     0.161 C 
ATOM      4  N   UNK d   1      26.481   9.768  29.315  0.00  0.00    -0.331 N 
ATOM      5  C   UNK d   1      25.969  10.824  28.516  0.00  0.00     0.295 C 
ATOM      6  O   UNK d   1      26.338  11.145  27.377  0.00  0.00    -0.264 OA
ATOM      7  C   UNK d   1      24.900  11.478  29.306  0.00  0.00     0.250 C 
ATOM      8  O   UNK d   1      24.229  12.460  28.908  0.00  0.00    -0.282 OA
ATOM      9  O   UNK d   1      24.186  10.350  32.756  0.00  0.00    -0.190 OA
ENDROOT
BRANCH   3  10
ATOM     10  C   UNK d   1      24.789   8.406  30.443  0.00  0.00    -0.030 A 
ATOM     11  C   UNK d   1      25.086   7.293  31.177  0.00  0.00     0.012 A 
ATOM     12  C   UNK d   1      24.251   6.213  31.133  0.00  0.00     0.037 A 
ATOM     13  C   UNK d   1      23.108   6.210  30.364  0.00  0.00     0.068 A 
ATOM     14  C   UNK d   1      22.806   7.335  29.620  0.00  0.00     0.037 A 
ATOM     15  C   UNK d   1      23.657   8.430  29.668  0.00  0.00     0.012 A 
BRANCH  13  16
ATOM     16  O   UNK d   1      22.263   5.105  30.324  0.00  0.00    -0.351 OA
BRANCH  16  17
ATOM     17  C   UNK d   1      20.906   5.277  30.757  0.00  0.00     0.175 C 
BRANCH  17  18
ATOM     18  C   UNK d   1      20.910   5.709  32.221  0.00  0.00     0.022 C 
ATOM     19  C   UNK d   1      19.977   6.906  32.332  0.00  0.00     0.007 C 
ENDBRANCH  17  18
ENDBRANCH  16  17
ENDBRANCH  13  16
ENDBRANCH   3  10
BRANCH   4  20
ATOM     20  C   UNK d   1      27.666   8.986  28.977  0.00  0.00     0.155 C 
BRANCH  20  21
ATOM     21  C   UNK d   1      27.300   7.907  28.018  0.00  0.00     0.255 C 
BRANCH  21  22
ATOM     22  N   UNK d   1      27.308   6.585  28.666  0.00  0.00    -0.066 N 
ATOM     23  C   UNK d   1      28.621   6.033  28.528  0.00  0.00     0.261 C 
ATOM     24  C   UNK d   1      28.640   4.532  28.805  0.00  0.00     0.195 C 
ATOM     25  O   UNK d   1      27.732   3.956  27.897  0.00  0.00    -0.388 OA
ATOM     26  C   UNK d   1      26.465   4.329  28.295  0.00  0.00     0.195 C 
ATOM     27  C   UNK d   1      26.276   5.807  28.016  0.00  0.00     0.261 C 
ATOM     28  H   UNK d   1      27.076   6.677  29.689  0.00  0.00     0.280 HD
ENDBRANCH  21  22
ENDBRANCH  20  21
ENDBRANCH   4  20
BRANCH   1  29
ATOM     29  C   UNK d   1      23.222  12.341  31.612  0.00  0.00     0.001 A 
ATOM     30  C   UNK d   1      21.856  12.202  31.329  0.00  0.00     0.016 A 
ATOM     31  C   UNK d   1      20.997  13.280  31.274  0.00  0.00     0.024 A 
ATOM     32  C   UNK d   1      21.456  14.555  31.497  0.00  0.00     0.034 A 
ATOM     33 Cl   UNK d   1      20.420  15.963  31.443  0.00  0.00    -0.084 Cl
ATOM     34  C   UNK d   1      22.783  14.725  31.774  0.00  0.00     0.024 A 
ATOM     35  C   UNK d   1      23.653  13.629  31.829  0.00  0.00     0.016 A 
ENDBRANCH   1  29
TORSDOF 8
ENDMDL
