MODEL 1
REMARK VINA RESULT:    -8.341      0.000      0.000
REMARK INTER + INTRA:         -12.645
REMARK INTER:                 -11.511
REMARK INTRA:                  -1.134
REMARK UNBOUND:                -1.134
REMARK  7 active torsions:
REMARK  status: ('A' for Active; 'I' for Inactive)
REMARK    1  A    between atoms: C_5  and  C_8 
REMARK    2  A    between atoms: C_8  and  O_9 
REMARK    3  A    between atoms: C_8  and  C_10 
REMARK    4  A    between atoms: N_17  and  C_20 
REMARK    5  A    between atoms: C_20  and  C_21 
REMARK    6  A    between atoms: C_21  and  C_22 
REMARK    7  A    between atoms: C_22  and  O_23 
ROOT
ATOM      1  C   UNK d   1      23.662   6.445  30.938  0.00  0.00     0.269 C 
ATOM      2  N   UNK d   1      22.654   6.762  31.941  0.00  0.00     0.116 N 
ATOM      3  C   UNK d   1      22.111   8.059  31.591  0.00  0.00     0.279 A 
ATOM      4  C   UNK d   1      22.176   8.047  30.091  0.00  0.00     0.147 C 
ATOM      5  C   UNK d   1      23.436   7.314  29.758  0.00  0.00     0.131 C 
ATOM      6  C   UNK d   1      24.483   8.358  29.585  0.00  0.00     0.233 C 
ATOM      7  O   UNK d   1      25.723   8.175  29.552  0.00  0.00    -0.272 OA
ATOM      8  N   UNK d   1      23.786   9.618  29.463  0.00  0.00    -0.287 N 
ATOM      9  C   UNK d   1      22.395   9.370  29.481  0.00  0.00     0.234 C 
ATOM     10  O   UNK d   1      21.485  10.126  29.061  0.00  0.00    -0.272 OA
ATOM     11  C   UNK d   1      20.721   8.231  32.078  0.00  0.00     0.017 A 
ATOM     12  C   UNK d   1      20.738   9.286  32.959  0.00  0.00     0.044 A 
ATOM     13  C   UNK d   1      19.552   9.669  33.570  0.00  0.00     0.030 A 
ATOM     14  C   UNK d   1      18.395   8.987  33.277  0.00  0.00     0.002 A 
ATOM     15  C   UNK d   1      18.366   7.924  32.391  0.00  0.00     0.001 A 
ATOM     16  C   UNK d   1      19.552   7.553  31.792  0.00  0.00     0.012 A 
ATOM     17  N   UNK d   1      22.067   9.823  33.095  0.00  0.00    -0.324 N 
ATOM     18  C   UNK d   1      22.920   9.066  32.256  0.00  0.00     0.267 A 
ATOM     19  O   UNK d   1      24.140   9.268  32.147  0.00  0.00    -0.270 OA
ATOM     20  H   UNK d   1      23.065   6.757  32.881  0.00  0.00     0.318 HD
ATOM     21  H   UNK d   1      22.295  10.631  33.718  0.00  0.00     0.169 HD
ENDROOT
BRANCH   1  22
ATOM     22  C   UNK d   1      23.520   4.972  30.665  0.00  0.00     0.185 C 
BRANCH  22  23
ATOM     23  C   UNK d   1      24.544   4.146  31.366  0.00  0.00    -0.028 A 
ATOM     24  C   UNK d   1      25.902   4.358  31.130  0.00  0.00     0.011 A 
ATOM     25  C   UNK d   1      26.863   3.600  31.746  0.00  0.00     0.024 A 
ATOM     26  C   UNK d   1      26.533   2.590  32.630  0.00  0.00     0.034 A 
ATOM     27 Cl   UNK d   1      27.753   1.611  33.426  0.00  0.00    -0.084 Cl
ATOM     28  C   UNK d   1      25.187   2.399  32.846  0.00  0.00     0.024 A 
ATOM     29  C   UNK d   1      24.204   3.145  32.242  0.00  0.00     0.011 A 
ENDBRANCH  22  23
BRANCH  22  30
ATOM     30  O   UNK d   1      22.275   4.470  30.944  0.00  0.00    -0.389 OA
ATOM     31  H   UNK d   1      21.953   3.983  30.143  0.00  0.00     0.210 HD
ENDBRANCH  22  30
ENDBRANCH   1  22
BRANCH   8  32
ATOM     32  C   UNK d   1      24.414  10.901  29.354  0.00  0.00     0.137 C 
BRANCH  32  33
ATOM     33  C   UNK d   1      24.813  11.540  30.631  0.00  0.00     0.046 C 
BRANCH  33  34
ATOM     34  C   UNK d   1      24.003  12.705  31.081  0.00  0.00     0.168 C 
BRANCH  34  35
ATOM     35  O   UNK d   1      22.700  12.371  31.424  0.00  0.00    -0.396 OA
ATOM     36  C   UNK d   1      21.805  13.221  30.741  0.00  0.00     0.201 C 
ENDBRANCH  34  35
ENDBRANCH  33  34
ENDBRANCH  32  33
ENDBRANCH   8  32
TORSDOF 7
ENDMDL
