/Users/jonathanwahrer/Desktop/Msc/3_Semester/Drug_Design_Praktikum/waehrer_HTS_screening/HTS_experiment/out/docking_results/vina_output/3elj/1958_docked.pdbqt
 OpenBabel03192218453D

 28 31  0  0  1  0  0  0  0  0999 V2000
   23.7380    9.7710   30.6680 C   0  0  0  0  0  0  0  0  0  0  0  0
   24.4920   10.1470   29.7050 O   0  0  0  0  0  0  0  0  0  0  0  0
   22.9140    8.6410   30.5650 N   0  0  0  0  0  0  0  0  0  0  0  0
   22.0700    8.2150   31.6350 C   0  0  0  0  0  2  0  0  0  0  0  0
   21.7650    6.7430   31.6370 C   0  0  0  0  0  2  0  0  0  0  0  0
   22.8320    5.9990   30.9250 C   0  0  2  0  0  3  0  0  0  0  0  0
   23.4200    6.5220   29.7880 C   0  0  0  0  0  0  0  0  0  0  0  0
   24.3790    5.8560   29.1350 N   0  0  0  0  0  0  0  0  0  0  0  0
   24.8320    4.6490   29.5360 C   0  0  2  0  0  3  0  0  0  0  0  0
   24.2600    4.1330   30.6500 N   0  0  0  0  0  0  0  0  0  0  0  0
   23.2930    4.7640   31.3400 C   0  0  0  0  0  0  0  0  0  0  0  0
   22.9120    7.8750   29.3490 C   0  0  0  0  0  2  0  0  0  0  0  0
   23.7790   10.6020   31.9140 C   0  0  0  0  0  2  0  0  0  0  0  0
   23.0350   11.8590   31.7410 C   0  0  0  0  0  0  0  0  0  0  0  0
   23.6220   13.0450   31.3570 C   0  0  0  0  0  3  0  0  0  0  0  0
   22.8990   14.2080   31.2050 C   0  0  0  0  0  3  0  0  0  0  0  0
   21.5280   14.2130   31.4440 C   0  0  0  0  0  0  0  0  0  0  0  0
   20.5950   15.6820   31.2560 Cl  0  0  0  0  0  0  0  0  0  0  0  0
   20.9540   13.0170   31.8290 C   0  0  0  0  0  3  0  0  0  0  0  0
   21.6780   11.8560   31.9800 C   0  0  0  0  0  3  0  0  0  0  0  0
   22.7280    4.2070   32.4780 O   0  0  0  0  0  0  0  0  0  0  0  0
   22.9840    4.5160   33.4190 H   0  0  0  0  0  0  0  0  0  0  0  0
   25.8450    3.9920   28.8160 N   0  0  0  0  0  0  0  0  0  0  0  0
   26.2570    4.4710   27.5300 C   0  0  0  0  0  2  0  0  0  0  0  0
   27.6800    3.9390   27.3100 C   0  0  0  0  0  2  0  0  0  0  0  0
   27.6980    2.5670   27.2800 O   0  0  0  0  0  0  0  0  0  0  0  0
   27.0160    1.9330   28.2820 C   0  0  0  0  0  2  0  0  0  0  0  0
   26.4770    2.8280   29.3630 C   0  0  0  0  0  2  0  0  0  0  0  0
  1 13  1  0  0  0  0
  2  1  2  0  0  0  0
  3  1  1  0  0  0  0
  3  4  1  0  0  0  0
  4  5  1  0  0  0  0
  6 11  1  0  0  0  0
  6  5  1  6  0  0  0
  7  6  1  0  0  0  0
  8  9  1  0  0  0  0
  8  7  2  0  0  0  0
  9 23  1  1  0  0  0
  9 10  1  0  0  0  0
 10 11  2  0  0  0  0
 11 21  1  0  0  0  0
 12  7  1  0  0  0  0
 12  3  1  0  0  0  0
 14 13  1  0  0  0  0
 14 20  1  0  0  0  0
 15 14  2  0  0  0  0
 16 15  1  0  0  0  0
 16 17  2  0  0  0  0
 17 19  1  0  0  0  0
 18 17  1  0  0  0  0
 19 20  2  0  0  0  0
 21 22  1  0  0  0  0
 23 28  1  0  0  0  0
 24 23  1  0  0  0  0
 25 24  1  0  0  0  0
 26 25  1  0  0  0  0
 26 27  1  0  0  0  0
 27 28  1  0  0  0  0
M  END
>  <Pose>
1

>  <Score>
-8.140

$$$$
