MODEL 1
REMARK VINA RESULT:    -7.818      0.000      0.000
REMARK INTER + INTRA:         -10.504
REMARK INTER:                  -9.647
REMARK INTRA:                  -0.858
REMARK UNBOUND:                -0.858
REMARK  4 active torsions:
REMARK  status: ('A' for Active; 'I' for Inactive)
REMARK    1  A    between atoms: C_5  and  C_8 
REMARK    2  A    between atoms: C_8  and  C_9 
REMARK       I    between atoms: C_9  and  N_11 
REMARK    3  A    between atoms: N_14  and  C_17 
REMARK    4  A    between atoms: C_21  and  N_23 
ROOT
ATOM      1  C   UNK d   1      23.989   9.514  29.811  0.00  0.00     0.224 C 
ATOM      2  O   UNK d   1      23.200   9.037  28.954  0.00  0.00    -0.273 OA
ATOM      3  N   UNK d   1      24.032  10.907  29.985  0.00  0.00    -0.349 N 
ATOM      4  C   UNK d   1      23.176  11.799  29.183  0.00  0.00     0.145 C 
ATOM      5  C   UNK d   1      22.706  12.934  30.080  0.00  0.00     0.143 C 
ATOM      6  N   UNK d   1      22.696  12.417  31.434  0.00  0.00    -0.376 N 
ATOM      7  C   UNK d   1      24.005  12.220  32.034  0.00  0.00     0.143 C 
ATOM      8  C   UNK d   1      24.887  11.596  30.940  0.00  0.00     0.145 C 
ENDROOT
BRANCH   6   9
ATOM      9  C   UNK d   1      21.489  12.111  32.115  0.00  0.00     0.053 A 
ATOM     10  C   UNK d   1      20.656  13.130  32.539  0.00  0.00     0.170 A 
ATOM     11  N   UNK d   1      19.507  12.808  33.203  0.00  0.00    -0.158 NA
ATOM     12  N   UNK d   1      19.152  11.565  33.462  0.00  0.00    -0.132 NA
ATOM     13  C   UNK d   1      19.929  10.508  33.070  0.00  0.00     0.150 A 
ATOM     14  C   UNK d   1      21.074  10.834  32.408  0.00  0.00     0.083 A 
BRANCH  13  15
ATOM     15  N   UNK d   1      19.490   9.203  33.383  0.00  0.00    -0.360 N 
ATOM     16  C   UNK d   1      20.432   8.104  33.492  0.00  0.00     0.151 C 
ATOM     17  C   UNK d   1      19.898   6.867  32.769  0.00  0.00     0.187 C 
ATOM     18  O   UNK d   1      18.580   6.616  33.097  0.00  0.00    -0.388 OA
ATOM     19  C   UNK d   1      17.819   7.691  32.665  0.00  0.00     0.187 C 
ATOM     20  C   UNK d   1      18.105   8.878  33.603  0.00  0.00     0.151 C 
ENDBRANCH  13  15
ENDBRANCH   6   9
BRANCH   1  21
ATOM     21  C   UNK d   1      24.816   8.564  30.578  0.00  0.00     0.141 C 
BRANCH  21  22
ATOM     22  C   UNK d   1      25.428   7.537  29.693  0.00  0.00    -0.049 A 
ATOM     23  C   UNK d   1      24.808   6.297  29.562  0.00  0.00     0.009 A 
ATOM     24  C   UNK d   1      25.344   5.315  28.748  0.00  0.00     0.024 A 
ATOM     25  C   UNK d   1      26.523   5.551  28.038  0.00  0.00     0.034 A 
ATOM     26 Cl   UNK d   1      27.203   4.324  27.013  0.00  0.00    -0.084 Cl
ATOM     27  C   UNK d   1      27.122   6.780  28.180  0.00  0.00     0.024 A 
ATOM     28  C   UNK d   1      26.583   7.771  29.000  0.00  0.00     0.009 A 
ENDBRANCH  21  22
ENDBRANCH   1  21
TORSDOF 4
ENDMDL
