/Users/jonathanwahrer/Desktop/Msc/3_Semester/Drug_Design_Praktikum/waehrer_HTS_screening/HTS_experiment/out/docking_results/vina_output/3elj/1966_docked.pdbqt
 OpenBabel03192218453D

 27 30  0  0  0  0  0  0  0  0999 V2000
   20.0070    6.9090   32.7720 C   0  0  0  0  0  0  0  0  0  0  0  0
   19.0240    6.5890   33.5470 O   0  0  0  0  0  0  0  0  0  0  0  0
   20.7660    6.0020   32.0760 N   0  0  0  0  0  0  0  0  0  0  0  0
   21.5220    5.1000   31.3860 C   0  0  0  0  0  2  0  0  0  0  0  0
   20.0380    4.9700   32.5990 H   0  0  0  0  0  0  0  0  0  0  0  0
   20.1860    8.3860   32.7470 C   0  0  0  0  0  0  0  0  0  0  0  0
   21.2380    9.1200   32.2580 C   0  0  0  0  0  0  0  0  0  0  0  0
   22.3720    8.6490   31.6850 F   0  0  0  0  0  0  0  0  0  0  0  0
   21.0100   10.4590   32.4240 N   0  0  0  0  0  0  0  0  0  0  0  0
   19.8090   10.5430   33.0180 C   0  0  0  0  0  0  0  0  0  0  0  0
   21.7300   11.5490   32.1130 C   0  0  0  0  0  3  0  0  0  0  0  0
   19.3200    9.3070   33.2100 N   0  0  0  0  0  0  0  0  0  0  0  0
   19.3350   11.8000   33.3030 C   0  0  0  0  0  3  0  0  0  0  0  0
   20.0520   12.9580   32.9970 C   0  0  0  0  0  3  0  0  0  0  0  0
   21.2730   12.8330   32.3900 C   0  0  0  0  0  0  0  0  0  0  0  0
   22.2310   14.2530   31.9710 Cl  0  0  0  0  0  0  0  0  0  0  0  0
   22.6260    5.6850   30.5420 C   0  0  0  0  0  0  0  0  0  0  0  0
   23.8960    5.2710   30.5220 N   0  0  0  0  0  0  0  0  0  0  0  0
   24.5530    6.0260   29.6580 N   0  0  0  0  0  0  0  0  0  0  0  0
   23.7390    6.9100   29.1240 N   0  0  0  0  0  0  0  0  0  0  0  0
   22.5460    6.6920   29.6780 N   0  0  0  0  0  0  0  0  0  0  0  0
   24.3690    4.1850   31.3210 C   0  0  0  0  0  0  0  0  0  0  0  0
   25.6080    3.6340   31.0110 C   0  0  0  0  0  3  0  0  0  0  0  0
   26.1170    2.5650   31.7370 C   0  0  0  0  0  3  0  0  0  0  0  0
   25.4110    2.0140   32.7870 C   0  0  0  0  0  3  0  0  0  0  0  0
   24.1840    2.5650   33.0900 C   0  0  0  0  0  3  0  0  0  0  0  0
   23.6730    3.6300   32.3680 C   0  0  0  0  0  3  0  0  0  0  0  0
  1  2  2  0  0  0  0
  3  5  1  0  0  0  0
  3  1  1  0  0  0  0
  4  3  1  0  0  0  0
  6  1  1  0  0  0  0
  6 12  1  0  0  0  0
  7  9  1  0  0  0  0
  7  6  2  0  0  0  0
  8  7  1  0  0  0  0
  9 10  1  0  0  0  0
 10 12  2  0  0  0  0
 10 13  1  0  0  0  0
 11 15  2  0  0  0  0
 11  9  1  0  0  0  0
 14 13  2  0  0  0  0
 15 14  1  0  0  0  0
 16 15  1  0  0  0  0
 17  4  1  0  0  0  0
 18 17  1  0  0  0  0
 18 22  1  0  0  0  0
 19 18  1  0  0  0  0
 20 19  2  0  0  0  0
 20 21  1  0  0  0  0
 21 17  2  0  0  0  0
 22 27  1  0  0  0  0
 23 22  2  0  0  0  0
 23 24  1  0  0  0  0
 24 25  2  0  0  0  0
 25 26  1  0  0  0  0
 27 26  2  0  0  0  0
M  END
>  <Pose>
1

>  <Score>
-9.334

$$$$
