/Users/jonathanwahrer/Desktop/Msc/3_Semester/Drug_Design_Praktikum/waehrer_HTS_screening/HTS_experiment/out/docking_results/vina_output/3elj/1969_docked.pdbqt
 OpenBabel03192218453D

 26 29  0  0  0  0  0  0  0  0999 V2000
   23.1990   12.9070   31.4340 C   0  0  0  0  0  0  0  0  0  0  0  0
   24.3370   13.1890   32.1830 O   0  0  0  0  0  0  0  0  0  0  0  0
   22.2680   13.8810   31.5760 N   0  0  0  0  0  0  0  0  0  0  0  0
   20.9990   14.0910   30.9460 C   0  0  0  0  0  2  0  0  0  0  0  0
   20.6610   15.5960   30.9720 C   0  0  0  0  0  2  0  0  0  0  0  0
   21.9730   16.2510   30.8680 N   0  0  0  0  0  0  0  0  0  0  0  0
   22.8530   16.2050   31.9880 C   0  0  0  0  0  2  0  0  0  0  0  0
   22.5770   14.8890   32.6400 C   0  0  0  0  0  2  0  0  0  0  0  0
   23.5490   11.6420   30.8130 C   0  0  0  0  0  0  0  0  0  0  0  0
   23.8410   10.5840   30.2920 N   0  0  0  0  0  0  0  0  0  0  0  0
   23.4520    9.4670   30.3600 N   0  0  0  0  0  0  0  0  0  0  0  0
   22.4600    9.5000   31.2250 N   0  0  0  0  0  0  0  0  0  0  0  0
   22.3720   10.7410   31.6220 C   0  0  0  0  0  3  0  0  0  0  0  0
   21.7300    8.2980   31.5630 C   0  0  0  0  0  0  0  0  0  0  0  0
   20.5000    8.2730   32.1240 C   0  0  0  0  0  3  0  0  0  0  0  0
   19.8600    7.0740   32.4100 C   0  0  0  0  0  0  0  0  0  0  0  0
   18.2890    6.9600   33.1390 Cl  0  0  0  0  0  0  0  0  0  0  0  0
   20.5090    5.8320   32.1120 C   0  0  0  0  0  3  0  0  0  0  0  0
   21.7360    5.8770   31.5470 C   0  0  0  0  0  3  0  0  0  0  0  0
   22.3100    7.0760   31.2910 C   0  0  0  0  0  3  0  0  0  0  0  0
   22.3720   16.7960   29.6530 C   0  0  0  0  0  0  0  0  0  0  0  0
   23.2050   16.0820   28.7830 N   0  0  0  0  0  0  0  0  0  0  0  0
   23.6110   16.4800   27.6290 C   0  0  0  0  0  3  0  0  0  0  0  0
   23.2320   17.7220   27.0970 C   0  0  0  0  0  3  0  0  0  0  0  0
   22.4100   18.4410   27.9560 C   0  0  0  0  0  3  0  0  0  0  0  0
   22.0440   17.9920   29.0970 N   0  0  0  0  0  0  0  0  0  0  0  0
  1  3  1  0  0  0  0
  1  2  2  0  0  0  0
  3  8  1  0  0  0  0
  4  5  1  0  0  0  0
  4  3  1  0  0  0  0
  6  5  1  0  0  0  0
  6  7  1  0  0  0  0
  7  8  1  0  0  0  0
  9  1  1  0  0  0  0
  9 13  2  0  0  0  0
 10 11  2  0  0  0  0
 10  9  1  0  0  0  0
 11 12  1  0  0  0  0
 12 14  1  0  0  0  0
 12 13  1  0  0  0  0
 14 15  1  0  0  0  0
 15 16  2  0  0  0  0
 16 17  1  0  0  0  0
 18 16  1  0  0  0  0
 19 18  2  0  0  0  0
 20 19  1  0  0  0  0
 20 14  2  0  0  0  0
 21  6  1  0  0  0  0
 22 21  2  0  0  0  0
 23 22  1  0  0  0  0
 24 23  2  0  0  0  0
 24 25  1  0  0  0  0
 25 26  2  0  0  0  0
 26 21  1  0  0  0  0
M  END
>  <Pose>
1

>  <Score>
-9.128

$$$$
