MODEL 1
REMARK VINA RESULT:    -9.128      0.000      0.000
REMARK INTER + INTRA:         -11.401
REMARK INTER:                 -10.729
REMARK INTRA:                  -0.672
REMARK UNBOUND:                -0.672
REMARK  3 active torsions:
REMARK  status: ('A' for Active; 'I' for Inactive)
REMARK    1  A    between atoms: C_4  and  N_8 
REMARK    2  A    between atoms: C_11  and  C_13 
REMARK    3  A    between atoms: N_18  and  C_21 
ROOT
ATOM      1  C   UNK d   1      23.199  12.907  31.434  0.00  0.00     0.209 C 
ATOM      2  O   UNK d   1      24.337  13.189  32.183  0.00  0.00    -0.170 OA
ATOM      3  N   UNK d   1      22.268  13.881  31.576  0.00  0.00    -0.354 N 
ATOM      4  C   UNK d   1      20.999  14.091  30.946  0.00  0.00     0.145 C 
ATOM      5  C   UNK d   1      20.661  15.596  30.972  0.00  0.00     0.161 C 
ATOM      6  N   UNK d   1      21.973  16.251  30.868  0.00  0.00    -0.211 N 
ATOM      7  C   UNK d   1      22.853  16.205  31.988  0.00  0.00     0.161 C 
ATOM      8  C   UNK d   1      22.577  14.889  32.640  0.00  0.00     0.145 C 
ENDROOT
BRANCH   1   9
ATOM      9  C   UNK d   1      23.549  11.642  30.813  0.00  0.00     0.151 A 
ATOM     10  N   UNK d   1      23.841  10.584  30.292  0.00  0.00    -0.126 NA
ATOM     11  N   UNK d   1      23.452   9.467  30.360  0.00  0.00    -0.060 NA
ATOM     12  N   UNK d   1      22.460   9.500  31.225  0.00  0.00    -0.224 N 
ATOM     13  C   UNK d   1      22.372  10.741  31.622  0.00  0.00     0.158 A 
BRANCH  12  14
ATOM     14  C   UNK d   1      21.730   8.298  31.563  0.00  0.00     0.061 A 
ATOM     15  C   UNK d   1      20.500   8.273  32.124  0.00  0.00     0.055 A 
ATOM     16  C   UNK d   1      19.860   7.074  32.410  0.00  0.00     0.036 A 
ATOM     17 Cl   UNK d   1      18.289   6.960  33.139  0.00  0.00    -0.084 Cl
ATOM     18  C   UNK d   1      20.509   5.832  32.112  0.00  0.00     0.024 A 
ATOM     19  C   UNK d   1      21.736   5.877  31.547  0.00  0.00     0.004 A 
ATOM     20  C   UNK d   1      22.310   7.076  31.291  0.00  0.00     0.032 A 
ENDBRANCH  12  14
ENDBRANCH   1   9
BRANCH   6  21
ATOM     21  C   UNK d   1      22.372  16.796  29.653  0.00  0.00     0.724 A 
ATOM     22  N   UNK d   1      23.205  16.082  28.783  0.00  0.00    -0.075 NA
ATOM     23  C   UNK d   1      23.611  16.480  27.629  0.00  0.00     0.138 A 
ATOM     24  C   UNK d   1      23.232  17.722  27.097  0.00  0.00     0.040 A 
ATOM     25  C   UNK d   1      22.410  18.441  27.956  0.00  0.00     0.138 A 
ATOM     26  N   UNK d   1      22.044  17.992  29.097  0.00  0.00    -0.075 NA
ENDBRANCH   6  21
TORSDOF 3
ENDMDL
