MODEL 1
REMARK VINA RESULT:    -8.381      0.000      0.000
REMARK INTER + INTRA:          -9.396
REMARK INTER:                  -9.606
REMARK INTRA:                   0.210
REMARK UNBOUND:                 0.210
REMARK  3 active torsions:
REMARK  status: ('A' for Active; 'I' for Inactive)
REMARK    1  A    between atoms: C_4  and  N_8 
REMARK    2  A    between atoms: C_12  and  C_20 
REMARK    3  A    between atoms: C_20  and  O_21 
ROOT
ATOM      1  N   UNK d   1      22.238   9.454  32.011  0.00  0.00    -0.252 N 
ATOM      2  C   UNK d   1      22.223  10.889  31.890  0.00  0.00     0.239 C 
ATOM      3  O   UNK d   1      21.185  11.591  31.867  0.00  0.00    -0.272 OA
ATOM      4  C   UNK d   1      23.592  11.389  31.799  0.00  0.00     0.135 C 
ATOM      5  C   UNK d   1      24.003  11.885  30.452  0.00  0.00     0.113 C 
ATOM      6  O   UNK d   1      25.404  11.676  30.527  0.00  0.00    -0.363 OA
ATOM      7  C   UNK d   1      25.348  10.269  30.703  0.00  0.00     0.159 C 
ATOM      8  C   UNK d   1      24.511  10.167  31.954  0.00  0.00     0.128 C 
ATOM      9  C   UNK d   1      23.589   9.032  31.866  0.00  0.00     0.239 C 
ATOM     10  O   UNK d   1      23.924   7.836  31.689  0.00  0.00    -0.272 OA
ATOM     11  C   UNK d   1      24.497   9.886  29.557  0.00  0.00     0.005 C 
ATOM     12  C   UNK d   1      23.660  10.933  29.372  0.00  0.00     0.012 C 
ENDROOT
BRANCH   1  13
ATOM     13  C   UNK d   1      21.139   8.578  32.229  0.00  0.00     0.046 A 
ATOM     14  C   UNK d   1      19.962   9.002  32.826  0.00  0.00     0.054 A 
ATOM     15  C   UNK d   1      18.898   8.152  33.036  0.00  0.00     0.036 A 
ATOM     16 Cl   UNK d   1      17.419   8.703  33.793  0.00  0.00    -0.084 Cl
ATOM     17  C   UNK d   1      18.963   6.828  32.655  0.00  0.00     0.024 A 
ATOM     18  C   UNK d   1      20.130   6.396  32.058  0.00  0.00     0.004 A 
ATOM     19  C   UNK d   1      21.202   7.253  31.847  0.00  0.00     0.030 A 
ENDBRANCH   1  13
BRANCH   5  20
ATOM     20  C   UNK d   1      23.667  13.306  30.167  0.00  0.00     0.207 C 
BRANCH  20  21
ATOM     21  O   UNK d   1      22.472  13.364  29.461  0.00  0.00    -0.398 OA
ATOM     22  H   UNK d   1      22.087  12.463  29.365  0.00  0.00     0.209 HD
ENDBRANCH  20  21
ENDBRANCH   5  20
TORSDOF 3
ENDMDL
