MODEL 1
REMARK VINA RESULT:    -7.662      0.000      0.000
REMARK INTER + INTRA:          -7.096
REMARK INTER:                  -8.110
REMARK INTRA:                   1.014
REMARK UNBOUND:                 1.014
REMARK  1 active torsions:
REMARK  status: ('A' for Active; 'I' for Inactive)
REMARK       I    between atoms: N_10  and  C_13 
REMARK    1  A    between atoms: C_13  and  C_15 
ROOT
ATOM      1 Cl   UNK d   1      27.537   0.885  31.460  0.00  0.00    -0.083 Cl
ATOM      2  C   UNK d   1      26.140   1.937  31.688  0.00  0.00     0.050 A 
ATOM      3  C   UNK d   1      25.973   3.098  30.961  0.00  0.00     0.125 A 
ATOM      4  N   UNK d   1      24.907   3.918  31.122  0.00  0.00    -0.271 N 
ATOM      5  C   UNK d   1      23.935   3.647  32.013  0.00  0.00     0.137 A 
ATOM      6  N   UNK d   1      22.859   4.458  32.188  0.00  0.00    -0.234 NA
ATOM      7  C   UNK d   1      22.688   5.591  31.483  0.00  0.00     0.051 A 
ATOM      8  C   UNK d   1      23.683   5.886  30.558  0.00  0.00     0.053 A 
ATOM      9  C   UNK d   1      23.496   7.138  29.779  0.00  0.00     0.172 C 
ATOM     10  N   UNK d   1      23.096   8.149  30.765  0.00  0.00    -0.347 N 
ATOM     11  C   UNK d   1      21.868   7.933  31.476  0.00  0.00     0.132 C 
ATOM     12  C   UNK d   1      21.515   6.485  31.663  0.00  0.00     0.080 C 
ATOM     13  C   UNK d   1      23.904   9.283  31.001  0.00  0.00     0.224 C 
ATOM     14  O   UNK d   1      24.986   9.373  30.327  0.00  0.00    -0.273 OA
ATOM     15  C   UNK d   1      24.763   5.045  30.402  0.00  0.00     0.263 A 
ATOM     16  O   UNK d   1      25.661   5.338  29.548  0.00  0.00    -0.267 OA
ATOM     17  C   UNK d   1      24.085   2.486  32.753  0.00  0.00     0.053 A 
ATOM     18  C   UNK d   1      25.160   1.634  32.609  0.00  0.00     0.029 A 
ENDROOT
BRANCH  13  19
ATOM     19  C   UNK d   1      23.545  10.338  31.974  0.00  0.00     0.082 C 
ATOM     20  C   UNK d   1      22.240  11.019  31.624  0.00  0.00     0.040 C 
ATOM     21  C   UNK d   1      22.273  11.224  30.115  0.00  0.00     0.168 C 
ATOM     22  O   UNK d   1      23.559  11.569  29.704  0.00  0.00    -0.391 OA
ATOM     23  C   UNK d   1      24.235  12.296  30.694  0.00  0.00     0.168 C 
ATOM     24  C   UNK d   1      24.615  11.437  31.885  0.00  0.00     0.040 C 
ENDBRANCH  13  19
TORSDOF 1
ENDMDL
