MODEL 1
REMARK VINA RESULT:    -6.730      0.000      0.000
REMARK INTER + INTRA:          -6.853
REMARK INTER:                  -7.123
REMARK INTRA:                   0.270
REMARK UNBOUND:                 0.270
REMARK  1 active torsions:
REMARK  status: ('A' for Active; 'I' for Inactive)
REMARK    1  A    between atoms: C_11  and  C_12 
ROOT
ATOM      1 Cl   UNK d   1      24.429  14.066  21.172  0.00  0.00    -0.084 Cl
ATOM      2  C   UNK d   1      26.052  14.479  21.694  0.00  0.00     0.034 A 
ATOM      3  C   UNK d   1      26.310  14.827  23.005  0.00  0.00     0.034 A 
ATOM      4  C   UNK d   1      27.606  15.158  23.423  0.00  0.00    -0.009 A 
ATOM      5  C   UNK d   1      28.590  15.117  22.469  0.00  0.00     0.085 A 
ATOM      6  C   UNK d   1      28.324  14.764  21.139  0.00  0.00     0.039 A 
ATOM      7  C   UNK d   1      27.046  14.440  20.738  0.00  0.00     0.026 A 
ATOM      8  O   UNK d   1      29.886  15.440  22.859  0.00  0.00    -0.292 OA
ATOM      9  C   UNK d   1      30.223  15.798  24.153  0.00  0.00     0.166 A 
ATOM     10  C   UNK d   1      29.227  15.839  25.116  0.00  0.00     0.075 A 
ATOM     11  C   UNK d   1      27.822  15.524  24.837  0.00  0.00     0.107 A 
ATOM     12  C   UNK d   1      29.613  16.200  26.392  0.00  0.00     0.262 A 
ATOM     13  O   UNK d   1      28.742  16.255  27.317  0.00  0.00    -0.267 OA
ATOM     14  N   UNK d   1      30.871  16.508  26.744  0.00  0.00    -0.270 N 
ATOM     15  C   UNK d   1      31.811  16.454  25.770  0.00  0.00     0.332 A 
ATOM     16  O   UNK d   1      32.985  16.747  26.123  0.00  0.00    -0.246 OA
ATOM     17  N   UNK d   1      31.481  16.107  24.512  0.00  0.00    -0.283 N 
ATOM     18  C   UNK d   1      32.543  16.073  23.527  0.00  0.00     0.163 C 
ATOM     19  C   UNK d   1      31.226  16.882  28.114  0.00  0.00     0.164 C 
ENDROOT
BRANCH  11  20
ATOM     20  C   UNK d   1      27.389  14.380  25.705  0.00  0.00     0.078 A 
ATOM     21  C   UNK d   1      26.319  14.510  26.562  0.00  0.00     0.197 A 
ATOM     22  N   UNK d   1      25.937  13.465  27.347  0.00  0.00    -0.281 N 
ATOM     23  O   UNK d   1      25.642  15.696  26.617  0.00  0.00    -0.171 OA
ATOM     24  C   UNK d   1      26.606  12.286  27.295  0.00  0.00     0.332 A 
ATOM     25  C   UNK d   1      24.794  13.665  28.232  0.00  0.00     0.163 C 
ATOM     26  O   UNK d   1      26.224  11.339  28.039  0.00  0.00    -0.246 OA
ATOM     27  N   UNK d   1      27.653  12.130  26.470  0.00  0.00    -0.270 N 
ATOM     28  C   UNK d   1      28.035  13.160  25.691  0.00  0.00     0.262 A 
ATOM     29  C   UNK d   1      28.351  10.848  26.441  0.00  0.00     0.164 C 
ATOM     30  O   UNK d   1      29.004  13.001  24.935  0.00  0.00    -0.267 OA
ENDBRANCH  11  20
TORSDOF 1
ENDMDL
