MODEL 1
REMARK VINA RESULT:    -7.569      0.000      0.000
REMARK INTER + INTRA:          -9.810
REMARK INTER:                  -8.896
REMARK INTRA:                  -0.914
REMARK UNBOUND:                -0.914
REMARK  3 active torsions:
REMARK  status: ('A' for Active; 'I' for Inactive)
REMARK       I    between atoms: N_11  and  C_13 
REMARK    1  A    between atoms: C_13  and  C_15 
REMARK    2  A    between atoms: C_15  and  N_16 
REMARK    3  A    between atoms: C_19  and  C_22 
REMARK       I    between atoms: C_22  and  N_24 
ROOT
ATOM      1 Cl   UNK d   1      18.124   7.111  33.201  0.00  0.00    -0.084 Cl
ATOM      2  C   UNK d   1      19.724   7.604  32.700  0.00  0.00     0.034 A 
ATOM      3  C   UNK d   1      20.353   6.996  31.637  0.00  0.00     0.035 A 
ATOM      4  C   UNK d   1      21.608   7.395  31.258  0.00  0.00    -0.005 A 
ATOM      5  C   UNK d   1      22.247   8.425  31.959  0.00  0.00     0.078 A 
ATOM      6  C   UNK d   1      21.622   9.042  33.031  0.00  0.00     0.039 A 
ATOM      7  C   UNK d   1      20.370   8.615  33.377  0.00  0.00     0.026 A 
ATOM      8  O   UNK d   1      23.509   8.941  31.704  0.00  0.00    -0.338 OA
ATOM      9  C   UNK d   1      24.225   8.908  30.493  0.00  0.00     0.088 C 
ATOM     10  C   UNK d   1      24.591   7.519  30.084  0.00  0.00     0.164 C 
ATOM     11  N   UNK d   1      23.576   6.531  30.290  0.00  0.00    -0.344 N 
ATOM     12  C   UNK d   1      22.153   6.647  30.097  0.00  0.00     0.167 C 
ATOM     13  C   UNK d   1      23.988   5.236  30.756  0.00  0.00     0.248 C 
ATOM     14  O   UNK d   1      23.084   4.380  30.927  0.00  0.00    -0.271 OA
ATOM     15  C   UNK d   1      23.442   9.648  29.419  0.00  0.00     0.066 C 
ATOM     16  C   UNK d   1      23.854  11.110  29.382  0.00  0.00     0.170 C 
ATOM     17  O   UNK d   1      25.157  11.281  28.960  0.00  0.00    -0.391 OA
ATOM     18  C   UNK d   1      25.932  10.170  29.274  0.00  0.00     0.170 C 
ATOM     19  C   UNK d   1      25.536   9.683  30.654  0.00  0.00     0.066 C 
ENDROOT
BRANCH  13  20
ATOM     20  C   UNK d   1      25.392   4.924  31.019  0.00  0.00     0.374 C 
BRANCH  20  21
ATOM     21  N   UNK d   1      25.923   3.741  30.449  0.00  0.00     0.097 N 
ATOM     22  C   UNK d   1      27.356   3.599  30.721  0.00  0.00     0.273 C 
ATOM     23  C   UNK d   1      28.061   4.757  30.118  0.00  0.00     0.044 C 
ATOM     24  C   UNK d   1      27.686   5.111  28.718  0.00  0.00     0.081 C 
ATOM     25  C   UNK d   1      26.463   4.492  28.168  0.00  0.00     0.044 C 
ATOM     26  C   UNK d   1      25.706   3.559  29.035  0.00  0.00     0.273 C 
BRANCH  24  27
ATOM     27  C   UNK d   1      27.678   6.580  28.511  0.00  0.00     0.219 C 
ATOM     28  O   UNK d   1      27.012   7.061  27.572  0.00  0.00    -0.273 OA
ATOM     29  N   UNK d   1      28.418   7.419  29.371  0.00  0.00    -0.370 N 
ATOM     30  H   UNK d   1      27.848   7.975  30.074  0.00  0.00     0.159 HD
ATOM     31  H   UNK d   1      29.438   7.539  29.379  0.00  0.00     0.159 HD
ENDBRANCH  24  27
ENDBRANCH  20  21
ENDBRANCH  13  20
TORSDOF 3
ENDMDL
