/Users/jonathanwahrer/Desktop/Msc/3_Semester/Drug_Design_Praktikum/waehrer_HTS_screening/HTS_experiment/out/docking_results/vina_output/3elj/2003_docked.pdbqt
 OpenBabel03192218473D

 28 31  0  0  0  0  0  0  0  0999 V2000
   25.7570    2.9050   32.2410 N   0  0  0  0  0  0  0  0  0  0  0  0
   24.3550    2.7560   32.4880 C   0  0  0  0  0  2  0  0  0  0  0  0
   23.5430    3.9450   32.0470 C   0  0  0  0  0  2  0  0  0  0  0  0
   24.0550    4.5420   30.8350 N   0  0  0  0  0  0  0  0  0  0  0  0
   25.1910    4.0320   30.1160 C   0  0  0  0  0  3  0  0  0  0  0  0
   26.1190    3.1810   30.8970 C   0  0  0  0  0  3  0  0  0  0  0  0
   23.3970    5.6950   30.3260 C   0  0  0  0  0  0  0  0  0  0  0  0
   23.8000    6.2680   29.2590 O   0  0  0  0  0  0  0  0  0  0  0  0
   22.2360    6.2620   31.0110 C   0  0  0  0  0  0  0  0  0  0  0  0
   21.0870    5.5420   31.2730 C   0  0  0  0  0  3  0  0  0  0  0  0
   20.0570    6.1300   31.9090 N   0  0  0  0  0  0  0  0  0  0  0  0
   20.0740    7.4110   32.3200 C   0  0  0  0  0  0  0  0  0  0  0  0
   21.1870    8.1260   32.0730 N   0  0  0  0  0  0  0  0  0  0  0  0
   18.9910    7.9830   32.9750 C   0  0  0  0  0  3  0  0  0  0  0  0
   21.2240    9.4110   32.4780 C   0  0  0  0  0  3  0  0  0  0  0  0
   22.2390    7.5740   31.4380 C   0  0  0  0  0  0  0  0  0  0  0  0
   20.1630   10.0070   33.1290 C   0  0  0  0  0  3  0  0  0  0  0  0
   19.0070    9.3010   33.3980 C   0  0  0  0  0  3  0  0  0  0  0  0
   23.2770    8.2410   31.2080 O   0  0  0  0  0  0  0  0  0  0  0  0
   26.7380    1.7800   33.0410 S   0  0  0  0  0  0  0  0  0  0  0  0
   27.3040    0.7930   32.0940 O   0  0  0  0  0  0  0  0  0  0  0  0
   27.8570    2.5210   33.7370 O   0  0  0  0  0  0  0  0  0  0  0  0
   25.7660    0.9500   34.2680 C   0  0  0  0  0  0  0  0  0  0  0  0
   24.8540   -0.4850   34.1400 S   0  0  0  0  0  0  0  0  0  0  0  0
   24.2560   -0.5680   35.7340 C   0  0  0  0  0  0  0  0  0  0  0  0
   24.7940    0.5410   36.3250 C   0  0  0  0  0  3  0  0  0  0  0  0
   23.1960   -1.7780   36.4860 Cl  0  0  0  0  0  0  0  0  0  0  0  0
   25.5720    1.3260   35.5730 C   0  0  0  0  0  3  0  0  0  0  0  0
  1  2  1  0  0  0  0
  1 20  1  0  0  0  0
  3  2  1  0  0  0  0
  4  3  1  0  0  0  0
  5  4  1  0  0  0  0
  5  6  2  0  0  0  0
  6  1  1  0  0  0  0
  7  4  1  0  0  0  0
  7  9  1  0  0  0  0
  8  7  2  0  0  0  0
  9 10  2  0  0  0  0
  9 16  1  0  0  0  0
 10 11  1  0  0  0  0
 11 12  2  0  0  0  0
 12 14  1  0  0  0  0
 13 12  1  0  0  0  0
 13 15  1  0  0  0  0
 14 18  2  0  0  0  0
 15 17  2  0  0  0  0
 16 13  1  0  0  0  0
 17 18  1  0  0  0  0
 19 16  2  0  0  0  0
 20 22  2  0  0  0  0
 20 23  1  0  0  0  0
 21 20  2  0  0  0  0
 23 28  2  0  0  0  0
 24 23  1  0  0  0  0
 24 25  1  0  0  0  0
 25 26  2  0  0  0  0
 25 27  1  0  0  0  0
 28 26  1  0  0  0  0
M  END
>  <Pose>
1

>  <Score>
-8.697

$$$$
