MODEL 1
REMARK VINA RESULT:    -8.697      0.000      0.000
REMARK INTER + INTRA:          -9.991
REMARK INTER:                 -10.223
REMARK INTRA:                   0.232
REMARK UNBOUND:                 0.232
REMARK  3 active torsions:
REMARK  status: ('A' for Active; 'I' for Inactive)
REMARK    1  A    between atoms: S_1  and  N_4 
REMARK    2  A    between atoms: S_1  and  C_23 
REMARK       I    between atoms: N_7  and  C_10 
REMARK    3  A    between atoms: C_10  and  C_12 
ROOT
ATOM      1  N   UNK d   1      25.757   2.905  32.241  0.00  0.00    -0.303 N 
ATOM      2  C   UNK d   1      24.355   2.756  32.488  0.00  0.00     0.155 C 
ATOM      3  C   UNK d   1      23.543   3.945  32.047  0.00  0.00     0.146 C 
ATOM      4  N   UNK d   1      24.055   4.542  30.835  0.00  0.00    -0.345 N 
ATOM      5  C   UNK d   1      25.191   4.032  30.116  0.00  0.00     0.146 C 
ATOM      6  C   UNK d   1      26.119   3.181  30.897  0.00  0.00     0.155 C 
ATOM      7  C   UNK d   1      23.397   5.695  30.326  0.00  0.00     0.260 C 
ATOM      8  O   UNK d   1      23.800   6.268  29.259  0.00  0.00    -0.267 OA
ENDROOT
BRANCH   7   9
ATOM      9  C   UNK d   1      22.236   6.262  31.011  0.00  0.00     0.118 A 
ATOM     10  C   UNK d   1      21.087   5.542  31.273  0.00  0.00     0.141 A 
ATOM     11  N   UNK d   1      20.057   6.130  31.909  0.00  0.00    -0.242 NA
ATOM     12  C   UNK d   1      20.074   7.411  32.320  0.00  0.00     0.136 A 
ATOM     13  N   UNK d   1      21.187   8.126  32.073  0.00  0.00    -0.273 N 
ATOM     14  C   UNK d   1      18.991   7.983  32.975  0.00  0.00     0.051 A 
ATOM     15  C   UNK d   1      21.224   9.411  32.478  0.00  0.00     0.102 A 
ATOM     16  C   UNK d   1      22.239   7.574  31.438  0.00  0.00     0.270 A 
ATOM     17  C   UNK d   1      20.163  10.007  33.129  0.00  0.00     0.018 A 
ATOM     18  C   UNK d   1      19.007   9.301  33.398  0.00  0.00     0.005 A 
ATOM     19  O   UNK d   1      23.277   8.241  31.208  0.00  0.00    -0.266 OA
ENDBRANCH   7   9
BRANCH   1  20
ATOM     20  S   UNK d   1      26.738   1.780  33.041  0.00  0.00     0.267 S 
ATOM     21  O   UNK d   1      27.304   0.793  32.094  0.00  0.00    -0.200 OA
ATOM     22  O   UNK d   1      27.857   2.521  33.737  0.00  0.00    -0.200 OA
BRANCH  20  23
ATOM     23  C   UNK d   1      25.766   0.950  34.268  0.00  0.00     0.121 A 
ATOM     24  S   UNK d   1      24.854  -0.485  34.140  0.00  0.00    -0.064 SA
ATOM     25  C   UNK d   1      24.256  -0.568  35.734  0.00  0.00     0.075 A 
ATOM     26  C   UNK d   1      24.794   0.541  36.325  0.00  0.00     0.033 A 
ATOM     27 Cl   UNK d   1      23.196  -1.778  36.486  0.00  0.00    -0.076 Cl
ATOM     28  C   UNK d   1      25.572   1.326  35.573  0.00  0.00     0.035 A 
ENDBRANCH  20  23
ENDBRANCH   1  20
TORSDOF 3
ENDMDL
