MODEL 1
REMARK VINA RESULT:    -8.131      0.000      0.000
REMARK INTER + INTRA:          -9.113
REMARK INTER:                  -9.557
REMARK INTRA:                   0.444
REMARK UNBOUND:                 0.444
REMARK  3 active torsions:
REMARK  status: ('A' for Active; 'I' for Inactive)
REMARK    1  A    between atoms: S_1  and  N_4 
REMARK    2  A    between atoms: S_1  and  C_16 
REMARK       I    between atoms: N_7  and  C_10 
REMARK    3  A    between atoms: C_10  and  C_12 
ROOT
ATOM      1  S   UNK d   1      24.224  10.019  30.984  0.00  0.00     0.262 S 
ATOM      2  O   UNK d   1      24.865   9.639  32.311  0.00  0.00    -0.200 OA
ATOM      3  O   UNK d   1      23.555   8.728  30.516  0.00  0.00    -0.200 OA
ENDROOT
BRANCH   1   4
ATOM      4  N   UNK d   1      25.372  10.481  29.857  0.00  0.00    -0.304 N 
ATOM      5  C   UNK d   1      24.954  11.230  28.755  0.00  0.00     0.155 C 
ATOM      6  C   UNK d   1      26.125  11.815  27.952  0.00  0.00     0.146 C 
ATOM      7  N   UNK d   1      27.220  10.895  27.872  0.00  0.00    -0.349 N 
ATOM      8  C   UNK d   1      27.611  10.197  29.077  0.00  0.00     0.146 C 
ATOM      9  C   UNK d   1      27.885  10.686  26.658  0.00  0.00     0.224 C 
ATOM     10  C   UNK d   1      26.375   9.479  29.581  0.00  0.00     0.155 C 
ATOM     11  O   UNK d   1      27.526  11.304  25.623  0.00  0.00    -0.273 OA
BRANCH   9  12
ATOM     12  C   UNK d   1      29.034   9.736  26.526  0.00  0.00     0.078 C 
ATOM     13  C   UNK d   1      29.551   9.604  25.112  0.00  0.00     0.014 C 
ATOM     14  C   UNK d   1      28.574   8.445  24.933  0.00  0.00     0.002 C 
ATOM     15  C   UNK d   1      28.569   8.303  26.458  0.00  0.00     0.014 C 
ENDBRANCH   9  12
ENDBRANCH   1   4
BRANCH   1  16
ATOM     16  C   UNK d   1      22.937  11.159  31.308  0.00  0.00     0.104 A 
ATOM     17  C   UNK d   1      23.068  12.480  30.833  0.00  0.00     0.066 A 
ATOM     18  C   UNK d   1      22.118  13.437  31.105  0.00  0.00     0.098 A 
ATOM     19  C   UNK d   1      20.992  13.172  31.851  0.00  0.00     0.070 A 
ATOM     20  O   UNK d   1      22.272  14.737  30.622  0.00  0.00    -0.335 OA
ATOM     21  C   UNK d   1      20.859  11.886  32.314  0.00  0.00     0.058 A 
ATOM     22  N   UNK d   1      20.054  14.203  32.098  0.00  0.00    -0.323 N 
ATOM     23  C   UNK d   1      21.815  10.896  32.047  0.00  0.00     0.059 A 
ATOM     24 Cl   UNK d   1      21.534   9.265  32.608  0.00  0.00    -0.083 Cl
ATOM     25  C   UNK d   1      20.227  15.524  31.602  0.00  0.00     0.251 C 
ATOM     26  H   UNK d   1      19.200  13.994  32.666  0.00  0.00     0.169 HD
ATOM     27  O   UNK d   1      19.336  16.394  31.562  0.00  0.00    -0.270 OA
ATOM     28  C   UNK d   1      21.586  15.861  31.101  0.00  0.00     0.217 C 
ATOM     29  C   UNK d   1      22.418  16.494  32.194  0.00  0.00     0.050 C 
ENDBRANCH   1  16
TORSDOF 3
ENDMDL
