MODEL 1
REMARK VINA RESULT:    -9.779      0.000      0.000
REMARK INTER + INTRA:         -10.903
REMARK INTER:                 -10.922
REMARK INTRA:                   0.019
REMARK UNBOUND:                 0.019
REMARK  2 active torsions:
REMARK  status: ('A' for Active; 'I' for Inactive)
REMARK    1  A    between atoms: C_4  and  N_8 
REMARK    2  A    between atoms: C_14  and  C_18 
ROOT
ATOM      1  N   UNK d   1      22.430   9.540  31.237  0.00  0.00    -0.246 N 
ATOM      2  C   UNK d   1      23.507   9.948  30.402  0.00  0.00     0.268 C 
ATOM      3  O   UNK d   1      23.949   9.284  29.449  0.00  0.00    -0.269 OA
ATOM      4  C   UNK d   1      23.998  11.262  30.851  0.00  0.00     0.285 C 
ATOM      5  O   UNK d   1      24.423  12.143  29.909  0.00  0.00    -0.260 OA
ATOM      6  N   UNK d   1      24.020  13.358  30.431  0.00  0.00    -0.264 N 
ATOM      7  C   UNK d   1      22.739  13.176  31.040  0.00  0.00     0.083 C 
ATOM      8  C   UNK d   1      22.705  11.875  31.304  0.00  0.00     0.080 C 
ATOM      9  C   UNK d   1      21.915  10.766  31.817  0.00  0.00     0.266 C 
ATOM     10  O   UNK d   1      20.961  10.906  32.624  0.00  0.00    -0.267 OA
ATOM     11  H   UNK d   1      24.583  14.222  30.376  0.00  0.00     0.194 HD
ENDROOT
BRANCH   1  12
ATOM     12  C   UNK d   1      21.886   8.252  31.502  0.00  0.00     0.047 A 
ATOM     13  C   UNK d   1      22.592   7.096  31.268  0.00  0.00     0.054 A 
ATOM     14  C   UNK d   1      21.979   5.880  31.561  0.00  0.00     0.036 A 
ATOM     15 Cl   UNK d   1      22.828   4.364  31.279  0.00  0.00    -0.084 Cl
ATOM     16  C   UNK d   1      20.698   5.850  32.071  0.00  0.00     0.024 A 
ATOM     17  C   UNK d   1      19.989   7.016  32.309  0.00  0.00     0.004 A 
ATOM     18  C   UNK d   1      20.583   8.209  32.024  0.00  0.00     0.030 A 
ENDBRANCH   1  12
BRANCH   7  19
ATOM     19  C   UNK d   1      21.733  14.172  31.353  0.00  0.00     0.036 A 
ATOM     20  C   UNK d   1      20.456  14.130  30.785  0.00  0.00     0.127 A 
ATOM     21  N   UNK d   1      19.732  15.168  31.230  0.00  0.00    -0.284 N 
ATOM     22  N   UNK d   1      20.497  15.876  32.063  0.00  0.00    -0.177 NA
ATOM     23  C   UNK d   1      18.356  15.533  30.911  0.00  0.00     0.179 C 
ATOM     24  C   UNK d   1      21.711  15.283  32.145  0.00  0.00     0.065 A 
ATOM     25  C   UNK d   1      22.856  15.770  32.955  0.00  0.00     0.073 C 
ENDBRANCH   7  19
TORSDOF 2
ENDMDL
