MODEL 1
REMARK VINA RESULT:    -9.054      0.000      0.000
REMARK INTER + INTRA:          -8.906
REMARK INTER:                 -10.112
REMARK INTRA:                   1.206
REMARK UNBOUND:                 1.206
REMARK  2 active torsions:
REMARK  status: ('A' for Active; 'I' for Inactive)
REMARK    1  A    between atoms: C_4  and  C_10 
REMARK    2  A    between atoms: C_5  and  O_8 
ROOT
ATOM      1  C   UNK d   1      21.151   9.553  32.191  0.00  0.00     0.188 A 
ATOM      2  N   UNK d   1      21.613  10.705  31.712  0.00  0.00    -0.107 N 
ATOM      3  C   UNK d   1      21.062  11.748  32.399  0.00  0.00     0.735 A 
ATOM      4  N   UNK d   1      20.249  11.177  33.318  0.00  0.00     0.045 NA
ATOM      5  N   UNK d   1      20.291   9.877  33.207  0.00  0.00    -0.114 NA
ATOM      6  N   UNK d   1      21.521  12.919  31.929  0.00  0.00    -0.174 N 
ATOM      7  C   UNK d   1      22.372  12.681  30.939  0.00  0.00     0.165 A 
ATOM      8  C   UNK d   1      22.434  11.284  30.800  0.00  0.00     0.170 A 
ATOM      9  N   UNK d   1      23.236  10.748  29.872  0.00  0.00    -0.286 N 
ATOM     10  C   UNK d   1      23.963  11.592  29.090  0.00  0.00     0.332 A 
ATOM     11  O   UNK d   1      24.713  11.055  28.217  0.00  0.00    -0.246 OA
ATOM     12  N   UNK d   1      23.939  12.919  29.179  0.00  0.00    -0.269 N 
ATOM     13  C   UNK d   1      23.143  13.457  30.105  0.00  0.00     0.282 A 
ATOM     14  O   UNK d   1      23.082  14.707  30.233  0.00  0.00    -0.265 OA
ATOM     15  C   UNK d   1      24.758  13.763  28.292  0.00  0.00     0.164 C 
ATOM     16  C   UNK d   1      23.375   9.331  29.701  0.00  0.00     0.163 C 
ATOM     17  C   UNK d   1      21.162  14.239  32.405  0.00  0.00     0.176 C 
ENDROOT
BRANCH   1  18
ATOM     18  C   UNK d   1      21.401   8.158  31.846  0.00  0.00     0.047 A 
ATOM     19  C   UNK d   1      22.698   7.705  31.615  0.00  0.00     0.037 A 
ATOM     20  C   UNK d   1      22.926   6.379  31.368  0.00  0.00     0.012 A 
ATOM     21 Br   UNK d   1      24.705   5.738  31.047  0.00  0.00    -0.051 Br
ATOM     22  C   UNK d   1      21.919   5.431  31.331  0.00  0.00     0.022 A 
ATOM     23  C   UNK d   1      20.634   5.895  31.562  0.00  0.00     0.039 A 
ATOM     24  C   UNK d   1      20.395   7.214  31.810  0.00  0.00     0.082 A 
BRANCH  24  25
ATOM     25  O   UNK d   1      19.091   7.701  32.048  0.00  0.00    -0.355 OA
ATOM     26  C   UNK d   1      18.211   7.021  32.924  0.00  0.00     0.210 C 
ENDBRANCH  24  25
ENDBRANCH   1  18
TORSDOF 2
ENDMDL
