MODEL 1
REMARK VINA RESULT:    -8.347      0.000      0.000
REMARK INTER + INTRA:          -9.678
REMARK INTER:                  -9.323
REMARK INTRA:                  -0.355
REMARK UNBOUND:                -0.355
REMARK  2 active torsions:
REMARK  status: ('A' for Active; 'I' for Inactive)
REMARK    1  A    between atoms: C_7  and  C_11 
REMARK    2  A    between atoms: C_11  and  N_12 
ROOT
ATOM      1 Cl   UNK d   1      22.876  18.644  27.421  0.00  0.00    -0.083 Cl
ATOM      2  C   UNK d   1      23.132  17.059  28.132  0.00  0.00     0.050 A 
ATOM      3  C   UNK d   1      22.554  16.683  29.329  0.00  0.00     0.125 A 
ATOM      4  N   UNK d   1      22.759  15.454  29.871  0.00  0.00    -0.272 N 
ATOM      5  C   UNK d   1      23.532  14.525  29.283  0.00  0.00     0.137 A 
ATOM      6  N   UNK d   1      23.742  13.306  29.812  0.00  0.00    -0.233 NA
ATOM      7  C   UNK d   1      23.184  12.932  30.977  0.00  0.00     0.059 A 
ATOM      8  C   UNK d   1      22.378  13.890  31.595  0.00  0.00     0.103 A 
ATOM      9  C   UNK d   1      22.171  15.136  31.044  0.00  0.00     0.255 A 
ATOM     10  O   UNK d   1      21.436  16.006  31.612  0.00  0.00    -0.268 OA
ATOM     11  C   UNK d   1      24.126  14.877  28.077  0.00  0.00     0.053 A 
ATOM     12  C   UNK d   1      23.929  16.120  27.511  0.00  0.00     0.029 A 
ENDROOT
BRANCH   7  13
ATOM     13  C   UNK d   1      23.385  11.598  31.600  0.00  0.00     0.177 C 
BRANCH  13  14
ATOM     14  N   UNK d   1      22.272  10.773  31.306  0.00  0.00    -0.401 N 
ATOM     15  C   UNK d   1      21.654  10.089  32.379  0.00  0.00     0.122 C 
ATOM     16  C   UNK d   1      20.995   8.775  31.989  0.00  0.00     0.061 C 
ATOM     17  C   UNK d   1      22.013   8.026  31.205  0.00  0.00    -0.013 A 
ATOM     18  C   UNK d   1      22.646   8.738  30.208  0.00  0.00     0.061 A 
ATOM     19  C   UNK d   1      22.288   6.706  31.480  0.00  0.00     0.128 A 
ATOM     20  N   UNK d   1      23.573   8.105  29.474  0.00  0.00    -0.236 NA
ATOM     21  C   UNK d   1      22.248  10.155  30.023  0.00  0.00     0.177 C 
ATOM     22  C   UNK d   1      23.873   6.792  29.718  0.00  0.00     0.122 A 
ATOM     23  N   UNK d   1      23.231   6.125  30.706  0.00  0.00    -0.245 NA
ATOM     24  C   UNK d   1      24.899   6.080  28.912  0.00  0.00     0.093 C 
ENDBRANCH  13  14
ENDBRANCH   7  13
TORSDOF 2
ENDMDL
