/Users/jonathanwahrer/Desktop/Msc/3_Semester/Drug_Design_Praktikum/waehrer_HTS_screening/HTS_experiment/out/docking_results/vina_output/3elj/2032_docked.pdbqt
 OpenBabel03192218483D

 31 34  0  0  0  0  0  0  0  0999 V2000
   21.9320    5.2300   31.7980 C   0  0  0  0  0  3  0  0  0  0  0  0
   21.5080    6.4240   32.0560 C   0  0  0  0  0  0  0  0  0  0  0  0
   22.2310    7.5820   31.9810 O   0  0  0  0  0  0  0  0  0  0  0  0
   21.4100    8.6540   32.3290 C   0  0  0  0  0  0  0  0  0  0  0  0
   20.1510    8.2540   32.6440 C   0  0  0  0  0  0  0  0  0  0  0  0
   19.1660    9.1800   33.0050 C   0  0  0  0  0  3  0  0  0  0  0  0
   19.4170   10.5260   33.0620 C   0  0  0  0  0  3  0  0  0  0  0  0
   20.7350   10.8900   32.7330 C   0  0  0  0  0  0  0  0  0  0  0  0
   21.7080   10.0210   32.3750 C   0  0  0  0  0  0  0  0  0  0  0  0
   20.9460   12.2820   32.8240 O   0  0  0  0  0  1  0  0  0  0  0  0
   20.1580    6.7960   32.4830 C   0  0  0  0  0  0  0  0  0  0  0  0
   19.1810    6.0160   32.6760 O   0  0  0  0  0  0  0  0  0  0  0  0
   23.2710    4.8470   31.3700 C   0  0  0  0  0  0  0  0  0  0  0  0
   23.8100    5.3790   30.2280 C   0  0  0  0  0  3  0  0  0  0  0  0
   25.0860    4.9860   29.7870 C   0  0  0  0  0  0  0  0  0  0  0  0
   25.8720    5.7040   28.2160 Br  0  0  0  0  0  0  0  0  0  0  0  0
   25.7930    4.0550   30.5150 C   0  0  0  0  0  3  0  0  0  0  0  0
   25.2580    3.5240   31.6450 C   0  0  0  0  0  3  0  0  0  0  0  0
   23.9860    3.9160   32.0870 C   0  0  0  0  0  0  0  0  0  0  0  0
   23.4010    3.4240   33.2020 O   0  0  0  0  0  0  0  0  0  0  0  0
   23.6990    2.2430   33.8640 C   0  0  0  0  0  1  0  0  0  0  0  0
   23.1040   10.3940   32.0790 C   0  0  0  0  0  2  0  0  0  0  0  0
   23.1850   11.2940   30.9530 N   0  0  0  0  0  4  0  0  0  0  0  0
   23.3600   10.5230   29.7350 C   0  0  0  0  0  2  0  0  0  0  0  0
   24.2870   11.1080   28.7560 C   0  0  0  0  0  2  0  0  0  0  0  0
   24.3650   12.5340   28.7340 N   0  0  0  0  0  0  0  0  0  0  0  0
   23.7280   13.2440   29.7480 C   0  0  0  0  0  2  0  0  0  0  0  0
   23.8760   12.4820   31.0920 C   0  0  0  0  0  2  0  0  0  0  0  0
   22.1130   11.6120   30.8730 H   0  0  0  0  0  0  0  0  0  0  0  0
   25.5180   13.1000   28.1440 C   0  0  0  0  0  2  0  0  0  0  0  0
   26.4270   12.1410   27.4590 C   0  0  0  0  0  1  0  0  0  0  0  0
  1  2  2  0  0  0  0
  2 11  1  0  0  0  0
  3  2  1  0  0  0  0
  3  4  1  0  0  0  0
  4  9  2  0  0  0  0
  4  5  1  0  0  0  0
  5  6  2  0  0  0  0
  6  7  1  0  0  0  0
  8 10  1  0  0  0  0
  8  7  2  0  0  0  0
  9  8  1  0  0  0  0
 11  5  1  0  0  0  0
 11 12  2  0  0  0  0
 13  1  1  0  0  0  0
 13 19  1  0  0  0  0
 14 13  2  0  0  0  0
 15 14  1  0  0  0  0
 15 17  2  0  0  0  0
 16 15  1  0  0  0  0
 17 18  1  0  0  0  0
 18 19  2  0  0  0  0
 19 20  1  0  0  0  0
 20 21  1  0  0  0  0
 22  9  1  0  0  0  0
 23 28  1  0  0  0  0
 23 22  1  0  0  0  0
 24 23  1  0  0  0  0
 25 24  1  0  0  0  0
 26 25  1  0  0  0  0
 26 27  1  0  0  0  0
 27 28  1  0  0  0  0
 29 23  1  0  0  0  0
 30 26  1  0  0  0  0
 31 30  1  0  0  0  0
M  END
>  <Pose>
1

>  <Score>
-8.888

$$$$
