MODEL 1
REMARK VINA RESULT:    -8.888      0.000      0.000
REMARK INTER + INTRA:         -12.595
REMARK INTER:                 -11.485
REMARK INTRA:                  -1.109
REMARK UNBOUND:                -1.109
REMARK  5 active torsions:
REMARK  status: ('A' for Active; 'I' for Inactive)
REMARK    1  A    between atoms: C_4  and  C_10 
REMARK    2  A    between atoms: C_5  and  O_8 
REMARK    3  A    between atoms: C_18  and  C_19 
REMARK    4  A    between atoms: C_19  and  N_20 
REMARK    5  A    between atoms: N_23  and  C_26 
ROOT
ATOM      1  C   UNK d   1      21.932   5.230  31.798  0.00  0.00     0.055 C 
ATOM      2  C   UNK d   1      21.508   6.424  32.056  0.00  0.00     0.128 A 
ATOM      3  O   UNK d   1      22.231   7.582  31.981  0.00  0.00    -0.305 OA
ATOM      4  C   UNK d   1      21.410   8.654  32.329  0.00  0.00     0.101 A 
ATOM      5  C   UNK d   1      20.151   8.254  32.644  0.00  0.00     0.051 A 
ATOM      6  C   UNK d   1      19.166   9.180  33.005  0.00  0.00     0.021 A 
ATOM      7  C   UNK d   1      19.417  10.526  33.062  0.00  0.00     0.041 A 
ATOM      8  C   UNK d   1      20.735  10.890  32.733  0.00  0.00     0.118 A 
ATOM      9  C   UNK d   1      21.708  10.021  32.375  0.00  0.00     0.039 A 
ATOM     10  O   UNK d   1      20.946  12.282  32.824  0.00  0.00    -0.191 OA
ATOM     11  C   UNK d   1      20.158   6.796  32.483  0.00  0.00     0.218 A 
ATOM     12  O   UNK d   1      19.181   6.016  32.676  0.00  0.00    -0.284 OA
ENDROOT
BRANCH   1  13
ATOM     13  C   UNK d   1      23.271   4.847  31.370  0.00  0.00     0.001 A 
ATOM     14  C   UNK d   1      23.810   5.379  30.228  0.00  0.00     0.033 A 
ATOM     15  C   UNK d   1      25.086   4.986  29.787  0.00  0.00     0.011 A 
ATOM     16 Br   UNK d   1      25.872   5.704  28.216  0.00  0.00    -0.051 Br
ATOM     17  C   UNK d   1      25.793   4.055  30.515  0.00  0.00     0.022 A 
ATOM     18  C   UNK d   1      25.258   3.524  31.645  0.00  0.00     0.039 A 
ATOM     19  C   UNK d   1      23.986   3.916  32.087  0.00  0.00     0.078 A 
BRANCH  19  20
ATOM     20  O   UNK d   1      23.401   3.424  33.202  0.00  0.00    -0.355 OA
ATOM     21  C   UNK d   1      23.699   2.243  33.864  0.00  0.00     0.210 C 
ENDBRANCH  19  20
ENDBRANCH   1  13
BRANCH   9  22
ATOM     22  C   UNK d   1      23.104  10.394  32.079  0.00  0.00     0.279 C 
BRANCH  22  23
ATOM     23  N   UNK d   1      23.185  11.294  30.953  0.00  0.00    -0.064 N 
ATOM     24  C   UNK d   1      23.360  10.523  29.735  0.00  0.00     0.254 C 
ATOM     25  C   UNK d   1      24.287  11.108  28.756  0.00  0.00     0.144 C 
ATOM     26  N   UNK d   1      24.365  12.534  28.734  0.00  0.00    -0.410 N 
ATOM     27  C   UNK d   1      23.728  13.244  29.748  0.00  0.00     0.144 C 
ATOM     28  C   UNK d   1      23.876  12.482  31.092  0.00  0.00     0.254 C 
ATOM     29  H   UNK d   1      22.113  11.612  30.873  0.00  0.00     0.280 HD
BRANCH  26  30
ATOM     30  C   UNK d   1      25.518  13.100  28.144  0.00  0.00     0.112 C 
ATOM     31  C   UNK d   1      26.427  12.141  27.459  0.00  0.00     0.026 C 
ENDBRANCH  26  30
ENDBRANCH  22  23
ENDBRANCH   9  22
TORSDOF 5
ENDMDL
