/Users/jonathanwahrer/Desktop/Msc/3_Semester/Drug_Design_Praktikum/waehrer_HTS_screening/HTS_experiment/out/docking_results/vina_output/3elj/2041_docked.pdbqt
 OpenBabel03192218483D

 30 33  0  0  0  0  0  0  0  0999 V2000
   24.4760    5.9240   30.8660 N   0  0  0  0  0  0  0  0  0  0  0  0
   23.4470    4.9350   30.6150 C   0  0  0  0  0  2  0  0  0  0  0  0
   22.3190    5.0760   31.6290 C   0  0  0  0  0  2  0  0  0  0  0  0
   21.7520    6.4150   31.4790 N   0  0  0  0  0  0  0  0  0  0  0  0
   22.5140    7.3070   30.6570 C   0  0  0  0  0  2  0  0  0  0  0  0
   23.9500    7.2340   31.1060 C   0  0  0  0  0  2  0  0  0  0  0  0
   20.5430    6.7210   32.1120 C   0  0  0  0  0  0  0  0  0  0  0  0
   19.9540    5.7990   32.8110 O   0  0  0  0  0  0  0  0  0  0  0  0
   19.8010    7.9860   32.1020 C   0  0  0  0  0  2  0  0  0  0  0  0
   20.3680    9.1880   33.2980 S   0  0  0  0  0  0  0  0  0  0  0  0
   21.1620   10.6150   32.5780 C   0  0  0  0  0  0  0  0  0  0  0  0
   22.3390   10.5180   31.9750 N   0  0  0  0  0  0  0  0  0  0  0  0
   22.9660   11.5520   31.4050 C   0  0  0  0  0  3  0  0  0  0  0  0
   22.3590   12.7780   31.4490 N   0  0  0  0  0  0  0  0  0  0  0  0
   21.1720   12.9100   32.0510 C   0  0  0  0  0  0  0  0  0  0  0  0
   20.3660   13.9980   32.2210 N   0  0  0  0  0  0  0  0  0  0  0  0
   20.5280   11.8370   32.6390 C   0  0  0  0  0  0  0  0  0  0  0  0
   19.2890   13.6160   32.8760 N   0  0  0  0  0  0  0  0  0  0  0  0
   20.6460   15.3240   31.7550 C   0  0  0  0  0  1  0  0  0  0  0  0
   19.3480   12.3100   33.1480 C   0  0  0  0  0  3  0  0  0  0  0  0
   25.6050    5.9410   29.5690 S   0  0  0  0  0  0  0  0  0  0  0  0
   24.8420    5.5680   28.3190 O   0  0  0  0  0  0  0  0  0  0  0  0
   26.1820    7.2970   29.3410 O   0  0  0  0  0  0  0  0  0  0  0  0
   26.8660    4.7670   29.8750 C   0  0  0  0  0  0  0  0  0  0  0  0
   27.2440    4.3460   31.1290 C   0  0  0  0  0  3  0  0  0  0  0  0
   28.2500    3.4260   31.3050 C   0  0  0  0  0  3  0  0  0  0  0  0
   28.9120    2.8950   30.1980 C   0  0  0  0  0  0  0  0  0  0  0  0
   28.5380    3.3140   28.9170 C   0  0  0  0  0  3  0  0  0  0  0  0
   30.1850    1.7270   30.4370 Cl  0  0  0  0  0  0  0  0  0  0  0  0
   27.5260    4.2370   28.7670 C   0  0  0  0  0  3  0  0  0  0  0  0
  1  6  1  0  0  0  0
  2  1  1  0  0  0  0
  2  3  1  0  0  0  0
  4  3  1  0  0  0  0
  4  7  1  0  0  0  0
  5  6  1  0  0  0  0
  5  4  1  0  0  0  0
  7  8  2  0  0  0  0
  9  7  1  0  0  0  0
  9 10  1  0  0  0  0
 11 17  1  0  0  0  0
 11 10  1  0  0  0  0
 12 11  2  0  0  0  0
 13 14  2  0  0  0  0
 13 12  1  0  0  0  0
 14 15  1  0  0  0  0
 15 16  1  0  0  0  0
 15 17  2  0  0  0  0
 16 18  1  0  0  0  0
 17 20  1  0  0  0  0
 18 20  2  0  0  0  0
 19 16  1  0  0  0  0
 21 24  1  0  0  0  0
 21  1  1  0  0  0  0
 22 21  2  0  0  0  0
 23 21  2  0  0  0  0
 24 25  1  0  0  0  0
 25 26  2  0  0  0  0
 27 29  1  0  0  0  0
 27 26  1  0  0  0  0
 28 27  2  0  0  0  0
 30 28  1  0  0  0  0
 30 24  2  0  0  0  0
M  END
>  <Pose>
1

>  <Score>
-8.195

$$$$
