MODEL 1
REMARK VINA RESULT:    -7.948      0.000      0.000
REMARK INTER + INTRA:         -10.721
REMARK INTER:                  -9.342
REMARK INTRA:                  -1.379
REMARK UNBOUND:                -1.379
REMARK  3 active torsions:
REMARK  status: ('A' for Active; 'I' for Inactive)
REMARK    1  A    between atoms: S_1  and  N_4 
REMARK    2  A    between atoms: S_1  and  C_24 
REMARK    3  A    between atoms: C_10  and  C_12 
ROOT
ATOM      1  N   UNK d   1      29.264   8.329  27.949  0.00  0.00    -0.304 N 
ATOM      2  C   UNK d   1      29.137   8.665  29.345  0.00  0.00     0.155 C 
ATOM      3  C   UNK d   1      28.873  10.166  29.444  0.00  0.00     0.145 C 
ATOM      4  N   UNK d   1      27.959  10.553  28.436  0.00  0.00    -0.356 N 
ATOM      5  C   UNK d   1      28.657  10.577  27.074  0.00  0.00     0.145 C 
ATOM      6  C   UNK d   1      29.572   9.405  27.081  0.00  0.00     0.155 C 
ATOM      7  C   UNK d   1      26.625  10.839  28.462  0.00  0.00     0.179 C 
ATOM      8  O   UNK d   1      26.236  11.335  27.238  0.00  0.00    -0.172 OA
ENDROOT
BRANCH   7   9
ATOM      9  C   UNK d   1      25.509  10.801  29.322  0.00  0.00     0.090 C 
ATOM     10  C   UNK d   1      24.445  11.469  29.623  0.00  0.00     0.063 A 
ATOM     11  N   UNK d   1      24.084  12.681  29.017  0.00  0.00    -0.297 N 
ATOM     12  C   UNK d   1      23.486  10.916  30.627  0.00  0.00     0.008 A 
ATOM     13  N   UNK d   1      22.896  13.396  29.289  0.00  0.00    -0.265 N 
ATOM     14  H   UNK d   1      24.710  13.142  28.352  0.00  0.00     0.187 HD
ATOM     15  C   UNK d   1      21.996  12.881  30.227  0.00  0.00     0.271 A 
ATOM     16  H   UNK d   1      22.732  14.306  28.763  0.00  0.00     0.190 HD
ATOM     17  O   UNK d   1      20.934  13.507  30.479  0.00  0.00    -0.266 OA
ATOM     18  C   UNK d   1      22.322  11.610  30.898  0.00  0.00     0.046 A 
ATOM     19  C   UNK d   1      21.392  11.152  31.816  0.00  0.00     0.018 A 
ATOM     20  C   UNK d   1      21.613   9.972  32.492  0.00  0.00     0.001 A 
ATOM     21  C   UNK d   1      22.770   9.287  32.218  0.00  0.00     0.001 A 
ATOM     22  C   UNK d   1      23.707   9.752  31.290  0.00  0.00     0.015 A 
ENDBRANCH   7   9
BRANCH   1  23
ATOM     23  S   UNK d   1      28.195   7.162  27.385  0.00  0.00     0.260 S 
ATOM     24  O   UNK d   1      27.463   7.744  26.183  0.00  0.00    -0.200 OA
ATOM     25  O   UNK d   1      29.010   6.007  26.815  0.00  0.00    -0.200 OA
BRANCH  23  26
ATOM     26  C   UNK d   1      27.108   6.517  28.550  0.00  0.00     0.079 A 
ATOM     27  C   UNK d   1      25.987   7.205  28.942  0.00  0.00     0.027 A 
ATOM     28  C   UNK d   1      25.126   6.666  29.881  0.00  0.00     0.025 A 
ATOM     29  C   UNK d   1      25.353   5.436  30.456  0.00  0.00     0.034 A 
ATOM     30  C   UNK d   1      26.484   4.736  30.065  0.00  0.00     0.025 A 
ATOM     31 Cl   UNK d   1      24.232   4.797  31.641  0.00  0.00    -0.084 Cl
ATOM     32  C   UNK d   1      27.342   5.291  29.118  0.00  0.00     0.027 A 
ENDBRANCH  23  26
ENDBRANCH   1  23
TORSDOF 3
ENDMDL
