MODEL 1
REMARK VINA RESULT:    -8.456      0.000      0.000
REMARK INTER + INTRA:         -11.369
REMARK INTER:                 -10.927
REMARK INTRA:                  -0.441
REMARK UNBOUND:                -0.441
REMARK  5 active torsions:
REMARK  status: ('A' for Active; 'I' for Inactive)
REMARK    1  A    between atoms: C_3  and  N_18 
REMARK    2  A    between atoms: C_5  and  N_8 
REMARK    3  A    between atoms: N_8  and  C_9 
REMARK    4  A    between atoms: C_9  and  C_10 
REMARK       I    between atoms: C_10  and  N_12 
REMARK    5  A    between atoms: C_22  and  C_23 
ROOT
ATOM      1 Cl   UNK d   1      22.587  15.584  32.879  0.00  0.00    -0.082 Cl
ATOM      2  C   UNK d   1      22.691  14.198  31.839  0.00  0.00     0.063 A 
ATOM      3  C   UNK d   1      21.589  13.724  31.174  0.00  0.00     0.086 A 
ATOM      4  C   UNK d   1      21.736  12.620  30.364  0.00  0.00     0.062 A 
ATOM      5  C   UNK d   1      22.936  11.966  30.186  0.00  0.00     0.030 A 
ATOM      6  C   UNK d   1      24.032  12.455  30.860  0.00  0.00     0.031 A 
ATOM      7  C   UNK d   1      23.894  13.559  31.673  0.00  0.00     0.028 A 
ENDROOT
BRANCH   5   8
ATOM      8  N   UNK d   1      23.061  10.806  29.325  0.00  0.00    -0.382 N 
ATOM      9  H   UNK d   1      23.778  10.759  28.595  0.00  0.00     0.160 HD
BRANCH   8  10
ATOM     10  C   UNK d   1      22.140   9.747  29.553  0.00  0.00     0.207 C 
BRANCH  10  11
ATOM     11  C   UNK d   1      22.658   8.464  30.020  0.00  0.00     0.171 C 
ATOM     12  O   UNK d   1      23.660   8.035  29.292  0.00  0.00    -0.175 OA
ATOM     13  N   UNK d   1      22.294   7.645  31.059  0.00  0.00    -0.358 N 
ATOM     14  C   UNK d   1      21.309   7.925  32.054  0.00  0.00     0.151 C 
ATOM     15  C   UNK d   1      22.920   6.312  31.199  0.00  0.00     0.151 C 
ATOM     16  C   UNK d   1      20.242   6.836  31.995  0.00  0.00     0.187 C 
ATOM     17  O   UNK d   1      20.923   5.650  32.350  0.00  0.00    -0.388 OA
ATOM     18  C   UNK d   1      21.766   5.310  31.314  0.00  0.00     0.187 C 
ENDBRANCH  10  11
ENDBRANCH   8  10
ENDBRANCH   5   8
BRANCH   3  19
ATOM     19  N   UNK d   1      20.320  14.315  31.298  0.00  0.00    -0.196 N 
ATOM     20  N   UNK d   1      19.970  15.459  30.746  0.00  0.00    -0.039 NA
ATOM     21  N   UNK d   1      18.714  15.739  31.037  0.00  0.00    -0.023 NA
ATOM     22  N   UNK d   1      18.277  14.747  31.786  0.00  0.00    -0.113 NA
ATOM     23  C   UNK d   1      19.278  13.834  31.963  0.00  0.00     0.158 A 
BRANCH  23  24
ATOM     24  C   UNK d   1      19.104  12.621  32.761  0.00  0.00     0.059 A 
ATOM     25  C   UNK d   1      20.138  11.633  33.045  0.00  0.00     0.013 A 
ATOM     26  C   UNK d   1      19.806  12.650  34.150  0.00  0.00     0.013 A 
ENDBRANCH  23  24
ENDBRANCH   3  19
TORSDOF 5
ENDMDL
