/Users/jonathanwahrer/Desktop/Msc/3_Semester/Drug_Design_Praktikum/waehrer_HTS_screening/HTS_experiment/out/docking_results/vina_output/3elj/2046_docked.pdbqt
 OpenBabel03192218493D

 26 29  0  0  0  0  0  0  0  0999 V2000
   22.5870   15.5840   32.8790 Cl  0  0  0  0  0  0  0  0  0  0  0  0
   22.6910   14.1980   31.8390 C   0  0  0  0  0  0  0  0  0  0  0  0
   21.5890   13.7240   31.1740 C   0  0  0  0  0  0  0  0  0  0  0  0
   21.7360   12.6200   30.3640 C   0  0  0  0  0  3  0  0  0  0  0  0
   22.9360   11.9660   30.1860 C   0  0  0  0  0  0  0  0  0  0  0  0
   24.0320   12.4550   30.8600 C   0  0  0  0  0  3  0  0  0  0  0  0
   23.8940   13.5590   31.6730 C   0  0  0  0  0  3  0  0  0  0  0  0
   23.0610   10.8060   29.3250 N   0  0  0  0  0  0  0  0  0  0  0  0
   23.7780   10.7590   28.5950 H   0  0  0  0  0  0  0  0  0  0  0  0
   22.1400    9.7470   29.5530 C   0  0  0  0  0  2  0  0  0  0  0  0
   22.6580    8.4640   30.0200 C   0  0  0  0  0  0  0  0  0  0  0  0
   23.6600    8.0350   29.2920 O   0  0  0  0  0  0  0  0  0  0  0  0
   22.2940    7.6450   31.0590 N   0  0  0  0  0  0  0  0  0  0  0  0
   21.3090    7.9250   32.0540 C   0  0  0  0  0  2  0  0  0  0  0  0
   22.9200    6.3120   31.1990 C   0  0  0  0  0  2  0  0  0  0  0  0
   20.2420    6.8360   31.9950 C   0  0  0  0  0  2  0  0  0  0  0  0
   20.9230    5.6500   32.3500 O   0  0  0  0  0  0  0  0  0  0  0  0
   21.7660    5.3100   31.3140 C   0  0  0  0  0  2  0  0  0  0  0  0
   20.3200   14.3150   31.2980 N   0  0  0  0  0  0  0  0  0  0  0  0
   19.9700   15.4590   30.7460 N   0  0  0  0  0  0  0  0  0  0  0  0
   18.7140   15.7390   31.0370 N   0  0  0  0  0  0  0  0  0  0  0  0
   18.2770   14.7470   31.7860 N   0  0  0  0  0  0  0  0  0  0  0  0
   19.2780   13.8340   31.9630 C   0  0  0  0  0  0  0  0  0  0  0  0
   19.1040   12.6210   32.7610 C   0  0  0  0  0  3  0  0  0  0  0  0
   20.1380   11.6330   33.0450 C   0  0  0  0  0  2  0  0  0  0  0  0
   19.8060   12.6500   34.1500 C   0  0  0  0  0  2  0  0  0  0  0  0
  2  1  1  0  0  0  0
  3 19  1  0  0  0  0
  3  2  2  0  0  0  0
  4  3  1  0  0  0  0
  5  4  2  0  0  0  0
  5  6  1  0  0  0  0
  6  7  2  0  0  0  0
  7  2  1  0  0  0  0
  8 10  1  0  0  0  0
  8  5  1  0  0  0  0
  9  8  1  0  0  0  0
 10 11  1  0  0  0  0
 11 13  1  0  0  0  0
 12 11  2  0  0  0  0
 13 15  1  0  0  0  0
 13 14  1  0  0  0  0
 15 18  1  0  0  0  0
 16 14  1  0  0  0  0
 16 17  1  0  0  0  0
 18 17  1  0  0  0  0
 19 23  1  0  0  0  0
 20 21  2  0  0  0  0
 20 19  1  0  0  0  0
 21 22  1  0  0  0  0
 22 23  2  0  0  0  0
 23 24  1  0  0  0  0
 24 25  1  0  0  0  0
 24 26  1  0  0  0  0
 25 26  1  0  0  0  0
M  END
>  <Pose>
1

>  <Score>
-8.456

$$$$
