/Users/jonathanwahrer/Desktop/Msc/3_Semester/Drug_Design_Praktikum/waehrer_HTS_screening/HTS_experiment/out/docking_results/vina_output/3elj/2063_docked.pdbqt
 OpenBabel03192218493D

 34 37  0  0  1  0  0  0  0  0999 V2000
   24.2410    6.9710   30.3820 C   0  0  0  0  0  0  0  0  0  0  0  0
   24.8780    8.2080   30.4400 C   0  0  0  0  0  3  0  0  0  0  0  0
   24.3130    9.2680   30.9680 O   0  0  0  0  0  0  0  0  0  0  0  0
   23.1060    9.2500   31.4820 C   0  0  0  0  0  0  0  0  0  0  0  0
   22.3980    8.0720   31.4700 C   0  0  0  0  0  0  0  0  0  0  0  0
   21.1390    8.0990   32.0180 C   0  0  0  0  0  3  0  0  0  0  0  0
   20.5760    9.2260   32.5610 C   0  0  0  0  0  3  0  0  0  0  0  0
   21.2860   10.4450   32.5850 C   0  0  0  0  0  0  0  0  0  0  0  0
   22.5450   10.4090   32.0340 C   0  0  0  0  0  3  0  0  0  0  0  0
   22.9610    6.9390   30.9230 C   0  0  0  0  0  0  0  0  0  0  0  0
   22.3130    5.8580   30.9110 O   0  0  0  0  0  0  0  0  0  0  0  0
   20.6850   11.5550   33.1410 O   0  0  0  0  0  0  0  0  0  0  0  0
   20.2990   12.6860   32.4830 C   0  0  2  0  0  3  0  0  0  0  0  0
   21.1520   13.7960   32.7290 O   0  0  0  0  0  0  0  0  0  0  0  0
   20.9750   14.6400   31.6550 C   0  0  1  0  0  3  0  0  0  0  0  0
   19.5960   15.2100   31.5340 C   0  0  2  0  0  3  0  0  0  0  0  0
   18.5220   14.1780   31.7790 C   0  0  1  0  0  3  0  0  0  0  0  0
   18.9200   13.1950   32.8600 C   0  0  1  0  0  3  0  0  0  0  0  0
   21.9930   15.7510   31.6050 C   0  0  0  0  0  2  0  0  0  0  0  0
   21.4040   17.0070   31.7300 O   0  0  0  0  0  0  0  0  0  0  0  0
   20.4110   16.8400   31.6900 H   0  0  0  0  0  0  0  0  0  0  0  0
   19.4410   15.6410   30.2060 O   0  0  0  0  0  0  0  0  0  0  0  0
   20.0800   16.3680   29.9980 H   0  0  0  0  0  0  0  0  0  0  0  0
   17.3200   14.8160   32.0580 O   0  0  0  0  0  0  0  0  0  0  0  0
   17.1060   15.5330   31.3850 H   0  0  0  0  0  0  0  0  0  0  0  0
   17.9810   12.1700   32.8750 O   0  0  0  0  0  0  0  0  0  0  0  0
   18.2610   11.4460   33.4820 H   0  0  0  0  0  0  0  0  0  0  0  0
   24.8830    5.8140   29.7950 C   0  0  0  0  0  0  0  0  0  0  0  0
   25.1240    4.6480   30.4920 C   0  0  0  0  0  3  0  0  0  0  0  0
   25.7450    3.5740   29.8670 C   0  0  0  0  0  3  0  0  0  0  0  0
   26.1430    3.6210   28.5500 C   0  0  0  0  0  0  0  0  0  0  0  0
   26.9970    2.1340   27.7040 Br  0  0  0  0  0  0  0  0  0  0  0  0
   25.9020    4.7940   27.8490 C   0  0  0  0  0  3  0  0  0  0  0  0
   25.2840    5.8600   28.4700 C   0  0  0  0  0  3  0  0  0  0  0  0
  1  2  2  0  0  0  0
  1 10  1  0  0  0  0
  2  3  1  0  0  0  0
  3  4  1  0  0  0  0
  4  9  1  0  0  0  0
  5  4  2  0  0  0  0
  5  6  1  0  0  0  0
  6  7  2  0  0  0  0
  7  8  1  0  0  0  0
  8 12  1  0  0  0  0
  9  8  2  0  0  0  0
 10  5  1  0  0  0  0
 11 10  2  0  0  0  0
 13 14  1  0  0  0  0
 13 18  1  0  0  0  0
 13 12  1  1  0  0  0
 15 19  1  1  0  0  0
 15 14  1  0  0  0  0
 16 22  1  6  0  0  0
 16 15  1  0  0  0  0
 16 17  1  0  0  0  0
 17 24  1  1  0  0  0
 17 18  1  0  0  0  0
 18 26  1  6  0  0  0
 19 20  1  0  0  0  0
 21 20  1  0  0  0  0
 23 22  1  0  0  0  0
 25 24  1  0  0  0  0
 26 27  1  0  0  0  0
 28  1  1  0  0  0  0
 28 29  1  0  0  0  0
 30 29  2  0  0  0  0
 31 30  1  0  0  0  0
 32 31  1  0  0  0  0
 33 34  1  0  0  0  0
 33 31  2  0  0  0  0
 34 28  2  0  0  0  0
M  END
>  <Pose>
1

>  <Score>
-9.153

$$$$
