/Users/jonathanwahrer/Desktop/Msc/3_Semester/Drug_Design_Praktikum/waehrer_HTS_screening/HTS_experiment/out/docking_results/vina_output/3elj/2087_docked.pdbqt
 OpenBabel03192218503D

 32 35  0  0  0  0  0  0  0  0999 V2000
   25.2730    7.0390   29.1260 N   0  0  0  0  0  0  0  0  0  0  0  0
   26.4020    6.6910   28.4270 C   0  0  0  0  0  0  0  0  0  0  0  0
   27.3830    7.6410   28.6330 C   0  0  0  0  0  0  0  0  0  0  0  0
   26.8310    8.5460   29.4480 N   0  0  0  0  0  0  0  0  0  0  0  0
   25.5430    8.1860   29.7500 C   0  0  0  0  0  0  0  0  0  0  0  0
   28.5910    7.5310   28.0470 N   0  0  0  0  0  0  0  0  0  0  0  0
   28.8170    6.4740   27.2540 C   0  0  0  0  0  0  0  0  0  0  0  0
   29.9470    6.3820   26.7120 O   0  0  0  0  0  0  0  0  0  0  0  0
   27.8920    5.5350   27.0290 N   0  0  0  0  0  0  0  0  0  0  0  0
   26.6560    5.6120   27.6070 C   0  0  0  0  0  0  0  0  0  0  0  0
   25.8100    4.7160   27.3730 O   0  0  0  0  0  0  0  0  0  0  0  0
   29.5950    8.5490   28.2950 C   0  0  0  0  0  1  0  0  0  0  0  0
   28.0860    4.7120   26.4020 H   0  0  0  0  0  0  0  0  0  0  0  0
   24.7050    9.0150   30.5120 N   0  0  0  0  0  0  0  0  0  0  0  0
   24.6790    9.2480   31.9110 C   0  0  0  0  0  2  0  0  0  0  0  0
   23.2820    9.6340   32.4090 C   0  0  0  0  0  2  0  0  0  0  0  0
   22.2100    9.1990   31.6120 N   0  0  0  0  0  0  0  0  0  0  0  0
   22.3060    9.4110   30.2220 C   0  0  0  0  0  2  0  0  0  0  0  0
   23.6900    9.8000   29.7560 C   0  0  0  0  0  2  0  0  0  0  0  0
   21.3170    8.2290   32.0960 C   0  0  0  0  0  2  0  0  0  0  0  0
   19.9960    8.6900   32.5490 C   0  0  0  0  0  0  0  0  0  0  0  0
   19.8510    9.6020   33.4060 O   0  0  0  0  0  0  0  0  0  0  0  0
   18.8550    8.1150   32.0310 O   0  0  0  0  0  0  0  0  0  0  0  0
   18.0080    7.2980   32.7900 C   0  0  0  0  0  1  0  0  0  0  0  0
   24.0700    6.2470   29.1550 C   0  0  0  0  0  2  0  0  0  0  0  0
   24.0660    5.2970   30.3380 C   0  0  0  0  0  0  0  0  0  0  0  0
   22.8890    5.1460   31.0100 C   0  0  0  0  0  3  0  0  0  0  0  0
   22.8310    4.2560   32.0830 C   0  0  0  0  0  3  0  0  0  0  0  0
   23.9490    3.5430   32.4550 C   0  0  0  0  0  0  0  0  0  0  0  0
   23.8940    2.3200   33.9180 Br  0  0  0  0  0  0  0  0  0  0  0  0
   25.1270    3.7220   31.7510 C   0  0  0  0  0  3  0  0  0  0  0  0
   25.1830    4.5970   30.6940 C   0  0  0  0  0  3  0  0  0  0  0  0
  1 25  1  0  0  0  0
  1  5  1  0  0  0  0
  2  3  2  0  0  0  0
  2  1  1  0  0  0  0
  3  4  1  0  0  0  0
  4  5  2  0  0  0  0
  5 14  1  0  0  0  0
  6 12  1  0  0  0  0
  6  3  1  0  0  0  0
  7  6  1  0  0  0  0
  8  7  2  0  0  0  0
  9  7  1  0  0  0  0
  9 10  1  0  0  0  0
 10  2  1  0  0  0  0
 11 10  2  0  0  0  0
 13  9  1  0  0  0  0
 14 15  1  0  0  0  0
 15 16  1  0  0  0  0
 17 20  1  0  0  0  0
 17 16  1  0  0  0  0
 18 17  1  0  0  0  0
 19 18  1  0  0  0  0
 19 14  1  0  0  0  0
 20 21  1  0  0  0  0
 21 22  2  0  0  0  0
 23 21  1  0  0  0  0
 23 24  1  0  0  0  0
 25 26  1  0  0  0  0
 26 32  2  0  0  0  0
 26 27  1  0  0  0  0
 27 28  2  0  0  0  0
 28 29  1  0  0  0  0
 29 30  1  0  0  0  0
 31 29  2  0  0  0  0
 32 31  1  0  0  0  0
M  END
>  <Pose>
1

>  <Score>
-7.666

$$$$
