MODEL 1
REMARK VINA RESULT:    -7.666      0.000      0.000
REMARK INTER + INTRA:         -11.427
REMARK INTER:                 -10.355
REMARK INTRA:                  -1.072
REMARK UNBOUND:                -1.072
REMARK  6 active torsions:
REMARK  status: ('A' for Active; 'I' for Inactive)
REMARK    1  A    between atoms: C_5  and  C_8 
REMARK    2  A    between atoms: C_8  and  N_9 
REMARK    3  A    between atoms: C_13  and  N_14 
REMARK    4  A    between atoms: N_17  and  C_20 
REMARK    5  A    between atoms: C_20  and  C_21 
REMARK    6  A    between atoms: C_21  and  O_23 
ROOT
ATOM      1  N   UNK d   1      25.273   7.039  29.126  0.00  0.00    -0.168 N 
ATOM      2  C   UNK d   1      26.402   6.691  28.427  0.00  0.00     0.167 A 
ATOM      3  C   UNK d   1      27.383   7.641  28.633  0.00  0.00     0.185 A 
ATOM      4  N   UNK d   1      26.831   8.546  29.448  0.00  0.00    -0.044 NA
ATOM      5  C   UNK d   1      25.543   8.186  29.750  0.00  0.00     0.707 A 
ATOM      6  N   UNK d   1      28.591   7.531  28.047  0.00  0.00    -0.286 N 
ATOM      7  C   UNK d   1      28.817   6.474  27.254  0.00  0.00     0.330 A 
ATOM      8  O   UNK d   1      29.947   6.382  26.712  0.00  0.00    -0.246 OA
ATOM      9  N   UNK d   1      27.892   5.535  27.029  0.00  0.00    -0.273 N 
ATOM     10  C   UNK d   1      26.656   5.612  27.607  0.00  0.00     0.280 A 
ATOM     11  O   UNK d   1      25.810   4.716  27.373  0.00  0.00    -0.265 OA
ATOM     12  C   UNK d   1      29.595   8.549  28.295  0.00  0.00     0.163 C 
ATOM     13  H   UNK d   1      28.086   4.712  26.402  0.00  0.00     0.173 HD
ENDROOT
BRANCH   5  14
ATOM     14  N   UNK d   1      24.705   9.015  30.512  0.00  0.00    -0.212 N 
ATOM     15  C   UNK d   1      24.679   9.248  31.911  0.00  0.00     0.160 C 
ATOM     16  C   UNK d   1      23.282   9.634  32.409  0.00  0.00     0.137 C 
ATOM     17  N   UNK d   1      22.210   9.199  31.612  0.00  0.00    -0.400 N 
ATOM     18  C   UNK d   1      22.306   9.411  30.222  0.00  0.00     0.137 C 
ATOM     19  C   UNK d   1      23.690   9.800  29.756  0.00  0.00     0.160 C 
BRANCH  17  20
ATOM     20  C   UNK d   1      21.317   8.229  32.096  0.00  0.00     0.228 C 
BRANCH  20  21
ATOM     21  C   UNK d   1      19.996   8.690  32.549  0.00  0.00     0.276 C 
ATOM     22  O   UNK d   1      19.851   9.602  33.406  0.00  0.00    -0.263 OA
BRANCH  21  23
ATOM     23  O   UNK d   1      18.855   8.115  32.031  0.00  0.00    -0.325 OA
ATOM     24  C   UNK d   1      18.008   7.298  32.790  0.00  0.00     0.213 C 
ENDBRANCH  21  23
ENDBRANCH  20  21
ENDBRANCH  17  20
ENDBRANCH   5  14
BRANCH   1  25
ATOM     25  C   UNK d   1      24.070   6.247  29.155  0.00  0.00     0.186 C 
BRANCH  25  26
ATOM     26  C   UNK d   1      24.066   5.297  30.338  0.00  0.00    -0.039 A 
ATOM     27  C   UNK d   1      22.889   5.146  31.010  0.00  0.00     0.010 A 
ATOM     28  C   UNK d   1      22.831   4.256  32.083  0.00  0.00     0.019 A 
ATOM     29  C   UNK d   1      23.949   3.543  32.455  0.00  0.00     0.011 A 
ATOM     30 Br   UNK d   1      23.894   2.320  33.918  0.00  0.00    -0.051 Br
ATOM     31  C   UNK d   1      25.127   3.722  31.751  0.00  0.00     0.019 A 
ATOM     32  C   UNK d   1      25.183   4.597  30.694  0.00  0.00     0.010 A 
ENDBRANCH  25  26
ENDBRANCH   1  25
TORSDOF 6
ENDMDL
