MODEL 1
REMARK VINA RESULT:    -8.176      0.000      0.000
REMARK INTER + INTRA:         -10.091
REMARK INTER:                  -9.609
REMARK INTRA:                  -0.482
REMARK UNBOUND:                -0.482
REMARK  3 active torsions:
REMARK  status: ('A' for Active; 'I' for Inactive)
REMARK    1  A    between atoms: C_5  and  C_8 
REMARK    2  A    between atoms: C_8  and  N_9 
REMARK    3  A    between atoms: C_13  and  N_14 
ROOT
ATOM      1  N   UNK d   1      22.191   7.687  31.092  0.00  0.00    -0.168 N 
ATOM      2  C   UNK d   1      21.004   7.530  31.695  0.00  0.00     0.167 A 
ATOM      3  C   UNK d   1      20.728   8.657  32.437  0.00  0.00     0.185 A 
ATOM      4  N   UNK d   1      21.760   9.468  32.262  0.00  0.00    -0.044 NA
ATOM      5  C   UNK d   1      22.666   8.906  31.448  0.00  0.00     0.707 A 
ATOM      6  N   UNK d   1      19.593   8.819  33.163  0.00  0.00    -0.286 N 
ATOM      7  C   UNK d   1      18.707   7.812  33.136  0.00  0.00     0.330 A 
ATOM      8  O   UNK d   1      17.662   7.978  33.814  0.00  0.00    -0.246 OA
ATOM      9  N   UNK d   1      18.916   6.688  32.428  0.00  0.00    -0.273 N 
ATOM     10  C   UNK d   1      20.039   6.517  31.705  0.00  0.00     0.280 A 
ATOM     11  O   UNK d   1      20.261   5.495  31.040  0.00  0.00    -0.265 OA
ATOM     12  C   UNK d   1      19.392  10.039  33.916  0.00  0.00     0.163 C 
ATOM     13  H   UNK d   1      18.220   5.912  32.410  0.00  0.00     0.173 HD
ENDROOT
BRANCH   1  14
ATOM     14  C   UNK d   1      22.853   6.737  30.231  0.00  0.00     0.186 C 
BRANCH  14  15
ATOM     15  C   UNK d   1      23.670   5.713  30.850  0.00  0.00    -0.039 A 
ATOM     16  C   UNK d   1      23.240   4.730  31.686  0.00  0.00     0.010 A 
ATOM     17  C   UNK d   1      24.078   3.750  32.216  0.00  0.00     0.019 A 
ATOM     18  C   UNK d   1      25.429   3.761  31.882  0.00  0.00     0.011 A 
ATOM     19 Br   UNK d   1      26.641   2.451  32.550  0.00  0.00    -0.051 Br
ATOM     20  C   UNK d   1      25.908   4.737  31.039  0.00  0.00     0.019 A 
ATOM     21  C   UNK d   1      25.044   5.684  30.542  0.00  0.00     0.010 A 
ENDBRANCH  14  15
ENDBRANCH   1  14
BRANCH   5  22
ATOM     22  N   UNK d   1      23.912   9.474  31.025  0.00  0.00    -0.213 N 
ATOM     23  C   UNK d   1      24.735  10.114  32.028  0.00  0.00     0.160 C 
ATOM     24  C   UNK d   1      24.819  11.594  31.685  0.00  0.00     0.136 C 
ATOM     25  N   UNK d   1      24.578  11.859  30.306  0.00  0.00    -0.414 N 
ATOM     26  C   UNK d   1      24.972  10.838  29.393  0.00  0.00     0.136 C 
ATOM     27  C   UNK d   1      23.428  12.612  29.974  0.00  0.00     0.143 C 
ATOM     28  C   UNK d   1      24.404   9.471  29.673  0.00  0.00     0.160 C 
ENDBRANCH   5  22
TORSDOF 3
ENDMDL
