MODEL 1
REMARK VINA RESULT:    -5.859      0.000      0.000
REMARK INTER + INTRA:          -6.030
REMARK INTER:                  -6.030
REMARK INTRA:                   0.000
REMARK UNBOUND:                 0.000
REMARK  1 active torsions:
REMARK  status: ('A' for Active; 'I' for Inactive)
REMARK    1  A    between atoms: C_12  and  N_16 
ROOT
ATOM      1 Cl   UNK d   1      29.950  16.199  20.439  0.00  0.00    -0.082 Cl
ATOM      2  C   UNK d   1      28.813  15.244  21.367  0.00  0.00     0.061 A 
ATOM      3  C   UNK d   1      28.815  15.295  22.761  0.00  0.00     0.065 A 
ATOM      4  C   UNK d   1      27.947  14.567  23.520  0.00  0.00    -0.002 A 
ATOM      5  C   UNK d   1      27.048  13.763  22.833  0.00  0.00     0.011 A 
ATOM      6  C   UNK d   1      27.030  13.699  21.457  0.00  0.00     0.002 A 
ATOM      7  C   UNK d   1      27.915  14.442  20.708  0.00  0.00     0.026 A 
ATOM      8  C   UNK d   1      28.208  14.844  24.947  0.00  0.00     0.146 A 
ATOM      9  C   UNK d   1      28.651  13.585  25.650  0.00  0.00     0.071 A 
ATOM     10  C   UNK d   1      28.054  13.101  26.703  0.00  0.00     0.060 A 
ATOM     11  N   UNK d   1      26.914  13.736  27.278  0.00  0.00    -0.342 N 
ATOM     12  C   UNK d   1      26.430  14.925  26.680  0.00  0.00     0.118 A 
ATOM     13  C   UNK d   1      27.025  15.422  25.620  0.00  0.00     0.093 A 
ATOM     14  C   UNK d   1      26.494  16.647  25.036  0.00  0.00     0.101 C 
ATOM     15  N   UNK d   1      26.082  17.616  24.558  0.00  0.00    -0.191 NA
ATOM     16  C   UNK d   1      28.752  11.869  27.123  0.00  0.00     0.106 A 
ATOM     17  O   UNK d   1      29.782  11.698  26.231  0.00  0.00    -0.301 OA
ATOM     18  C   UNK d   1      29.771  12.718  25.308  0.00  0.00     0.294 A 
ATOM     19  O   UNK d   1      30.573  12.899  24.326  0.00  0.00    -0.259 OA
ATOM     20  C   UNK d   1      27.760  10.727  27.154  0.00  0.00     0.053 C 
ATOM     21  C   UNK d   1      29.339  12.000  28.517  0.00  0.00     0.053 C 
ATOM     22  C   UNK d   1      29.326  15.815  24.936  0.00  0.00     0.246 A 
ATOM     23  O   UNK d   1      29.892  16.342  25.960  0.00  0.00    -0.271 OA
ATOM     24  N   UNK d   1      29.668  16.064  23.591  0.00  0.00    -0.324 N 
ATOM     25  H   UNK d   1      26.432  13.354  28.119  0.00  0.00     0.167 HD
ATOM     26  H   UNK d   1      30.445  16.729  23.291  0.00  0.00     0.169 HD
ENDROOT
BRANCH  12  27
ATOM     27  N   UNK d   1      25.293  15.619  27.201  0.00  0.00    -0.384 N 
ATOM     28  H   UNK d   1      25.386  16.569  27.584  0.00  0.00     0.157 HD
ATOM     29  H   UNK d   1      24.381  15.146  27.184  0.00  0.00     0.157 HD
ENDBRANCH  12  27
TORSDOF 1
ENDMDL
