MODEL 1
REMARK VINA RESULT:    -7.414      0.000      0.000
REMARK INTER + INTRA:          -8.286
REMARK INTER:                  -7.848
REMARK INTRA:                  -0.438
REMARK UNBOUND:                -0.438
REMARK  1 active torsions:
REMARK  status: ('A' for Active; 'I' for Inactive)
REMARK    1  A    between atoms: C_5  and  N_8 
ROOT
ATOM      1  N   UNK d   1      22.753  11.377  31.121  0.00  0.00    -0.250 N 
ATOM      2  C   UNK d   1      22.456  12.189  29.975  0.00  0.00     0.263 C 
ATOM      3  O   UNK d   1      21.484  12.042  29.193  0.00  0.00    -0.270 OA
ATOM      4  C   UNK d   1      23.479  13.250  29.830  0.00  0.00     0.259 C 
ATOM      5  O   UNK d   1      22.921  14.516  29.697  0.00  0.00    -0.266 OA
ATOM      6  N   UNK d   1      22.321  14.822  30.835  0.00  0.00    -0.288 N 
ATOM      7  C   UNK d   1      22.868  14.111  31.905  0.00  0.00     0.125 C 
ATOM      8  C   UNK d   1      24.011  13.327  31.258  0.00  0.00     0.144 C 
ATOM      9  C   UNK d   1      23.971  11.898  31.650  0.00  0.00     0.240 C 
ATOM     10  O   UNK d   1      24.808  11.218  32.316  0.00  0.00    -0.272 OA
ATOM     11  C   UNK d   1      23.284  14.832  33.115  0.00  0.00     0.028 C 
ATOM     12  C   UNK d   1      23.040  16.289  33.176  0.00  0.00     0.004 C 
ATOM     13  C   UNK d   1      21.762  16.600  32.430  0.00  0.00     0.022 C 
ATOM     14  C   UNK d   1      21.987  16.176  31.002  0.00  0.00     0.150 C 
ENDROOT
BRANCH   1  15
ATOM     15  C   UNK d   1      22.002  10.278  31.639  0.00  0.00     0.045 A 
ATOM     16  C   UNK d   1      21.016  10.417  32.592  0.00  0.00     0.032 A 
ATOM     17  C   UNK d   1      20.294   9.345  33.089  0.00  0.00     0.026 A 
ATOM     18  C   UNK d   1      20.543   8.068  32.631  0.00  0.00     0.034 A 
ATOM     19 Cl   UNK d   1      19.633   6.702  33.253  0.00  0.00    -0.084 Cl
ATOM     20  C   UNK d   1      21.527   7.916  31.677  0.00  0.00     0.026 A 
ATOM     21  C   UNK d   1      22.245   8.989  31.185  0.00  0.00     0.032 A 
ENDBRANCH   1  15
TORSDOF 1
ENDMDL
