/Users/jonathanwahrer/Desktop/Msc/3_Semester/Drug_Design_Praktikum/waehrer_HTS_screening/HTS_experiment/out/docking_results/vina_output/3elj/2109_docked.pdbqt
 OpenBabel03192218503D

 21 24  0  0  1  0  0  0  0  0999 V2000
   22.7530   11.3770   31.1210 N   0  0  0  0  0  0  0  0  0  0  0  0
   22.4560   12.1890   29.9750 C   0  0  0  0  0  0  0  0  0  0  0  0
   21.4840   12.0420   29.1930 O   0  0  0  0  0  0  0  0  0  0  0  0
   23.4790   13.2500   29.8300 C   0  0  1  0  0  3  0  0  0  0  0  0
   22.9210   14.5160   29.6970 O   0  0  0  0  0  0  0  0  0  0  0  0
   22.3210   14.8220   30.8350 N   0  0  1  0  0  0  0  0  0  0  0  0
   22.8680   14.1110   31.9050 C   0  0  1  0  0  3  0  0  0  0  0  0
   24.0110   13.3270   31.2580 C   0  0  1  0  0  3  0  0  0  0  0  0
   23.9710   11.8980   31.6500 C   0  0  0  0  0  0  0  0  0  0  0  0
   24.8080   11.2180   32.3160 O   0  0  0  0  0  0  0  0  0  0  0  0
   23.2840   14.8320   33.1150 C   0  0  0  0  0  2  0  0  0  0  0  0
   23.0400   16.2890   33.1760 C   0  0  0  0  0  2  0  0  0  0  0  0
   21.7620   16.6000   32.4300 C   0  0  0  0  0  2  0  0  0  0  0  0
   21.9870   16.1760   31.0020 C   0  0  0  0  0  2  0  0  0  0  0  0
   22.0020   10.2780   31.6390 C   0  0  0  0  0  0  0  0  0  0  0  0
   21.0160   10.4170   32.5920 C   0  0  0  0  0  3  0  0  0  0  0  0
   20.2940    9.3450   33.0890 C   0  0  0  0  0  3  0  0  0  0  0  0
   20.5430    8.0680   32.6310 C   0  0  0  0  0  0  0  0  0  0  0  0
   19.6330    6.7020   33.2530 Cl  0  0  0  0  0  0  0  0  0  0  0  0
   21.5270    7.9160   31.6770 C   0  0  0  0  0  3  0  0  0  0  0  0
   22.2450    8.9890   31.1850 C   0  0  0  0  0  3  0  0  0  0  0  0
  1 15  1  0  0  0  0
  1  9  1  0  0  0  0
  2  1  1  0  0  0  0
  3  2  2  0  0  0  0
  4  5  1  1  0  0  0
  4  2  1  0  0  0  0
  4  8  1  0  0  0  0
  5  6  1  0  0  0  0
  6 14  1  1  0  0  0
  6  7  1  0  0  0  0
  7 11  1  1  0  0  0
  8  9  1  1  0  0  0
  8  7  1  0  0  0  0
  9 10  2  0  0  0  0
 11 12  1  0  0  0  0
 13 12  1  0  0  0  0
 14 13  1  0  0  0  0
 15 16  1  0  0  0  0
 16 17  2  0  0  0  0
 18 17  1  0  0  0  0
 18 19  1  0  0  0  0
 20 18  2  0  0  0  0
 21 15  2  0  0  0  0
 21 20  1  0  0  0  0
M  END
>  <Pose>
1

>  <Score>
-7.414

$$$$
