MODEL 1
REMARK VINA RESULT:    -8.462      0.000      0.000
REMARK INTER + INTRA:         -12.609
REMARK INTER:                 -11.430
REMARK INTRA:                  -1.178
REMARK UNBOUND:                -1.178
REMARK  7 active torsions:
REMARK  status: ('A' for Active; 'I' for Inactive)
REMARK    1  A    between atoms: C_3  and  O_30 
REMARK    2  A    between atoms: C_5  and  O_29 
REMARK    3  A    between atoms: C_6  and  C_8 
REMARK    4  A    between atoms: N_9  and  N_10 
REMARK    5  A    between atoms: N_10  and  C_11 
REMARK    6  A    between atoms: C_13  and  N_23 
REMARK    7  A    between atoms: C_15  and  N_17 
ROOT
ATOM      1  C   UNK d   1      23.157  10.285  31.710  0.00  0.00     0.774 A 
ATOM      2  N   UNK d   1      22.740  11.540  31.644  0.00  0.00     0.133 NA
ATOM      3  C   UNK d   1      21.519  11.954  32.025  0.00  0.00     0.756 A 
ATOM      4  N   UNK d   1      20.681  11.008  32.503  0.00  0.00     0.131 NA
ATOM      5  C   UNK d   1      21.051   9.703  32.596  0.00  0.00     0.756 A 
ATOM      6  N   UNK d   1      22.300   9.360  32.193  0.00  0.00     0.133 NA
ENDROOT
BRANCH   1   7
ATOM      7  N   UNK d   1      24.457   9.935  31.253  0.00  0.00    -0.105 N 
ATOM      8  H   UNK d   1      25.154  10.674  31.102  0.00  0.00     0.208 HD
BRANCH   7   9
ATOM      9  N   UNK d   1      24.786   8.612  31.011  0.00  0.00    -0.171 NA
ATOM     10  C   UNK d   1      24.525   7.991  29.912  0.00  0.00     0.153 C 
BRANCH  10  11
ATOM     11  C   UNK d   1      24.885   6.603  29.708  0.00  0.00     0.018 A 
ATOM     12  C   UNK d   1      24.323   5.612  30.512  0.00  0.00     0.080 A 
ATOM     13  C   UNK d   1      24.639   4.284  30.382  0.00  0.00     0.075 A 
ATOM     14  C   UNK d   1      25.543   3.854  29.430  0.00  0.00     0.085 A 
ATOM     15  C   UNK d   1      26.113   4.821  28.618  0.00  0.00     0.045 A 
ATOM     16 Br   UNK d   1      27.356   4.262  27.292  0.00  0.00    -0.048 Br
ATOM     17  C   UNK d   1      25.784   6.155  28.764  0.00  0.00     0.037 A 
BRANCH  12  18
ATOM     18  O   UNK d   1      23.406   6.041  31.478  0.00  0.00    -0.360 OA
ATOM     19  H   UNK d   1      22.841   6.859  31.273  0.00  0.00     0.217 HD
ENDBRANCH  12  18
BRANCH  14  20
ATOM     20  O   UNK d   1      25.857   2.502  29.306  0.00  0.00    -0.359 OA
ATOM     21  H   UNK d   1      26.280   1.955  30.041  0.00  0.00     0.217 HD
ENDBRANCH  14  20
ENDBRANCH  10  11
ENDBRANCH   7   9
ENDBRANCH   1   7
BRANCH   3  22
ATOM     22  N   UNK d   1      21.110  13.328  31.931  0.00  0.00    -0.209 N 
ATOM     23  C   UNK d   1      22.061  14.376  31.687  0.00  0.00     0.167 C 
ATOM     24  C   UNK d   1      21.511  15.708  31.357  0.00  0.00     0.188 C 
ATOM     25  O   UNK d   1      20.171  15.876  31.677  0.00  0.00    -0.388 OA
ATOM     26  C   UNK d   1      19.389  14.824  31.221  0.00  0.00     0.188 C 
ATOM     27  C   UNK d   1      19.718  13.632  32.086  0.00  0.00     0.167 C 
ENDBRANCH   3  22
BRANCH   5  28
ATOM     28  N   UNK d   1      20.161   8.724  33.081  0.00  0.00    -0.209 N 
ATOM     29  C   UNK d   1      18.760   9.008  33.262  0.00  0.00     0.167 C 
ATOM     30  C   UNK d   1      18.021   7.900  32.496  0.00  0.00     0.188 C 
ATOM     31  O   UNK d   1      18.484   6.673  32.926  0.00  0.00    -0.388 OA
ATOM     32  C   UNK d   1      19.794   6.467  32.494  0.00  0.00     0.188 C 
ATOM     33  C   UNK d   1      20.640   7.400  33.387  0.00  0.00     0.167 C 
ENDBRANCH   5  28
TORSDOF 7
ENDMDL
