/Users/jonathanwahrer/Desktop/Msc/3_Semester/Drug_Design_Praktikum/waehrer_HTS_screening/HTS_experiment/out/docking_results/vina_output/3elj/2116_docked.pdbqt
 OpenBabel03192218513D

 33 36  0  0  0  0  0  0  0  0999 V2000
   23.1570   10.2850   31.7100 C   0  0  0  0  0  0  0  0  0  0  0  0
   22.7400   11.5400   31.6440 N   0  0  0  0  0  4  0  0  0  0  0  0
   21.5190   11.9540   32.0250 C   0  0  0  0  0  0  0  0  0  0  0  0
   20.6810   11.0080   32.5030 N   0  0  0  0  0  0  0  0  0  0  0  0
   21.0510    9.7030   32.5960 C   0  0  0  0  0  0  0  0  0  0  0  0
   22.3000    9.3600   32.1930 N   0  0  0  0  0  2  0  0  0  0  0  0
   24.4570    9.9350   31.2530 N   0  0  0  0  0  0  0  0  0  0  0  0
   25.1540   10.6740   31.1020 H   0  0  0  0  0  0  0  0  0  0  0  0
   24.7860    8.6120   31.0110 N   0  0  0  0  0  0  0  0  0  0  0  0
   24.5250    7.9910   29.9120 C   0  0  0  0  0  3  0  0  0  0  0  0
   24.8850    6.6030   29.7080 C   0  0  0  0  0  0  0  0  0  0  0  0
   24.3230    5.6120   30.5120 C   0  0  0  0  0  0  0  0  0  0  0  0
   24.6390    4.2840   30.3820 C   0  0  0  0  0  3  0  0  0  0  0  0
   25.5430    3.8540   29.4300 C   0  0  0  0  0  0  0  0  0  0  0  0
   26.1130    4.8210   28.6180 C   0  0  0  0  0  0  0  0  0  0  0  0
   27.3560    4.2620   27.2920 Br  0  0  0  0  0  0  0  0  0  0  0  0
   25.7840    6.1550   28.7640 C   0  0  0  0  0  3  0  0  0  0  0  0
   23.4060    6.0410   31.4780 O   0  0  0  0  0  0  0  0  0  0  0  0
   22.8410    6.8590   31.2730 H   0  0  0  0  0  0  0  0  0  0  0  0
   25.8570    2.5020   29.3060 O   0  0  0  0  0  0  0  0  0  0  0  0
   26.2800    1.9550   30.0410 H   0  0  0  0  0  0  0  0  0  0  0  0
   21.1100   13.3280   31.9310 N   0  0  0  0  0  0  0  0  0  0  0  0
   22.0610   14.3760   31.6870 C   0  0  0  0  0  2  0  0  0  0  0  0
   21.5110   15.7080   31.3570 C   0  0  0  0  0  2  0  0  0  0  0  0
   20.1710   15.8760   31.6770 O   0  0  0  0  0  0  0  0  0  0  0  0
   19.3890   14.8240   31.2210 C   0  0  0  0  0  2  0  0  0  0  0  0
   19.7180   13.6320   32.0860 C   0  0  0  0  0  2  0  0  0  0  0  0
   20.1610    8.7240   33.0810 N   0  0  0  0  0  0  0  0  0  0  0  0
   18.7600    9.0080   33.2620 C   0  0  0  0  0  2  0  0  0  0  0  0
   18.0210    7.9000   32.4960 C   0  0  0  0  0  2  0  0  0  0  0  0
   18.4840    6.6730   32.9260 O   0  0  0  0  0  0  0  0  0  0  0  0
   19.7940    6.4670   32.4940 C   0  0  0  0  0  2  0  0  0  0  0  0
   20.6400    7.4000   33.3870 C   0  0  0  0  0  2  0  0  0  0  0  0
  1  6  1  0  0  0  0
  2  1  2  0  0  0  0
  2  3  2  0  0  0  0
  3  4  1  0  0  0  0
  4  5  2  0  0  0  0
  5 28  1  0  0  0  0
  6  5  1  0  0  0  0
  7  1  1  0  0  0  0
  8  7  1  0  0  0  0
  9  7  1  0  0  0  0
 10  9  2  0  0  0  0
 11 10  1  0  0  0  0
 11 12  1  0  0  0  0
 12 18  1  0  0  0  0
 13 12  2  0  0  0  0
 14 13  1  0  0  0  0
 15 17  1  0  0  0  0
 15 14  2  0  0  0  0
 16 15  1  0  0  0  0
 17 11  2  0  0  0  0
 19 18  1  0  0  0  0
 20 14  1  0  0  0  0
 20 21  1  0  0  0  0
 22  3  1  0  0  0  0
 22 27  1  0  0  0  0
 23 22  1  0  0  0  0
 24 25  1  0  0  0  0
 24 23  1  0  0  0  0
 26 25  1  0  0  0  0
 26 27  1  0  0  0  0
 28 29  1  0  0  0  0
 28 33  1  0  0  0  0
 30 31  1  0  0  0  0
 30 29  1  0  0  0  0
 32 31  1  0  0  0  0
 32 33  1  0  0  0  0
M  END
>  <Pose>
1

>  <Score>
-8.462

$$$$
