MODEL 1
REMARK VINA RESULT:    -7.545      0.000      0.000
REMARK INTER + INTRA:          -9.635
REMARK INTER:                  -8.648
REMARK INTRA:                  -0.988
REMARK UNBOUND:                -0.988
REMARK  3 active torsions:
REMARK  status: ('A' for Active; 'I' for Inactive)
REMARK    1  A    between atoms: C_7  and  C_9 
REMARK       I    between atoms: C_9  and  N_11 
REMARK    2  A    between atoms: C_14  and  N_19 
REMARK    3  A    between atoms: C_15  and  O_18 
REMARK       I    between atoms: N_22  and  C_25 
ROOT
ATOM      1  C   UNK d   1      25.197   5.125  29.243  0.00  0.00     0.203 C 
ATOM      2  O   UNK d   1      25.234   5.270  27.912  0.00  0.00    -0.170 OA
ATOM      3  N   UNK d   1      25.640   3.891  29.667  0.00  0.00    -0.358 N 
ATOM      4  C   UNK d   1      26.087   3.050  28.521  0.00  0.00     0.127 C 
ATOM      5  C   UNK d   1      27.563   3.296  28.275  0.00  0.00     0.058 C 
ATOM      6  C   UNK d   1      28.147   3.836  29.524  0.00  0.00     0.253 C 
ATOM      7  C   UNK d   1      27.972   2.882  30.661  0.00  0.00     0.153 C 
ATOM      8  C   UNK d   1      27.046   3.587  31.667  0.00  0.00     0.054 C 
ATOM      9  C   UNK d   1      25.651   3.466  31.024  0.00  0.00     0.127 C 
ENDROOT
BRANCH   1  10
ATOM     10  C   UNK d   1      24.706   6.293  29.922  0.00  0.00     0.088 A 
ATOM     11  N   UNK d   1      25.360   7.334  30.443  0.00  0.00    -0.352 N 
ATOM     12  C   UNK d   1      24.491   8.210  31.033  0.00  0.00     0.043 A 
ATOM     13  H   UNK d   1      26.369   7.529  30.428  0.00  0.00     0.166 HD
ATOM     14  C   UNK d   1      23.248   7.702  30.877  0.00  0.00    -0.005 A 
ATOM     15  C   UNK d   1      24.664   9.395  31.695  0.00  0.00     0.032 A 
ATOM     16  C   UNK d   1      22.108   8.346  31.371  0.00  0.00     0.037 A 
ATOM     17  C   UNK d   1      23.355   6.510  30.189  0.00  0.00     0.048 A 
ATOM     18  C   UNK d   1      22.296   9.521  32.025  0.00  0.00     0.035 A 
ATOM     19 Cl   UNK d   1      20.882  10.362  32.665  0.00  0.00    -0.084 Cl
ATOM     20  C   UNK d   1      23.555  10.060  32.197  0.00  0.00     0.026 A 
ENDBRANCH   1  10
BRANCH   6  21
ATOM     21  N   UNK d   1      29.490   4.321  29.485  0.00  0.00     0.098 N 
ATOM     22  C   UNK d   1      29.638   5.727  29.767  0.00  0.00     0.293 C 
ATOM     23  C   UNK d   1      28.978   6.570  28.743  0.00  0.00     0.156 C 
ATOM     24  N   UNK d   1      29.547   6.177  27.449  0.00  0.00    -0.349 N 
ATOM     25  C   UNK d   1      30.565   5.160  27.495  0.00  0.00     0.156 C 
ATOM     26  C   UNK d   1      29.099   6.811  26.250  0.00  0.00     0.215 C 
ATOM     27  C   UNK d   1      30.207   3.944  28.297  0.00  0.00     0.293 C 
ATOM     28  O   UNK d   1      29.576   6.463  25.162  0.00  0.00    -0.274 OA
ATOM     29  C   UNK d   1      28.060   7.883  26.357  0.00  0.00     0.117 C 
ENDBRANCH   6  21
BRANCH   7  30
ATOM     30  O   UNK d   1      29.166   2.493  31.264  0.00  0.00    -0.393 OA
ATOM     31  H   UNK d   1      29.108   2.825  32.218  0.00  0.00     0.210 HD
ENDBRANCH   7  30
TORSDOF 3
ENDMDL
