MODEL 1
REMARK VINA RESULT:    -8.959      0.000      0.000
REMARK INTER + INTRA:         -12.789
REMARK INTER:                 -12.101
REMARK INTRA:                  -0.688
REMARK UNBOUND:                -0.688
REMARK  6 active torsions:
REMARK  status: ('A' for Active; 'I' for Inactive)
REMARK    1  A    between atoms: N_11  and  C_12 
REMARK    2  A    between atoms: C_12  and  C_13 
REMARK    3  A    between atoms: C_16  and  C_18 
REMARK       I    between atoms: C_18  and  N_20 
REMARK    4  A    between atoms: N_20  and  C_21 
REMARK    5  A    between atoms: C_21  and  C_22 
REMARK    6  A    between atoms: C_22  and  N_23 
ROOT
ATOM      1  C   UNK d   1      23.767   8.097  30.635  0.00  0.00     0.174 A 
ATOM      2  N   UNK d   1      23.321   8.345  29.391  0.00  0.00    -0.109 NA
ATOM      3  O   UNK d   1      23.743   9.507  28.979  0.00  0.00    -0.186 OA
ATOM      4  C   UNK d   1      24.465  10.025  29.952  0.00  0.00     0.264 A 
ATOM      5  N   UNK d   1      24.490   9.171  30.979  0.00  0.00    -0.198 NA
ENDROOT
BRANCH   1   6
ATOM      6  C   UNK d   1      23.510   6.852  31.410  0.00  0.00     0.217 C 
BRANCH   6   7
ATOM      7  N   UNK d   1      22.100   6.652  31.582  0.00  0.00    -0.283 N 
ATOM      8  C   UNK d   1      21.167   7.466  32.081  0.00  0.00     0.075 A 
ATOM      9  C   UNK d   1      21.227   8.755  32.595  0.00  0.00     0.056 A 
ATOM     10  C   UNK d   1      19.925   6.827  32.042  0.00  0.00     0.108 A 
ATOM     11  C   UNK d   1      20.048   9.344  33.043  0.00  0.00     0.036 A 
ATOM     12 Cl   UNK d   1      20.119  10.973  33.695  0.00  0.00    -0.084 Cl
ATOM     13  C   UNK d   1      18.835   8.683  32.989  0.00  0.00     0.026 A 
ATOM     14  C   UNK d   1      18.778   7.419  32.485  0.00  0.00     0.041 A 
ATOM     15  O   UNK d   1      20.181   5.666  31.522  0.00  0.00    -0.259 OA
ATOM     16  C   UNK d   1      21.450   5.526  31.237  0.00  0.00     0.373 A 
ATOM     17  O   UNK d   1      21.941   4.485  30.724  0.00  0.00    -0.237 OA
ENDBRANCH   6   7
ENDBRANCH   1   6
BRANCH   4  18
ATOM     18  C   UNK d   1      25.114  11.372  29.813  0.00  0.00     0.297 C 
ATOM     19  O   UNK d   1      26.369  11.292  30.046  0.00  0.00    -0.264 OA
ATOM     20  N   UNK d   1      24.381  12.451  29.482  0.00  0.00    -0.352 N 
ATOM     21  H   UNK d   1      25.523  13.211  29.465  0.00  0.00     0.162 HD
BRANCH  20  22
ATOM     22  C   UNK d   1      23.643  13.569  29.141  0.00  0.00     0.142 C 
BRANCH  22  23
ATOM     23  C   UNK d   1      22.499  13.865  30.118  0.00  0.00     0.136 C 
BRANCH  23  24
ATOM     24  N   UNK d   1      22.659  15.036  30.884  0.00  0.00    -0.407 N 
ATOM     25  C   UNK d   1      22.984  14.733  32.223  0.00  0.00     0.143 C 
ATOM     26  C   UNK d   1      22.567  15.793  33.186  0.00  0.00     0.187 C 
ATOM     27  O   UNK d   1      22.834  17.023  32.640  0.00  0.00    -0.388 OA
ATOM     28  C   UNK d   1      22.065  17.325  31.533  0.00  0.00     0.187 C 
ATOM     29  C   UNK d   1      21.867  16.163  30.605  0.00  0.00     0.143 C 
ENDBRANCH  23  24
ENDBRANCH  22  23
ENDBRANCH  20  22
ENDBRANCH   4  18
TORSDOF 6
ENDMDL
