MODEL 1
REMARK VINA RESULT:    -7.925      0.000      0.000
REMARK INTER + INTRA:          -8.790
REMARK INTER:                  -8.852
REMARK INTRA:                   0.062
REMARK UNBOUND:                 0.062
REMARK  2 active torsions:
REMARK  status: ('A' for Active; 'I' for Inactive)
REMARK    1  A    between atoms: C_5  and  N_8 
REMARK    2  A    between atoms: C_12  and  C_21 
ROOT
ATOM      1  N   UNK d   1      22.448  11.142  31.668  0.00  0.00    -0.252 N 
ATOM      2  C   UNK d   1      22.262   9.737  31.572  0.00  0.00     0.239 C 
ATOM      3  O   UNK d   1      21.170   9.163  31.319  0.00  0.00    -0.272 OA
ATOM      4  C   UNK d   1      23.557   9.019  31.817  0.00  0.00     0.138 C 
ATOM      5  C   UNK d   1      23.912   8.141  30.664  0.00  0.00     0.142 C 
ATOM      6  O   UNK d   1      25.249   8.489  30.348  0.00  0.00    -0.355 OA
ATOM      7  C   UNK d   1      25.022   9.884  30.224  0.00  0.00     0.089 C 
ATOM      8  C   UNK d   1      24.574  10.158  31.656  0.00  0.00     0.133 C 
ATOM      9  C   UNK d   1      23.838  11.403  31.815  0.00  0.00     0.239 C 
ATOM     10  O   UNK d   1      24.371  12.519  32.045  0.00  0.00    -0.272 OA
ATOM     11  C   UNK d   1      23.886   9.887  29.272  0.00  0.00     0.010 C 
ATOM     12  C   UNK d   1      23.240   8.717  29.455  0.00  0.00     0.016 C 
ATOM     13  C   UNK d   1      26.202  10.653  29.796  0.00  0.00     0.051 C 
ENDROOT
BRANCH   1  14
ATOM     14  C   UNK d   1      21.480  12.194  31.635  0.00  0.00     0.045 A 
ATOM     15  C   UNK d   1      20.537  12.381  32.617  0.00  0.00     0.032 A 
ATOM     16  C   UNK d   1      19.604  13.402  32.574  0.00  0.00     0.026 A 
ATOM     17  C   UNK d   1      19.595  14.281  31.517  0.00  0.00     0.034 A 
ATOM     18 Cl   UNK d   1      18.419  15.595  31.419  0.00  0.00    -0.084 Cl
ATOM     19  C   UNK d   1      20.532  14.104  30.525  0.00  0.00     0.026 A 
ATOM     20  C   UNK d   1      21.472  13.076  30.571  0.00  0.00     0.032 A 
ENDBRANCH   1  14
BRANCH   5  21
ATOM     21  C   UNK d   1      23.715   6.696  30.835  0.00  0.00     0.298 C 
ATOM     22  O   UNK d   1      23.531   6.121  29.576  0.00  0.00    -0.356 OA
ATOM     23  C   UNK d   1      24.764   5.798  29.069  0.00  0.00     0.197 C 
ATOM     24  C   UNK d   1      25.587   5.579  30.310  0.00  0.00     0.197 C 
ATOM     25  O   UNK d   1      24.876   6.124  31.355  0.00  0.00    -0.356 OA
ENDBRANCH   5  21
TORSDOF 2
ENDMDL
