MODEL 1
REMARK VINA RESULT:    -9.422      0.000      0.000
REMARK INTER + INTRA:         -12.154
REMARK INTER:                 -11.626
REMARK INTRA:                  -0.529
REMARK UNBOUND:                -0.529
REMARK  4 active torsions:
REMARK  status: ('A' for Active; 'I' for Inactive)
REMARK    1  A    between atoms: C_5  and  N_8 
REMARK       I    between atoms: N_8  and  C_9 
REMARK       I    between atoms: C_9  and  N_11 
REMARK    2  A    between atoms: N_11  and  N_12 
REMARK       I    between atoms: N_12  and  C_13 
REMARK    3  A    between atoms: C_13  and  C_15 
REMARK    4  A    between atoms: N_17  and  C_26 
ROOT
ATOM      1  C   UNK d   1      22.717   8.725  30.946  0.00  0.00     0.244 A 
ATOM      2  N   UNK d   1      22.990  10.006  30.891  0.00  0.00    -0.127 NA
ATOM      3  N   UNK d   1      22.087  10.767  31.589  0.00  0.00    -0.058 N 
ATOM      4  C   UNK d   1      21.147   9.845  32.141  0.00  0.00     0.756 A 
ATOM      5  N   UNK d   1      20.091   9.998  32.885  0.00  0.00     0.020 NA
ATOM      6  N   UNK d   1      19.306   8.894  33.308  0.00  0.00    -0.258 N 
ATOM      7  C   UNK d   1      19.625   7.572  32.948  0.00  0.00     0.110 A 
ATOM      8  C   UNK d   1      18.896   6.531  33.329  0.00  0.00     0.050 C 
ATOM      9  C   UNK d   1      20.807   7.377  32.116  0.00  0.00     0.295 A 
ATOM     10  O   UNK d   1      21.106   6.225  31.788  0.00  0.00    -0.265 OA
ATOM     11  N   UNK d   1      21.546   8.538  31.731  0.00  0.00    -0.080 N 
ATOM     12  H   UNK d   1      18.480   9.128  33.903  0.00  0.00     0.190 HD
ENDROOT
BRANCH   1  13
ATOM     13  C   UNK d   1      23.499   7.688  30.301  0.00  0.00     0.308 C 
ATOM     14  N   UNK d   1      24.825   7.447  30.734  0.00  0.00    -0.259 N 
ATOM     15  H   UNK d   1      25.260   7.961  31.514  0.00  0.00     0.190 HD
ATOM     16  O   UNK d   1      23.021   6.994  29.348  0.00  0.00    -0.262 OA
BRANCH  14  17
ATOM     17  N   UNK d   1      25.568   6.468  30.085  0.00  0.00    -0.248 N 
ATOM     18  C   UNK d   1      26.479   6.660  29.028  0.00  0.00     0.339 C 
ATOM     19  N   UNK d   1      27.201   5.620  28.416  0.00  0.00    -0.308 N 
ATOM     20  O   UNK d   1      26.667   7.832  28.604  0.00  0.00    -0.245 OA
ATOM     21  H   UNK d   1      27.061   4.632  28.742  0.00  0.00     0.170 HD
ATOM     22  H   UNK d   1      25.389   5.477  30.453  0.00  0.00     0.192 HD
BRANCH  19  23
ATOM     23  C   UNK d   1      28.143   5.778  27.359  0.00  0.00     0.036 A 
ATOM     24  C   UNK d   1      27.725   5.807  26.031  0.00  0.00     0.031 A 
ATOM     25  C   UNK d   1      28.614   5.958  24.989  0.00  0.00     0.026 A 
ATOM     26  C   UNK d   1      29.940   6.080  25.314  0.00  0.00     0.034 A 
ATOM     27 Cl   UNK d   1      31.160   6.284  24.050  0.00  0.00    -0.084 Cl
ATOM     28  C   UNK d   1      30.394   6.058  26.605  0.00  0.00     0.026 A 
ATOM     29  C   UNK d   1      29.496   5.906  27.637  0.00  0.00     0.031 A 
ENDBRANCH  19  23
ENDBRANCH  14  17
ENDBRANCH   1  13
BRANCH   3  30
ATOM     30  C   UNK d   1      22.076  12.189  31.685  0.00  0.00     0.077 A 
ATOM     31  C   UNK d   1      23.162  12.941  31.312  0.00  0.00     0.033 A 
ATOM     32  C   UNK d   1      23.189  14.328  31.346  0.00  0.00     0.009 A 
ATOM     33  C   UNK d   1      22.078  15.027  31.775  0.00  0.00    -0.062 A 
ATOM     34  C   UNK d   1      20.976  14.293  32.158  0.00  0.00     0.009 A 
ATOM     35  C   UNK d   1      22.051  16.521  31.792  0.00  0.00     0.048 C 
ATOM     36  C   UNK d   1      20.978  12.899  32.114  0.00  0.00     0.033 A 
ENDBRANCH   3  30
TORSDOF 4
ENDMDL
