/Users/jonathanwahrer/Desktop/Msc/3_Semester/Drug_Design_Praktikum/waehrer_HTS_screening/HTS_experiment/out/docking_results/vina_output/3elj/2134_docked.pdbqt
 OpenBabel03192218513D

 36 39  0  0  0  0  0  0  0  0999 V2000
   22.7170    8.7250   30.9460 C   0  0  0  0  0  0  0  0  0  0  0  0
   22.9900   10.0060   30.8910 N   0  0  0  0  0  0  0  0  0  0  0  0
   22.0870   10.7670   31.5890 N   0  0  0  0  0  0  0  0  0  0  0  0
   21.1470    9.8450   32.1410 C   0  0  0  0  0  0  0  0  0  0  0  0
   20.0910    9.9980   32.8850 N   0  0  0  0  0  0  0  0  0  0  0  0
   19.3060    8.8940   33.3080 N   0  0  0  0  0  0  0  0  0  0  0  0
   19.6250    7.5720   32.9480 C   0  0  0  0  0  0  0  0  0  0  0  0
   18.8960    6.5310   33.3290 C   0  0  0  0  0  2  0  0  0  0  0  0
   20.8070    7.3770   32.1160 C   0  0  0  0  0  0  0  0  0  0  0  0
   21.1060    6.2250   31.7880 O   0  0  0  0  0  0  0  0  0  0  0  0
   21.5460    8.5380   31.7310 N   0  0  0  0  0  0  0  0  0  0  0  0
   18.4800    9.1280   33.9030 H   0  0  0  0  0  0  0  0  0  0  0  0
   23.4990    7.6880   30.3010 C   0  0  0  0  0  0  0  0  0  0  0  0
   24.8250    7.4470   30.7340 N   0  0  0  0  0  0  0  0  0  0  0  0
   25.2600    7.9610   31.5140 H   0  0  0  0  0  0  0  0  0  0  0  0
   23.0210    6.9940   29.3480 O   0  0  0  0  0  0  0  0  0  0  0  0
   25.5680    6.4680   30.0850 N   0  0  0  0  0  0  0  0  0  0  0  0
   26.4790    6.6600   29.0280 C   0  0  0  0  0  0  0  0  0  0  0  0
   27.2010    5.6200   28.4160 N   0  0  0  0  0  0  0  0  0  0  0  0
   26.6670    7.8320   28.6040 O   0  0  0  0  0  0  0  0  0  0  0  0
   27.0610    4.6320   28.7420 H   0  0  0  0  0  0  0  0  0  0  0  0
   25.3890    5.4770   30.4530 H   0  0  0  0  0  0  0  0  0  0  0  0
   28.1430    5.7780   27.3590 C   0  0  0  0  0  0  0  0  0  0  0  0
   27.7250    5.8070   26.0310 C   0  0  0  0  0  3  0  0  0  0  0  0
   28.6140    5.9580   24.9890 C   0  0  0  0  0  3  0  0  0  0  0  0
   29.9400    6.0800   25.3140 C   0  0  0  0  0  0  0  0  0  0  0  0
   31.1600    6.2840   24.0500 Cl  0  0  0  0  0  0  0  0  0  0  0  0
   30.3940    6.0580   26.6050 C   0  0  0  0  0  3  0  0  0  0  0  0
   29.4960    5.9060   27.6370 C   0  0  0  0  0  3  0  0  0  0  0  0
   22.0760   12.1890   31.6850 C   0  0  0  0  0  0  0  0  0  0  0  0
   23.1620   12.9410   31.3120 C   0  0  0  0  0  3  0  0  0  0  0  0
   23.1890   14.3280   31.3460 C   0  0  0  0  0  3  0  0  0  0  0  0
   22.0780   15.0270   31.7750 C   0  0  0  0  0  0  0  0  0  0  0  0
   20.9760   14.2930   32.1580 C   0  0  0  0  0  3  0  0  0  0  0  0
   22.0510   16.5210   31.7920 C   0  0  0  0  0  1  0  0  0  0  0  0
   20.9780   12.8990   32.1140 C   0  0  0  0  0  3  0  0  0  0  0  0
  1 11  1  0  0  0  0
  2  1  2  0  0  0  0
  2  3  1  0  0  0  0
  3 30  1  0  0  0  0
  3  4  1  0  0  0  0
  4  5  2  0  0  0  0
  5  6  1  0  0  0  0
  6 12  1  0  0  0  0
  7  6  1  0  0  0  0
  7  8  2  0  0  0  0
  9  7  1  0  0  0  0
 10  9  2  0  0  0  0
 11  9  1  0  0  0  0
 11  4  1  0  0  0  0
 13 14  1  0  0  0  0
 13  1  1  0  0  0  0
 14 15  1  0  0  0  0
 16 13  2  0  0  0  0
 17 22  1  0  0  0  0
 17 14  1  0  0  0  0
 18 17  1  0  0  0  0
 19 21  1  0  0  0  0
 19 18  1  0  0  0  0
 20 18  2  0  0  0  0
 23 29  1  0  0  0  0
 23 19  1  0  0  0  0
 24 23  2  0  0  0  0
 25 26  2  0  0  0  0
 25 24  1  0  0  0  0
 26 28  1  0  0  0  0
 27 26  1  0  0  0  0
 28 29  2  0  0  0  0
 30 36  1  0  0  0  0
 31 32  1  0  0  0  0
 31 30  2  0  0  0  0
 32 33  2  0  0  0  0
 33 35  1  0  0  0  0
 33 34  1  0  0  0  0
 36 34  2  0  0  0  0
M  END
>  <Pose>
1

>  <Score>
-9.422

$$$$
