MODEL 1
REMARK VINA RESULT:    -6.797      0.000      0.000
REMARK INTER + INTRA:          -9.609
REMARK INTER:                  -8.784
REMARK INTRA:                  -0.825
REMARK UNBOUND:                -0.825
REMARK  5 active torsions:
REMARK  status: ('A' for Active; 'I' for Inactive)
REMARK    1  A    between atoms: C_10  and  C_22 
REMARK    2  A    between atoms: N_15  and  C_18 
REMARK    3  A    between atoms: C_18  and  C_19 
REMARK    4  A    between atoms: C_19  and  O_20 
REMARK    5  A    between atoms: C_22  and  C_23 
ROOT
ATOM      1 Cl   UNK d   1      28.538   1.527  34.036  0.00  0.00    -0.082 Cl
ATOM      2  C   UNK d   1      26.997   2.020  33.366  0.00  0.00     0.061 A 
ATOM      3  C   UNK d   1      26.881   3.013  32.415  0.00  0.00     0.066 A 
ATOM      4  C   UNK d   1      25.641   3.380  31.904  0.00  0.00     0.019 A 
ATOM      5  C   UNK d   1      24.553   2.710  32.392  0.00  0.00     0.013 A 
ATOM      6  C   UNK d   1      24.649   1.718  33.338  0.00  0.00     0.002 A 
ATOM      7  C   UNK d   1      25.866   1.361  33.836  0.00  0.00     0.026 A 
ATOM      8  C   UNK d   1      25.852   4.451  30.922  0.00  0.00     0.279 A 
ATOM      9  N   UNK d   1      25.134   5.666  31.262  0.00  0.00     0.114 N 
ATOM     10  C   UNK d   1      25.182   6.409  30.000  0.00  0.00     0.240 C 
ATOM     11  C   UNK d   1      25.077   5.410  28.911  0.00  0.00     0.128 C 
ATOM     12  C   UNK d   1      25.250   4.089  29.590  0.00  0.00     0.147 C 
ATOM     13  C   UNK d   1      26.130   3.253  28.768  0.00  0.00     0.235 C 
ATOM     14  O   UNK d   1      26.263   2.013  28.921  0.00  0.00    -0.272 OA
ATOM     15  N   UNK d   1      26.752   4.117  27.825  0.00  0.00    -0.286 N 
ATOM     16  C   UNK d   1      26.279   5.446  27.997  0.00  0.00     0.233 C 
ATOM     17  O   UNK d   1      26.729   6.516  27.505  0.00  0.00    -0.272 OA
ATOM     18  C   UNK d   1      27.301   4.705  30.881  0.00  0.00     0.267 A 
ATOM     19  O   UNK d   1      27.926   5.526  30.194  0.00  0.00    -0.270 OA
ATOM     20  N   UNK d   1      27.891   3.804  31.807  0.00  0.00    -0.323 N 
ATOM     21  H   UNK d   1      25.613   6.204  32.035  0.00  0.00     0.318 HD
ATOM     22  H   UNK d   1      28.919   3.713  32.029  0.00  0.00     0.169 HD
ENDROOT
BRANCH  10  23
ATOM     23  C   UNK d   1      24.081   7.422  29.923  0.00  0.00     0.075 C 
BRANCH  23  24
ATOM     24  C   UNK d   1      22.870   7.071  30.684  0.00  0.00    -0.056 A 
ATOM     25  C   UNK d   1      22.328   8.044  31.520  0.00  0.00     0.007 A 
ATOM     26  C   UNK d   1      21.188   7.755  32.225  0.00  0.00     0.001 A 
ATOM     27  C   UNK d   1      20.550   6.540  32.147  0.00  0.00     0.000 A 
ATOM     28  C   UNK d   1      21.117   5.604  31.309  0.00  0.00     0.001 A 
ATOM     29  C   UNK d   1      22.260   5.843  30.577  0.00  0.00     0.007 A 
ENDBRANCH  23  24
ENDBRANCH  10  23
BRANCH  15  30
ATOM     30  C   UNK d   1      27.733   3.687  26.832  0.00  0.00     0.161 C 
BRANCH  30  31
ATOM     31  C   UNK d   1      29.117   3.840  27.445  0.00  0.00     0.187 C 
BRANCH  31  32
ATOM     32  O   UNK d   1      29.686   2.602  27.697  0.00  0.00    -0.394 OA
ATOM     33  C   UNK d   1      29.812   2.422  29.061  0.00  0.00     0.201 C 
ENDBRANCH  31  32
ENDBRANCH  30  31
ENDBRANCH  15  30
TORSDOF 5
ENDMDL
