/Users/jonathanwahrer/Desktop/Msc/3_Semester/Drug_Design_Praktikum/waehrer_HTS_screening/HTS_experiment/out/docking_results/vina_output/3elj/2136_docked.pdbqt
 OpenBabel03192218523D

 33 37  0  0  1  0  0  0  0  0999 V2000
   28.5380    1.5270   34.0360 Cl  0  0  0  0  0  0  0  0  0  0  0  0
   26.9970    2.0200   33.3660 C   0  0  0  0  0  0  0  0  0  0  0  0
   26.8810    3.0130   32.4150 C   0  0  0  0  0  0  0  0  0  0  0  0
   25.6410    3.3800   31.9040 C   0  0  0  0  0  0  0  0  0  0  0  0
   24.5530    2.7100   32.3920 C   0  0  0  0  0  3  0  0  0  0  0  0
   24.6490    1.7180   33.3380 C   0  0  0  0  0  3  0  0  0  0  0  0
   25.8660    1.3610   33.8360 C   0  0  0  0  0  3  0  0  0  0  0  0
   25.8520    4.4510   30.9220 C   0  0  2  0  0  0  0  0  0  0  0  0
   25.1340    5.6660   31.2620 N   0  0  0  0  0  0  0  0  0  0  0  0
   25.1820    6.4090   30.0000 C   0  0  1  0  0  3  0  0  0  0  0  0
   25.0770    5.4100   28.9110 C   0  0  2  0  0  3  0  0  0  0  0  0
   25.2500    4.0890   29.5900 C   0  0  1  0  0  3  0  0  0  0  0  0
   26.1300    3.2530   28.7680 C   0  0  0  0  0  0  0  0  0  0  0  0
   26.2630    2.0130   28.9210 O   0  0  0  0  0  0  0  0  0  0  0  0
   26.7520    4.1170   27.8250 N   0  0  0  0  0  0  0  0  0  0  0  0
   26.2790    5.4460   27.9970 C   0  0  0  0  0  0  0  0  0  0  0  0
   26.7290    6.5160   27.5050 O   0  0  0  0  0  0  0  0  0  0  0  0
   27.3010    4.7050   30.8810 C   0  0  0  0  0  0  0  0  0  0  0  0
   27.9260    5.5260   30.1940 O   0  0  0  0  0  0  0  0  0  0  0  0
   27.8910    3.8040   31.8070 N   0  0  0  0  0  0  0  0  0  0  0  0
   25.6130    6.2040   32.0350 H   0  0  0  0  0  0  0  0  0  0  0  0
   28.9190    3.7130   32.0290 H   0  0  0  0  0  0  0  0  0  0  0  0
   24.0810    7.4220   29.9230 C   0  0  0  0  0  2  0  0  0  0  0  0
   22.8700    7.0710   30.6840 C   0  0  0  0  0  0  0  0  0  0  0  0
   22.3280    8.0440   31.5200 C   0  0  0  0  0  3  0  0  0  0  0  0
   21.1880    7.7550   32.2250 C   0  0  0  0  0  3  0  0  0  0  0  0
   20.5500    6.5400   32.1470 C   0  0  0  0  0  3  0  0  0  0  0  0
   21.1170    5.6040   31.3090 C   0  0  0  0  0  3  0  0  0  0  0  0
   22.2600    5.8430   30.5770 C   0  0  0  0  0  3  0  0  0  0  0  0
   27.7330    3.6870   26.8320 C   0  0  0  0  0  2  0  0  0  0  0  0
   29.1170    3.8400   27.4450 C   0  0  0  0  0  2  0  0  0  0  0  0
   29.6860    2.6020   27.6970 O   0  0  0  0  0  0  0  0  0  0  0  0
   29.8120    2.4220   29.0610 C   0  0  0  0  0  1  0  0  0  0  0  0
  2  7  1  0  0  0  0
  2  1  1  0  0  0  0
  3  2  2  0  0  0  0
  4  5  2  0  0  0  0
  4  3  1  0  0  0  0
  5  6  1  0  0  0  0
  6  7  2  0  0  0  0
  8 18  1  6  0  0  0
  8  9  1  0  0  0  0
  8  4  1  0  0  0  0
  9 21  1  0  0  0  0
 10 23  1  1  0  0  0
 10  9  1  0  0  0  0
 11 16  1  6  0  0  0
 11 12  1  0  0  0  0
 11 10  1  0  0  0  0
 12 13  1  6  0  0  0
 12  8  1  0  0  0  0
 13 14  2  0  0  0  0
 15 16  1  0  0  0  0
 15 13  1  0  0  0  0
 17 16  2  0  0  0  0
 18 20  1  0  0  0  0
 19 18  2  0  0  0  0
 20 22  1  0  0  0  0
 20  3  1  0  0  0  0
 23 24  1  0  0  0  0
 24 25  1  0  0  0  0
 25 26  2  0  0  0  0
 27 26  1  0  0  0  0
 28 27  2  0  0  0  0
 29 24  2  0  0  0  0
 29 28  1  0  0  0  0
 30 31  1  0  0  0  0
 30 15  1  0  0  0  0
 31 32  1  0  0  0  0
 32 33  1  0  0  0  0
M  END
>  <Pose>
1

>  <Score>
-6.797

$$$$
