MODEL 1
REMARK VINA RESULT:    -8.885      0.000      0.000
REMARK INTER + INTRA:         -10.836
REMARK INTER:                 -10.703
REMARK INTRA:                  -0.133
REMARK UNBOUND:                -0.133
REMARK  4 active torsions:
REMARK  status: ('A' for Active; 'I' for Inactive)
REMARK    1  A    between atoms: C_5  and  C_8 
REMARK    2  A    between atoms: C_8  and  N_9 
REMARK    3  A    between atoms: N_12  and  C_15 
REMARK    4  A    between atoms: C_17  and  N_24 
ROOT
ATOM      1  N   UNK d   1      23.934   9.966  31.162  0.00  0.00    -0.405 N 
ATOM      2  C   UNK d   1      23.089   9.878  30.038  0.00  0.00     0.137 C 
ATOM      3  C   UNK d   1      22.189  11.056  29.782  0.00  0.00     0.144 C 
ATOM      4  N   UNK d   1      22.824  12.212  30.469  0.00  0.00    -0.360 N 
ATOM      5  C   UNK d   1      24.234  12.230  30.369  0.00  0.00     0.144 C 
ATOM      6  C   UNK d   1      24.768  11.130  31.261  0.00  0.00     0.137 C 
ENDROOT
BRANCH   4   7
ATOM      7  C   UNK d   1      21.953  13.133  31.087  0.00  0.00     0.176 A 
ATOM      8  N   UNK d   1      21.028  12.677  31.985  0.00  0.00    -0.043 NA
ATOM      9  C   UNK d   1      20.131  13.431  32.607  0.00  0.00     0.724 A 
ATOM     10  N   UNK d   1      20.113  14.750  32.348  0.00  0.00    -0.041 NA
ATOM     11  C   UNK d   1      21.005  15.259  31.469  0.00  0.00     0.200 A 
ATOM     12  N   UNK d   1      21.227  16.513  31.031  0.00  0.00    -0.222 NA
ATOM     13  C   UNK d   1      21.951  14.471  30.812  0.00  0.00     0.129 A 
ATOM     14  C   UNK d   1      22.241  16.502  30.165  0.00  0.00     0.210 A 
ATOM     15  N   UNK d   1      22.704  15.248  30.017  0.00  0.00    -0.344 N 
ATOM     16  H   UNK d   1      23.501  14.989  29.398  0.00  0.00     0.167 HD
BRANCH   9  17
ATOM     17  N   UNK d   1      19.182  12.883  33.546  0.00  0.00    -0.231 N 
ATOM     18  H   UNK d   1      19.421  12.101  34.171  0.00  0.00     0.174 HD
ATOM     19  H   UNK d   1      18.224  13.282  33.602  0.00  0.00     0.174 HD
ENDBRANCH   9  17
ENDBRANCH   4   7
BRANCH   1  20
ATOM     20  C   UNK d   1      23.473   9.424  32.382  0.00  0.00     0.155 C 
BRANCH  20  21
ATOM     21  C   UNK d   1      22.107   8.905  32.388  0.00  0.00    -0.041 A 
ATOM     22  C   UNK d   1      21.072   9.657  32.884  0.00  0.00     0.010 A 
ATOM     23  C   UNK d   1      19.752   9.223  32.919  0.00  0.00     0.024 A 
ATOM     24  C   UNK d   1      19.492   7.963  32.422  0.00  0.00     0.034 A 
ATOM     25 Cl   UNK d   1      17.853   7.346  32.434  0.00  0.00    -0.084 Cl
ATOM     26  C   UNK d   1      20.528   7.205  31.925  0.00  0.00     0.024 A 
ATOM     27  C   UNK d   1      21.826   7.653  31.899  0.00  0.00     0.010 A 
ENDBRANCH  20  21
ENDBRANCH   1  20
TORSDOF 4
ENDMDL
