/Users/jonathanwahrer/Desktop/Msc/3_Semester/Drug_Design_Praktikum/waehrer_HTS_screening/HTS_experiment/out/docking_results/vina_output/3elj/2163_docked.pdbqt
 OpenBabel03192218523D

 31 34  0  0  0  0  0  0  0  0999 V2000
   22.8230   10.5470   31.6850 C   0  0  0  0  0  0  0  0  0  0  0  0
   22.3490   11.8110   31.7040 N   0  0  0  0  0  4  0  0  0  0  0  0
   21.1390   12.1010   32.1970 C   0  0  0  0  0  0  0  0  0  0  0  0
   20.3890   11.0980   32.6800 N   0  0  0  0  0  0  0  0  0  0  0  0
   20.8030    9.8020   32.6930 C   0  0  0  0  0  0  0  0  0  0  0  0
   22.0430    9.5830   32.1760 N   0  0  0  0  0  2  0  0  0  0  0  0
   24.1040   10.2050   31.1690 N   0  0  0  0  0  0  0  0  0  0  0  0
   24.7410   10.9430   30.7640 H   0  0  0  0  0  0  0  0  0  0  0  0
   24.5910    8.8970   31.1670 N   0  0  0  0  0  0  0  0  0  0  0  0
   24.2280    8.0000   30.3300 C   0  0  0  0  0  3  0  0  0  0  0  0
   24.7480    6.6370   30.3420 C   0  0  0  0  0  0  0  0  0  0  0  0
   24.2780    5.6960   31.2260 C   0  0  0  0  0  3  0  0  0  0  0  0
   24.7780    4.4120   31.2280 C   0  0  0  0  0  0  0  0  0  0  0  0
   24.1260    3.1070   32.4550 Br  0  0  0  0  0  0  0  0  0  0  0  0
   25.7720    4.0180   30.3430 C   0  0  0  0  0  3  0  0  0  0  0  0
   26.2500    4.9630   29.4490 C   0  0  0  0  0  3  0  0  0  0  0  0
   25.7350    6.2610   29.4570 C   0  0  0  0  0  0  0  0  0  0  0  0
   26.1920    7.2330   28.5750 O   0  0  0  0  0  0  0  0  0  0  0  0
   27.4630    7.8330   28.6580 C   0  0  0  0  0  1  0  0  0  0  0  0
   20.6400   13.4310   32.2160 N   0  0  0  0  0  0  0  0  0  0  0  0
   19.2350   13.7340   32.0570 C   0  0  0  0  0  2  0  0  0  0  0  0
   19.0290   14.9350   31.1470 C   0  0  0  0  0  2  0  0  0  0  0  0
   19.9180   15.9630   31.4820 O   0  0  0  0  0  0  0  0  0  0  0  0
   21.2270   15.5730   31.3320 C   0  0  0  0  0  2  0  0  0  0  0  0
   21.5430   14.5460   32.3980 C   0  0  0  0  0  2  0  0  0  0  0  0
   20.0120    8.7560   33.2000 N   0  0  0  0  0  0  0  0  0  0  0  0
   20.5790    7.4780   33.5160 C   0  0  0  0  0  2  0  0  0  0  0  0
   19.7490    6.4280   32.7800 C   0  0  0  0  0  2  0  0  0  0  0  0
   18.4340    6.6020   33.1750 O   0  0  0  0  0  0  0  0  0  0  0  0
   17.8910    7.7860   32.7340 C   0  0  0  0  0  2  0  0  0  0  0  0
   18.6080    8.9550   33.4100 C   0  0  0  0  0  2  0  0  0  0  0  0
  1  2  2  0  0  0  0
  1  6  1  0  0  0  0
  2  3  2  0  0  0  0
  3 20  1  0  0  0  0
  3  4  1  0  0  0  0
  4  5  2  0  0  0  0
  5 26  1  0  0  0  0
  6  5  1  0  0  0  0
  7  1  1  0  0  0  0
  8  7  1  0  0  0  0
  9  7  1  0  0  0  0
 10 11  1  0  0  0  0
 10  9  2  0  0  0  0
 11 12  1  0  0  0  0
 12 13  2  0  0  0  0
 13 14  1  0  0  0  0
 15 13  1  0  0  0  0
 16 17  1  0  0  0  0
 16 15  2  0  0  0  0
 17 11  2  0  0  0  0
 18 19  1  0  0  0  0
 18 17  1  0  0  0  0
 20 25  1  0  0  0  0
 21 20  1  0  0  0  0
 22 23  1  0  0  0  0
 22 21  1  0  0  0  0
 24 23  1  0  0  0  0
 24 25  1  0  0  0  0
 26 31  1  0  0  0  0
 26 27  1  0  0  0  0
 28 29  1  0  0  0  0
 28 27  1  0  0  0  0
 30 29  1  0  0  0  0
 30 31  1  0  0  0  0
M  END
>  <Pose>
1

>  <Score>
-8.630

$$$$
