/Users/jonathanwahrer/Desktop/Msc/3_Semester/Drug_Design_Praktikum/waehrer_HTS_screening/HTS_experiment/out/docking_results/vina_output/3elj/2170_docked.pdbqt
 OpenBabel03192218533D

 32 36  0  0  0  0  0  0  0  0999 V2000
   21.0510   10.4640   31.8730 N   0  0  0  0  0  0  0  0  0  0  0  0
   21.1710   11.7740   31.8450 N   0  0  0  0  0  0  0  0  0  0  0  0
   20.4240   12.3620   32.7910 C   0  0  0  0  0  0  0  0  0  0  0  0
   20.5590   13.6970   32.7450 N   0  0  0  0  0  0  0  0  0  0  0  0
   21.4120   14.0170   31.7480 C   0  0  0  0  0  0  0  0  0  0  0  0
   21.7910   12.7920   31.1890 C   0  0  0  0  0  0  0  0  0  0  0  0
   22.6690   12.8780   30.1300 C   0  0  0  0  0  0  0  0  0  0  0  0
   23.0380   11.7930   29.5880 O   0  0  0  0  0  0  0  0  0  0  0  0
   23.1520   14.0530   29.6440 N   0  0  0  0  0  0  0  0  0  0  0  0
   22.7410   15.1850   30.2380 C   0  0  0  0  0  0  0  0  0  0  0  0
   23.2050   16.2750   29.7680 O   0  0  0  0  0  0  0  0  0  0  0  0
   21.8870   15.1790   31.2700 N   0  0  0  0  0  0  0  0  0  0  0  0
   21.4850   16.4280   31.8610 C   0  0  0  0  0  1  0  0  0  0  0  0
   24.0720   14.0580   28.5300 C   0  0  0  0  0  1  0  0  0  0  0  0
   19.8050   11.3430   33.4380 N   0  0  0  0  0  0  0  0  0  0  0  0
   20.1780   10.1800   32.8870 C   0  0  0  0  0  0  0  0  0  0  0  0
   21.6650    9.4530   31.0440 C   0  0  0  0  0  2  0  0  0  0  0  0
   23.0170    9.0660   31.4850 C   0  0  0  0  0  0  0  0  0  0  0  0
   23.6160    9.6480   32.4160 O   0  0  0  0  0  0  0  0  0  0  0  0
   23.6700    7.9600   30.7980 C   0  0  0  0  0  0  0  0  0  0  0  0
   24.8250    8.1260   30.0630 C   0  0  0  0  0  3  0  0  0  0  0  0
   25.4410    7.0750   29.4150 C   0  0  0  0  0  3  0  0  0  0  0  0
   24.9100    5.7940   29.4820 C   0  0  0  0  0  0  0  0  0  0  0  0
   25.6740    4.4400   28.6670 Cl  0  0  0  0  0  0  0  0  0  0  0  0
   23.7550    5.6070   30.2120 C   0  0  0  0  0  3  0  0  0  0  0  0
   23.1460    6.6630   30.8560 C   0  0  0  0  0  3  0  0  0  0  0  0
   19.7740    8.8620   33.2470 N   0  0  0  0  0  0  0  0  0  0  0  0
   20.7380    7.8450   33.6350 C   0  0  0  0  0  2  0  0  0  0  0  0
   20.2830    6.5340   33.0440 C   0  0  0  0  0  2  0  0  0  0  0  0
   18.9700    6.2510   33.4540 O   0  0  0  0  0  0  0  0  0  0  0  0
   18.0600    7.1140   32.8850 C   0  0  0  0  0  2  0  0  0  0  0  0
   18.3750    8.5250   33.2350 C   0  0  0  0  0  2  0  0  0  0  0  0
  1 16  1  0  0  0  0
  2  1  1  0  0  0  0
  2  3  1  0  0  0  0
  3 15  1  0  0  0  0
  4  3  2  0  0  0  0
  5  4  1  0  0  0  0
  6  5  2  0  0  0  0
  6  2  1  0  0  0  0
  7  6  1  0  0  0  0
  8  7  2  0  0  0  0
  9  7  1  0  0  0  0
  9 10  1  0  0  0  0
 10 12  1  0  0  0  0
 11 10  2  0  0  0  0
 12  5  1  0  0  0  0
 12 13  1  0  0  0  0
 14  9  1  0  0  0  0
 16 27  1  0  0  0  0
 16 15  2  0  0  0  0
 17 18  1  0  0  0  0
 17  1  1  0  0  0  0
 18 19  2  0  0  0  0
 20 26  1  0  0  0  0
 20 18  1  0  0  0  0
 21 20  2  0  0  0  0
 22 23  2  0  0  0  0
 22 21  1  0  0  0  0
 23 25  1  0  0  0  0
 24 23  1  0  0  0  0
 25 26  2  0  0  0  0
 27 28  1  0  0  0  0
 29 30  1  0  0  0  0
 29 28  1  0  0  0  0
 31 32  1  0  0  0  0
 31 30  1  0  0  0  0
 32 27  1  0  0  0  0
M  END
>  <Pose>
1

>  <Score>
-9.364

$$$$
