MODEL 1
REMARK VINA RESULT:    -8.474      0.000      0.000
REMARK INTER + INTRA:         -10.192
REMARK INTER:                  -9.464
REMARK INTRA:                  -0.728
REMARK UNBOUND:                -0.728
REMARK  2 active torsions:
REMARK  status: ('A' for Active; 'I' for Inactive)
REMARK    1  A    between atoms: C_10  and  N_11 
REMARK    2  A    between atoms: N_14  and  C_17 
ROOT
ATOM      1  N   UNK d   1      25.113  10.865  30.528  0.00  0.00    -0.384 N 
ATOM      2  C   UNK d   1      23.985  11.359  29.775  0.00  0.00     0.142 C 
ATOM      3  C   UNK d   1      22.780  10.530  30.137  0.00  0.00     0.144 C 
ATOM      4  N   UNK d   1      22.649  10.299  31.562  0.00  0.00    -0.362 N 
ATOM      5  C   UNK d   1      23.807   9.840  32.303  0.00  0.00     0.144 C 
ATOM      6  C   UNK d   1      24.974  10.727  31.960  0.00  0.00     0.142 C 
ENDROOT
BRANCH   1   7
ATOM      7  C   UNK d   1      26.301  10.549  29.814  0.00  0.00     0.134 C 
ATOM      8  C   UNK d   1      26.618   9.356  29.368  0.00  0.00     0.124 A 
ATOM      9  N   UNK d   1      25.783   8.218  29.553  0.00  0.00    -0.340 N 
ATOM     10  N   UNK d   1      27.838   9.168  28.668  0.00  0.00    -0.308 N 
ATOM     11  C   UNK d   1      26.094   6.915  29.084  0.00  0.00     0.049 A 
ATOM     12  H   UNK d   1      24.891   8.372  30.069  0.00  0.00     0.167 HD
ATOM     13  C   UNK d   1      27.279   6.723  28.403  0.00  0.00     0.060 A 
ATOM     14  C   UNK d   1      25.288   5.810  29.262  0.00  0.00     0.032 A 
ATOM     15  C   UNK d   1      27.632   5.484  27.925  0.00  0.00     0.043 A 
ATOM     16  C   UNK d   1      28.166   7.884  28.193  0.00  0.00     0.259 A 
ATOM     17  C   UNK d   1      26.815   4.392  28.112  0.00  0.00     0.035 A 
ATOM     18 Cl   UNK d   1      27.307   2.817  27.482  0.00  0.00    -0.084 Cl
ATOM     19  C   UNK d   1      25.629   4.563  28.790  0.00  0.00     0.026 A 
ATOM     20  O   UNK d   1      29.244   7.641  27.558  0.00  0.00    -0.267 OA
ATOM     21  H   UNK d   1      28.504   9.955  28.491  0.00  0.00     0.170 HD
ENDBRANCH   1   7
BRANCH   4  22
ATOM     22  C   UNK d   1      21.395  10.523  32.209  0.00  0.00     0.142 A 
ATOM     23  N   UNK d   1      21.059  11.781  32.556  0.00  0.00    -0.224 NA
ATOM     24  C   UNK d   1      19.873  12.040  33.175  0.00  0.00     0.237 A 
ATOM     25  N   UNK d   1      19.008  11.040  33.454  0.00  0.00    -0.222 NA
ATOM     26  C   UNK d   1      19.285   9.772  33.133  0.00  0.00     0.162 A 
ATOM     27  N   UNK d   1      18.621   8.612  33.290  0.00  0.00    -0.256 N 
ATOM     28  C   UNK d   1      20.504   9.524  32.500  0.00  0.00     0.076 A 
ATOM     29  N   UNK d   1      19.376   7.654  32.782  0.00  0.00    -0.182 NA
ATOM     30  C   UNK d   1      17.306   8.414  33.906  0.00  0.00     0.182 C 
ATOM     31  C   UNK d   1      20.533   8.181  32.291  0.00  0.00     0.158 A 
ENDBRANCH   4  22
TORSDOF 2
ENDMDL
