/Users/jonathanwahrer/Desktop/Msc/3_Semester/Drug_Design_Praktikum/waehrer_HTS_screening/HTS_experiment/out/docking_results/vina_output/3elj/2184_docked.pdbqt
 OpenBabel03192218533D

 29 32  0  0  0  0  0  0  0  0999 V2000
   24.5890    9.6520   30.8040 N   0  0  0  0  0  4  0  0  0  0  0  0
   24.1550   10.4120   31.8730 C   0  0  0  0  0  2  0  0  0  0  0  0
   24.7550   11.8590   31.7990 C   0  0  0  0  0  2  0  0  0  0  0  0
   23.9260   12.3690   30.6050 N   0  0  0  0  0  0  0  0  0  0  0  0
   24.2820   11.7410   29.4280 C   0  0  0  0  0  2  0  0  0  0  0  0
   25.2210   10.5790   29.8210 C   0  0  0  0  0  2  0  0  0  0  0  0
   25.4410    9.0940   31.1350 H   0  0  0  0  0  0  0  0  0  0  0  0
   23.8070    8.7530   30.0730 C   0  0  0  0  0  2  0  0  0  0  0  0
   23.6860    7.3320   30.4380 C   0  0  0  0  0  0  0  0  0  0  0  0
   22.4780    7.0440   31.1480 C   0  0  0  0  0  0  0  0  0  0  0  0
   21.6580    8.0550   31.5100 C   0  0  0  0  0  3  0  0  0  0  0  0
   22.1870    5.7480   31.4730 C   0  0  0  0  0  0  0  0  0  0  0  0
   20.5080    7.8170   32.2130 C   0  0  0  0  0  0  0  0  0  0  0  0
   19.4210    9.0900   32.7760 Cl  0  0  0  0  0  0  0  0  0  0  0  0
   20.1570    6.5090   32.5660 C   0  0  0  0  0  0  0  0  0  0  0  0
   20.9970    5.4970   32.1980 C   0  0  0  0  0  3  0  0  0  0  0  0
   18.9640    6.2220   33.2680 O   0  0  0  0  0  1  0  0  0  0  0  0
   22.9650    4.7500   31.1640 O   0  0  0  0  0  0  0  0  0  0  0  0
   24.0980    4.9690   30.5060 C   0  0  0  0  0  0  0  0  0  0  0  0
   24.8220    4.0060   30.2240 O   0  0  0  0  0  0  0  0  0  0  0  0
   24.4730    6.2760   30.1350 C   0  0  0  0  0  3  0  0  0  0  0  0
   22.9440   13.3070   30.9920 C   0  0  0  0  0  0  0  0  0  0  0  0
   22.9640   14.6370   30.7550 C   0  0  0  0  0  3  0  0  0  0  0  0
   21.8150   15.4540   30.9640 C   0  0  0  0  0  3  0  0  0  0  0  0
   20.6350   14.9280   31.4170 C   0  0  0  0  0  0  0  0  0  0  0  0
   20.6070   13.5610   31.6720 C   0  0  0  0  0  3  0  0  0  0  0  0
   21.7310   12.7750   31.4680 C   0  0  0  0  0  3  0  0  0  0  0  0
   19.5430   15.7650   31.6080 O   0  0  0  0  0  0  0  0  0  0  0  0
   18.3350   15.5870   30.8520 C   0  0  0  0  0  1  0  0  0  0  0  0
  1  7  1  0  0  0  0
  1  2  1  0  0  0  0
  3  2  1  0  0  0  0
  4 22  1  0  0  0  0
  4  3  1  0  0  0  0
  5  6  1  0  0  0  0
  5  4  1  0  0  0  0
  6  1  1  0  0  0  0
  8  9  1  0  0  0  0
  8  1  1  0  0  0  0
  9 10  1  0  0  0  0
 10 12  2  0  0  0  0
 10 11  1  0  0  0  0
 11 13  2  0  0  0  0
 12 16  1  0  0  0  0
 13 15  1  0  0  0  0
 13 14  1  0  0  0  0
 15 17  1  0  0  0  0
 16 15  2  0  0  0  0
 18 12  1  0  0  0  0
 19 18  1  0  0  0  0
 20 19  2  0  0  0  0
 21  9  2  0  0  0  0
 21 19  1  0  0  0  0
 22 27  1  0  0  0  0
 23 24  1  0  0  0  0
 23 22  2  0  0  0  0
 24 25  2  0  0  0  0
 25 28  1  0  0  0  0
 25 26  1  0  0  0  0
 27 26  2  0  0  0  0
 29 28  1  0  0  0  0
M  END
>  <Pose>
1

>  <Score>
-9.752

$$$$
