MODEL 1
REMARK VINA RESULT:    -9.752      0.000      0.000
REMARK INTER + INTRA:         -12.508
REMARK INTER:                 -12.032
REMARK INTRA:                  -0.476
REMARK UNBOUND:                -0.476
REMARK  4 active torsions:
REMARK  status: ('A' for Active; 'I' for Inactive)
REMARK    1  A    between atoms: C_13  and  C_14 
REMARK    2  A    between atoms: C_14  and  N_15 
REMARK    3  A    between atoms: N_18  and  C_21 
REMARK    4  A    between atoms: C_24  and  O_27 
ROOT
ATOM      1  N   UNK d   1      24.589   9.652  30.804  0.00  0.00    -0.064 N 
ATOM      2  C   UNK d   1      24.155  10.412  31.873  0.00  0.00     0.255 C 
ATOM      3  C   UNK d   1      24.755  11.859  31.799  0.00  0.00     0.150 C 
ATOM      4  N   UNK d   1      23.926  12.369  30.605  0.00  0.00    -0.378 N 
ATOM      5  C   UNK d   1      24.282  11.741  29.428  0.00  0.00     0.150 C 
ATOM      6  C   UNK d   1      25.221  10.579  29.821  0.00  0.00     0.255 C 
ATOM      7  H   UNK d   1      25.441   9.094  31.135  0.00  0.00     0.280 HD
ENDROOT
BRANCH   1   8
ATOM      8  C   UNK d   1      23.807   8.753  30.073  0.00  0.00     0.274 C 
BRANCH   8   9
ATOM      9  C   UNK d   1      23.686   7.332  30.438  0.00  0.00    -0.014 A 
ATOM     10  C   UNK d   1      22.478   7.044  31.148  0.00  0.00     0.008 A 
ATOM     11  C   UNK d   1      21.658   8.055  31.510  0.00  0.00     0.041 A 
ATOM     12  C   UNK d   1      22.187   5.748  31.473  0.00  0.00     0.093 A 
ATOM     13  C   UNK d   1      20.508   7.817  32.213  0.00  0.00     0.071 A 
ATOM     14 Cl   UNK d   1      19.421   9.090  32.776  0.00  0.00    -0.081 Cl
ATOM     15  C   UNK d   1      20.157   6.509  32.566  0.00  0.00     0.131 A 
ATOM     16  C   UNK d   1      20.997   5.497  32.198  0.00  0.00     0.080 A 
ATOM     17  O   UNK d   1      18.964   6.222  33.268  0.00  0.00    -0.190 OA
ATOM     18  O   UNK d   1      22.965   4.750  31.164  0.00  0.00    -0.275 OA
ATOM     19  C   UNK d   1      24.098   4.969  30.506  0.00  0.00     0.288 A 
ATOM     20  O   UNK d   1      24.822   4.006  30.224  0.00  0.00    -0.260 OA
ATOM     21  C   UNK d   1      24.473   6.276  30.135  0.00  0.00     0.092 A 
ENDBRANCH   8   9
ENDBRANCH   1   8
BRANCH   4  22
ATOM     22  C   UNK d   1      22.944  13.307  30.992  0.00  0.00     0.030 A 
ATOM     23  C   UNK d   1      22.964  14.637  30.755  0.00  0.00     0.032 A 
ATOM     24  C   UNK d   1      21.815  15.454  30.964  0.00  0.00     0.039 A 
ATOM     25  C   UNK d   1      20.635  14.928  31.417  0.00  0.00     0.068 A 
ATOM     26  C   UNK d   1      20.607  13.561  31.672  0.00  0.00     0.039 A 
ATOM     27  C   UNK d   1      21.731  12.775  31.468  0.00  0.00     0.032 A 
BRANCH  25  28
ATOM     28  O   UNK d   1      19.543  15.765  31.608  0.00  0.00    -0.356 OA
ATOM     29  C   UNK d   1      18.335  15.587  30.852  0.00  0.00     0.210 C 
ENDBRANCH  25  28
ENDBRANCH   4  22
TORSDOF 4
ENDMDL
