MODEL 1
REMARK VINA RESULT:    -9.276      0.000      0.000
REMARK INTER + INTRA:         -12.767
REMARK INTER:                 -11.716
REMARK INTRA:                  -1.050
REMARK UNBOUND:                -1.050
REMARK  5 active torsions:
REMARK  status: ('A' for Active; 'I' for Inactive)
REMARK    1  A    between atoms: S_1  and  N_4 
REMARK    2  A    between atoms: C_6  and  C_10 
REMARK    3  A    between atoms: N_13  and  C_20 
REMARK    4  A    between atoms: C_17  and  O_19 
REMARK    5  A    between atoms: C_20  and  C_21 
ROOT
ATOM      1  C   UNK d   1      21.956   9.620  31.075  0.00  0.00     0.137 A 
ATOM      2  N   UNK d   1      21.962   8.304  30.871  0.00  0.00    -0.211 NA
ATOM      3  C   UNK d   1      21.276   7.460  31.660  0.00  0.00     0.184 A 
ATOM      4  N   UNK d   1      21.113   6.108  31.676  0.00  0.00    -0.227 N 
ATOM      5  N   UNK d   1      20.321   5.841  32.693  0.00  0.00    -0.063 NA
ATOM      6  N   UNK d   1      19.965   6.941  33.329  0.00  0.00    -0.124 NA
ATOM      7  C   UNK d   1      20.541   7.981  32.716  0.00  0.00     0.180 A 
ATOM      8  C   UNK d   1      20.525   9.347  32.940  0.00  0.00     0.199 A 
ATOM      9  N   UNK d   1      21.242  10.102  32.098  0.00  0.00    -0.207 NA
ENDROOT
BRANCH   1  10
ATOM     10  C   UNK d   1      22.697  10.585  30.218  0.00  0.00     0.076 C 
ATOM     11  C   UNK d   1      22.364  11.994  30.434  0.00  0.00     0.147 C 
ATOM     12  N   UNK d   1      23.257  12.856  31.065  0.00  0.00    -0.310 N 
ATOM     13  C   UNK d   1      24.381  12.379  31.726  0.00  0.00     0.135 C 
ATOM     14  C   UNK d   1      24.595  10.893  31.706  0.00  0.00     0.021 C 
ATOM     15  C   UNK d   1      24.174  10.342  30.391  0.00  0.00     0.015 C 
BRANCH  12  16
ATOM     16  S   UNK d   1      22.573  14.305  31.617  0.00  0.00     0.224 S 
ATOM     17  O   UNK d   1      22.348  15.301  30.533  0.00  0.00    -0.206 OA
ATOM     18  O   UNK d   1      23.483  14.878  32.685  0.00  0.00    -0.206 OA
ATOM     19  C   UNK d   1      21.005  14.003  32.445  0.00  0.00     0.186 C 
ENDBRANCH  12  16
ENDBRANCH   1  10
BRANCH   8  20
ATOM     20  O   UNK d   1      19.796   9.888  33.991  0.00  0.00    -0.343 OA
ATOM     21  H   UNK d   1      18.933   9.456  34.282  0.00  0.00     0.219 HD
ENDBRANCH   8  20
BRANCH   4  22
ATOM     22  C   UNK d   1      21.694   5.174  30.764  0.00  0.00     0.195 C 
BRANCH  22  23
ATOM     23  C   UNK d   1      22.992   4.622  31.224  0.00  0.00    -0.017 A 
ATOM     24  C   UNK d   1      24.144   5.085  30.639  0.00  0.00     0.042 A 
ATOM     25  C   UNK d   1      25.403   4.620  31.011  0.00  0.00     0.024 A 
ATOM     26 Cl   UNK d   1      24.066   6.300  29.381  0.00  0.00    -0.084 Cl
ATOM     27  C   UNK d   1      25.520   3.664  31.997  0.00  0.00     0.002 A 
ATOM     28  C   UNK d   1      24.368   3.195  32.588  0.00  0.00     0.001 A 
ATOM     29  C   UNK d   1      23.113   3.667  32.208  0.00  0.00     0.010 A 
ENDBRANCH  22  23
ENDBRANCH   4  22
TORSDOF 5
ENDMDL
