MODEL 1
REMARK VINA RESULT:    -7.987      0.000      0.000
REMARK INTER + INTRA:         -10.257
REMARK INTER:                 -10.321
REMARK INTRA:                   0.065
REMARK UNBOUND:                 0.065
REMARK  5 active torsions:
REMARK  status: ('A' for Active; 'I' for Inactive)
REMARK    1  A    between atoms: S_1  and  N_4 
REMARK    2  A    between atoms: S_1  and  C_22 
REMARK    3  A    between atoms: C_6  and  C_10 
REMARK       I    between atoms: C_10  and  N_12 
REMARK    4  A    between atoms: N_15  and  C_18 
REMARK    5  A    between atoms: C_18  and  C_19 
ROOT
ATOM      1  N   UNK d   1      23.365  10.553  29.974  0.00  0.00    -0.202 NA
ATOM      2  C   UNK d   1      23.577   9.138  29.607  0.00  0.00     0.149 C 
ATOM      3  C   UNK d   1      24.902   8.739  30.144  0.00  0.00     0.227 C 
ATOM      4  O   UNK d   1      25.958   9.544  29.934  0.00  0.00    -0.374 OA
ATOM      5  C   UNK d   1      25.775  10.819  29.559  0.00  0.00     0.184 C 
ATOM      6  C   UNK d   1      24.379  11.259  29.280  0.00  0.00     0.134 C 
ENDROOT
BRANCH   3   7
ATOM      7  C   UNK d   1      25.205   7.385  29.595  0.00  0.00     0.250 C 
ATOM      8  O   UNK d   1      26.138   7.303  28.752  0.00  0.00    -0.270 OA
ATOM      9  N   UNK d   1      24.529   6.203  29.950  0.00  0.00    -0.347 N 
ATOM     10  C   UNK d   1      23.437   6.141  30.904  0.00  0.00     0.156 C 
ATOM     11  C   UNK d   1      24.890   4.903  29.364  0.00  0.00     0.156 C 
ATOM     12  C   UNK d   1      22.919   4.717  30.902  0.00  0.00     0.292 C 
ATOM     13  N   UNK d   1      23.927   3.755  31.306  0.00  0.00     0.091 N 
ATOM     14  C   UNK d   1      25.129   3.987  30.571  0.00  0.00     0.292 C 
BRANCH  13  15
ATOM     15  C   UNK d   1      24.060   3.814  32.726  0.00  0.00     0.277 C 
BRANCH  15  16
ATOM     16  C   UNK d   1      23.472   2.630  33.443  0.00  0.00     0.014 A 
ATOM     17  C   UNK d   1      24.497   1.862  34.276  0.00  0.00     0.007 A 
ATOM     18  C   UNK d   1      23.811   1.248  33.096  0.00  0.00     0.007 A 
ENDBRANCH  15  16
ENDBRANCH  13  15
ENDBRANCH   3   7
BRANCH   1  19
ATOM     19  S   UNK d   1      23.216  10.745  31.640  0.00  0.00     0.245 S 
ATOM     20  O   UNK d   1      23.177   9.341  32.260  0.00  0.00    -0.206 OA
ATOM     21  O   UNK d   1      24.418  11.393  32.283  0.00  0.00    -0.206 OA
BRANCH  19  22
ATOM     22  C   UNK d   1      21.739  11.511  32.130  0.00  0.00     0.096 A 
ATOM     23  C   UNK d   1      21.494  12.844  31.882  0.00  0.00     0.056 A 
ATOM     24  C   UNK d   1      20.346  13.476  32.320  0.00  0.00     0.025 A 
ATOM     25 Cl   UNK d   1      22.619  13.803  30.902  0.00  0.00    -0.083 Cl
ATOM     26  C   UNK d   1      19.408  12.764  33.024  0.00  0.00     0.002 A 
ATOM     27  C   UNK d   1      19.636  11.420  33.281  0.00  0.00     0.002 A 
ATOM     28  C   UNK d   1      20.774  10.801  32.847  0.00  0.00     0.026 A 
ENDBRANCH  19  22
ENDBRANCH   1  19
TORSDOF 5
ENDMDL
