MODEL 1
REMARK VINA RESULT:    -8.818      0.000      0.000
REMARK INTER + INTRA:         -12.173
REMARK INTER:                 -12.169
REMARK INTRA:                  -0.004
REMARK UNBOUND:                -0.004
REMARK  7 active torsions:
REMARK  status: ('A' for Active; 'I' for Inactive)
REMARK    1  A    between atoms: C_4  and  C_10 
REMARK    2  A    between atoms: C_5  and  O_8 
REMARK    3  A    between atoms: C_18  and  C_19 
REMARK    4  A    between atoms: C_19  and  N_20 
REMARK    5  A    between atoms: N_23  and  C_26 
REMARK    6  A    between atoms: C_26  and  C_27 
REMARK    7  A    between atoms: C_27  and  O_28 
ROOT
ATOM      1  C   UNK d   1      21.562   5.383  31.877  0.00  0.00     0.055 C 
ATOM      2  C   UNK d   1      21.085   6.593  32.196  0.00  0.00     0.128 A 
ATOM      3  O   UNK d   1      21.837   7.762  32.157  0.00  0.00    -0.305 OA
ATOM      4  C   UNK d   1      21.016   8.837  32.523  0.00  0.00     0.101 A 
ATOM      5  C   UNK d   1      19.745   8.446  32.812  0.00  0.00     0.051 A 
ATOM      6  C   UNK d   1      18.770   9.346  33.171  0.00  0.00     0.021 A 
ATOM      7  C   UNK d   1      19.074  10.702  33.246  0.00  0.00     0.041 A 
ATOM      8  C   UNK d   1      20.380  11.096  32.950  0.00  0.00     0.118 A 
ATOM      9  C   UNK d   1      21.340  10.203  32.599  0.00  0.00     0.039 A 
ATOM     10  O   UNK d   1      20.603  12.469  33.049  0.00  0.00    -0.191 OA
ATOM     11  C   UNK d   1      19.750   6.967  32.613  0.00  0.00     0.218 A 
ATOM     12  O   UNK d   1      18.794   6.197  32.779  0.00  0.00    -0.284 OA
ENDROOT
BRANCH   9  13
ATOM     13  C   UNK d   1      22.777  10.521  32.461  0.00  0.00     0.279 C 
BRANCH  13  14
ATOM     14  N   UNK d   1      23.050  11.480  31.497  0.00  0.00    -0.064 N 
ATOM     15  C   UNK d   1      22.538  11.085  30.146  0.00  0.00     0.254 C 
ATOM     16  C   UNK d   1      21.777  12.341  29.652  0.00  0.00     0.144 C 
ATOM     17  N   UNK d   1      22.150  13.464  30.454  0.00  0.00    -0.407 N 
ATOM     18  C   UNK d   1      23.534  13.635  30.659  0.00  0.00     0.144 C 
ATOM     19  C   UNK d   1      24.140  12.316  31.311  0.00  0.00     0.254 C 
ATOM     20  H   UNK d   1      22.195  12.200  31.757  0.00  0.00     0.280 HD
BRANCH  17  21
ATOM     21  C   UNK d   1      21.166  14.276  30.974  0.00  0.00     0.143 C 
BRANCH  21  22
ATOM     22  C   UNK d   1      21.476  15.683  31.374  0.00  0.00     0.183 C 
BRANCH  22  23
ATOM     23  O   UNK d   1      20.382  16.273  32.027  0.00  0.00    -0.399 OA
ATOM     24  H   UNK d   1      19.564  16.178  31.438  0.00  0.00     0.209 HD
ENDBRANCH  22  23
ENDBRANCH  21  22
ENDBRANCH  17  21
ENDBRANCH  13  14
ENDBRANCH   9  13
BRANCH   1  25
ATOM     25  C   UNK d   1      22.973   5.362  31.454  0.00  0.00     0.001 A 
ATOM     26  C   UNK d   1      23.477   6.414  30.777  0.00  0.00     0.033 A 
ATOM     27  C   UNK d   1      24.797   6.339  30.298  0.00  0.00     0.011 A 
ATOM     28 Br   UNK d   1      25.537   7.809  29.339  0.00  0.00    -0.051 Br
ATOM     29  C   UNK d   1      25.578   5.229  30.500  0.00  0.00     0.022 A 
ATOM     30  C   UNK d   1      25.027   4.169  31.193  0.00  0.00     0.039 A 
ATOM     31  C   UNK d   1      23.714   4.223  31.683  0.00  0.00     0.078 A 
BRANCH  31  32
ATOM     32  O   UNK d   1      23.158   3.159  32.378  0.00  0.00    -0.355 OA
ATOM     33  C   UNK d   1      23.737   2.471  33.431  0.00  0.00     0.210 C 
ENDBRANCH  31  32
ENDBRANCH   1  25
TORSDOF 7
ENDMDL
