MODEL 1
REMARK VINA RESULT:    -6.912      0.000      0.000
REMARK INTER + INTRA:          -7.163
REMARK INTER:                  -7.316
REMARK INTRA:                   0.154
REMARK UNBOUND:                 0.154
REMARK  1 active torsions:
REMARK  status: ('A' for Active; 'I' for Inactive)
REMARK    1  A    between atoms: C_9  and  C_21 
ROOT
ATOM      1 Cl   UNK d   1      30.032  14.783  20.533  0.00  0.00    -0.081 Cl
ATOM      2  C   UNK d   1      28.628  14.843  21.575  0.00  0.00     0.070 A 
ATOM      3  C   UNK d   1      28.823  15.156  22.929  0.00  0.00     0.107 A 
ATOM      4  C   UNK d   1      27.743  15.210  23.771  0.00  0.00    -0.007 A 
ATOM      5  C   UNK d   1      26.486  14.945  23.216  0.00  0.00     0.035 A 
ATOM      6  C   UNK d   1      26.308  14.638  21.886  0.00  0.00     0.036 A 
ATOM      7  C   UNK d   1      27.394  14.583  21.032  0.00  0.00     0.050 A 
ATOM      8 Cl   UNK d   1      24.716  14.309  21.212  0.00  0.00    -0.084 Cl
ATOM      9  C   UNK d   1      27.853  15.530  25.202  0.00  0.00     0.107 A 
ATOM     10  C   UNK d   1      29.254  15.776  25.583  0.00  0.00     0.075 A 
ATOM     11  C   UNK d   1      30.312  15.717  24.731  0.00  0.00     0.167 A 
ATOM     12  N   UNK d   1      31.594  15.954  25.137  0.00  0.00    -0.283 N 
ATOM     13  C   UNK d   1      31.788  16.252  26.419  0.00  0.00     0.332 A 
ATOM     14  O   UNK d   1      32.964  16.481  26.844  0.00  0.00    -0.246 OA
ATOM     15  N   UNK d   1      30.768  16.321  27.299  0.00  0.00    -0.270 N 
ATOM     16  C   UNK d   1      29.508  16.091  26.912  0.00  0.00     0.262 A 
ATOM     17  O   UNK d   1      28.557  16.156  27.732  0.00  0.00    -0.267 OA
ATOM     18  C   UNK d   1      31.046  16.654  28.689  0.00  0.00     0.164 C 
ATOM     19  C   UNK d   1      32.697  15.883  24.204  0.00  0.00     0.163 C 
ATOM     20  O   UNK d   1      30.091  15.409  23.417  0.00  0.00    -0.290 OA
ENDROOT
BRANCH   9  21
ATOM     21  C   UNK d   1      27.232  14.459  26.051  0.00  0.00     0.078 A 
ATOM     22  C   UNK d   1      27.759  13.192  26.125  0.00  0.00     0.197 A 
ATOM     23  N   UNK d   1      27.220  12.212  26.866  0.00  0.00    -0.281 N 
ATOM     24  O   UNK d   1      28.900  12.910  25.401  0.00  0.00    -0.171 OA
ATOM     25  C   UNK d   1      26.107  12.488  27.571  0.00  0.00     0.332 A 
ATOM     26  C   UNK d   1      27.803  10.885  26.926  0.00  0.00     0.163 C 
ATOM     27  O   UNK d   1      25.606  11.556  28.266  0.00  0.00    -0.246 OA
ATOM     28  N   UNK d   1      25.557  13.715  27.528  0.00  0.00    -0.270 N 
ATOM     29  C   UNK d   1      26.080  14.707  26.795  0.00  0.00     0.262 A 
ATOM     30  C   UNK d   1      24.361  13.961  28.301  0.00  0.00     0.164 C 
ATOM     31  O   UNK d   1      25.590  15.861  26.736  0.00  0.00    -0.267 OA
ENDBRANCH   9  21
TORSDOF 1
ENDMDL
