MODEL 1
REMARK VINA RESULT:    -8.260      0.000      0.000
REMARK INTER + INTRA:         -10.244
REMARK INTER:                 -10.192
REMARK INTRA:                  -0.052
REMARK UNBOUND:                -0.052
REMARK  4 active torsions:
REMARK  status: ('A' for Active; 'I' for Inactive)
REMARK    1  A    between atoms: C_13  and  C_27 
REMARK    2  A    between atoms: N_18  and  C_21 
REMARK    3  A    between atoms: C_21  and  C_22 
REMARK    4  A    between atoms: C_27  and  C_28 
REMARK       I    between atoms: C_28  and  N_30 
ROOT
ATOM      1 Cl   UNK d   1      27.166  13.123  26.095  0.00  0.00    -0.084 Cl
ATOM      2  C   UNK d   1      26.896  11.969  27.383  0.00  0.00     0.034 A 
ATOM      3  C   UNK d   1      25.783  12.007  28.178  0.00  0.00     0.036 A 
ATOM      4  C   UNK d   1      25.608  11.066  29.196  0.00  0.00     0.019 A 
ATOM      5  C   UNK d   1      26.575  10.121  29.366  0.00  0.00     0.044 A 
ATOM      6  C   UNK d   1      27.719  10.079  28.552  0.00  0.00     0.032 A 
ATOM      7  C   UNK d   1      27.890  10.999  27.557  0.00  0.00     0.026 A 
ATOM      8  N   UNK d   1      26.200   9.274  30.448  0.00  0.00    -0.324 N 
ATOM      9  C   UNK d   1      24.964   9.699  30.971  0.00  0.00     0.267 A 
ATOM     10  O   UNK d   1      24.374   9.138  31.948  0.00  0.00    -0.270 OA
ATOM     11  C   UNK d   1      24.537  10.861  30.185  0.00  0.00     0.279 A 
ATOM     12  N   UNK d   1      24.466  12.069  30.977  0.00  0.00     0.114 N 
ATOM     13  C   UNK d   1      23.116  12.532  31.043  0.00  0.00     0.245 C 
ATOM     14  C   UNK d   1      22.297  11.452  30.456  0.00  0.00     0.128 C 
ATOM     15  C   UNK d   1      23.187  10.663  29.538  0.00  0.00     0.147 C 
ATOM     16  C   UNK d   1      22.674   9.284  29.697  0.00  0.00     0.235 C 
ATOM     17  O   UNK d   1      22.831   8.299  28.932  0.00  0.00    -0.272 OA
ATOM     18  N   UNK d   1      21.913   9.185  30.920  0.00  0.00    -0.285 N 
ATOM     19  C   UNK d   1      21.975  10.462  31.543  0.00  0.00     0.233 C 
ATOM     20  O   UNK d   1      21.789  10.676  32.764  0.00  0.00    -0.272 OA
ATOM     21  H   UNK d   1      26.751   8.443  30.821  0.00  0.00     0.169 HD
ATOM     22  H   UNK d   1      25.051  12.844  30.593  0.00  0.00     0.318 HD
ENDROOT
BRANCH  13  23
ATOM     23  C   UNK d   1      22.929  13.880  30.398  0.00  0.00     0.139 C 
BRANCH  23  24
ATOM     24  C   UNK d   1      22.170  14.834  31.184  0.00  0.00     0.217 C 
ATOM     25  O   UNK d   1      22.273  14.846  32.429  0.00  0.00    -0.274 OA
ATOM     26  N   UNK d   1      21.304  15.763  30.564  0.00  0.00    -0.370 N 
ATOM     27  H   UNK d   1      21.400  16.781  30.787  0.00  0.00     0.159 HD
ATOM     28  H   UNK d   1      20.561  15.508  29.888  0.00  0.00     0.159 HD
ENDBRANCH  23  24
ENDBRANCH  13  23
BRANCH  18  29
ATOM     29  C   UNK d   1      21.232   8.002  31.400  0.00  0.00     0.166 C 
BRANCH  29  30
ATOM     30  C   UNK d   1      20.445   8.242  32.660  0.00  0.00     0.140 C 
ATOM     31  O   UNK d   1      19.191   8.752  32.336  0.00  0.00    -0.384 OA
ATOM     32  C   UNK d   1      18.335   7.681  32.212  0.00  0.00     0.168 C 
ATOM     33  C   UNK d   1      18.846   6.566  33.097  0.00  0.00     0.029 C 
ATOM     34  C   UNK d   1      20.232   7.031  33.498  0.00  0.00     0.035 C 
ENDBRANCH  29  30
ENDBRANCH  18  29
TORSDOF 4
ENDMDL
