MODEL 1
REMARK VINA RESULT:    -7.870      0.000      0.000
REMARK INTER + INTRA:         -11.239
REMARK INTER:                 -10.170
REMARK INTRA:                  -1.069
REMARK UNBOUND:                -1.069
REMARK  5 active torsions:
REMARK  status: ('A' for Active; 'I' for Inactive)
REMARK    1  A    between atoms: C_5  and  O_8 
REMARK    2  A    between atoms: O_8  and  C_9 
REMARK    3  A    between atoms: C_9  and  C_10 
REMARK       I    between atoms: C_10  and  N_12 
REMARK    4  A    between atoms: N_15  and  C_18 
REMARK    5  A    between atoms: C_20  and  N_24 
ROOT
ATOM      1  C   UNK d   1      24.841   9.678  30.791  0.00  0.00     0.177 C 
ATOM      2  O   UNK d   1      25.453   9.476  31.925  0.00  0.00    -0.175 OA
ATOM      3  N   UNK d   1      24.455  10.984  30.538  0.00  0.00    -0.358 N 
ATOM      4  C   UNK d   1      24.760  12.011  31.581  0.00  0.00     0.144 C 
ATOM      5  C   UNK d   1      23.542  12.897  31.654  0.00  0.00     0.144 C 
ATOM      6  N   UNK d   1      22.346  12.269  31.124  0.00  0.00    -0.362 N 
ATOM      7  C   UNK d   1      22.359  11.900  29.734  0.00  0.00     0.144 C 
ATOM      8  C   UNK d   1      23.793  11.535  29.385  0.00  0.00     0.144 C 
ENDROOT
BRANCH   6   9
ATOM      9  C   UNK d   1      21.235  12.039  31.962  0.00  0.00     0.146 A 
ATOM     10  N   UNK d   1      20.831  10.776  32.270  0.00  0.00    -0.045 NA
ATOM     11  C   UNK d   1      19.796  10.509  33.054  0.00  0.00     0.726 A 
ATOM     12  N   UNK d   1      19.115  11.566  33.568  0.00  0.00    -0.075 NA
ATOM     13  C   UNK d   1      19.445  12.819  33.315  0.00  0.00     0.140 A 
ATOM     14  C   UNK d   1      20.532  13.092  32.491  0.00  0.00     0.071 A 
BRANCH  11  15
ATOM     15  N   UNK d   1      19.364   9.201  33.383  0.00  0.00    -0.210 N 
ATOM     16  C   UNK d   1      20.336   8.119  33.488  0.00  0.00     0.167 C 
ATOM     17  C   UNK d   1      19.803   7.012  32.574  0.00  0.00     0.188 C 
ATOM     18  O   UNK d   1      18.568   6.603  33.002  0.00  0.00    -0.388 OA
ATOM     19  C   UNK d   1      17.588   7.565  32.951  0.00  0.00     0.188 C 
ATOM     20  C   UNK d   1      17.984   8.859  33.627  0.00  0.00     0.167 C 
ENDBRANCH  11  15
ENDBRANCH   6   9
BRANCH   1  21
ATOM     21  C   UNK d   1      24.674   8.457  29.978  0.00  0.00     0.262 C 
BRANCH  21  22
ATOM     22  O   UNK d   1      24.503   7.279  30.461  0.00  0.00    -0.343 OA
BRANCH  22  23
ATOM     23  C   UNK d   1      24.319   6.110  30.982  0.00  0.00     0.069 A 
ATOM     24  C   UNK d   1      23.076   5.630  31.450  0.00  0.00     0.038 A 
ATOM     25  C   UNK d   1      22.947   4.385  31.988  0.00  0.00     0.026 A 
ATOM     26  C   UNK d   1      24.012   3.522  32.112  0.00  0.00     0.034 A 
ATOM     27 Cl   UNK d   1      23.829   1.931  32.806  0.00  0.00    -0.084 Cl
ATOM     28  C   UNK d   1      25.232   3.972  31.662  0.00  0.00     0.026 A 
ATOM     29  C   UNK d   1      25.398   5.211  31.117  0.00  0.00     0.038 A 
ENDBRANCH  22  23
ENDBRANCH  21  22
ENDBRANCH   1  21
TORSDOF 5
ENDMDL
