/Users/jonathanwahrer/Desktop/Msc/3_Semester/Drug_Design_Praktikum/waehrer_HTS_screening/HTS_experiment/out/docking_results/vina_output/3elj/2242_docked.pdbqt
 OpenBabel03192218553D

 32 35  0  0  0  0  0  0  0  0999 V2000
   22.7810    8.7220   30.7080 N   0  0  0  0  0  0  0  0  0  0  0  0
   24.0970    8.2990   30.9120 C   0  0  0  0  0  0  0  0  0  0  0  0
   24.9550    9.0010   31.4650 O   0  0  0  0  0  0  0  0  0  0  0  0
   22.1120    8.0470   30.2190 H   0  0  0  0  0  0  0  0  0  0  0  0
   24.5340    6.9480   30.4630 C   0  0  0  0  0  0  0  0  0  0  0  0
   24.5240    5.9750   31.3200 N   0  0  0  0  0  0  0  0  0  0  0  0
   24.9180    4.6810   30.9820 N   0  0  0  0  0  0  0  0  0  0  0  0
   25.3390    4.4190   29.6630 C   0  0  0  0  0  0  0  0  0  0  0  0
   25.6060    3.2020   29.3770 O   0  0  0  0  0  0  0  0  0  0  0  0
   25.4750    5.4780   28.6430 C   0  0  0  0  0  2  0  0  0  0  0  0
   24.9540    6.7070   29.1300 N   0  0  0  0  0  0  0  0  0  0  0  0
   24.8680    7.5170   28.4620 H   0  0  0  0  0  0  0  0  0  0  0  0
   24.8990    3.6200   31.9680 C   0  0  0  0  0  0  0  0  0  0  0  0
   26.0260    2.8910   32.2600 C   0  0  0  0  0  3  0  0  0  0  0  0
   25.9840    1.8740   33.2200 C   0  0  0  0  0  3  0  0  0  0  0  0
   24.8130    1.5810   33.8900 C   0  0  0  0  0  0  0  0  0  0  0  0
   23.6930    2.3200   33.5850 C   0  0  0  0  0  3  0  0  0  0  0  0
   24.7160    0.5090   34.9250 C   0  0  0  0  0  1  0  0  0  0  0  0
   23.7420    3.3100   32.6490 C   0  0  0  0  0  3  0  0  0  0  0  0
   22.2680    9.9670   31.0930 C   0  0  0  0  0  0  0  0  0  0  0  0
   21.4150   10.0060   32.1990 C   0  0  0  0  0  0  0  0  0  0  0  0
   21.0170    8.5220   33.0380 Cl  0  0  0  0  0  0  0  0  0  0  0  0
   20.8740   11.1760   32.6530 C   0  0  0  0  0  3  0  0  0  0  0  0
   21.1390   12.3730   32.0500 C   0  0  0  0  0  0  0  0  0  0  0  0
   21.9710   12.3770   30.9630 C   0  0  0  0  0  0  0  0  0  0  0  0
   20.5930   13.6150   32.5110 N   0  0  0  0  0  0  0  0  0  0  0  0
   22.5250   11.1710   30.5000 C   0  0  0  0  0  3  0  0  0  0  0  0
   22.2920   13.5530   30.2890 O   0  0  0  0  0  0  0  0  0  0  0  0
   22.0970   14.8480   30.8750 C   0  0  0  0  0  2  0  0  0  0  0  0
   20.9400   14.8090   31.8180 C   0  0  0  0  0  0  0  0  0  0  0  0
   20.2750   15.8560   31.9880 O   0  0  0  0  0  0  0  0  0  0  0  0
   19.9570   13.6420   33.3330 H   0  0  0  0  0  0  0  0  0  0  0  0
  1  2  1  0  0  0  0
  1 20  1  0  0  0  0
  2  3  2  0  0  0  0
  4  1  1  0  0  0  0
  5  2  1  0  0  0  0
  5  6  2  0  0  0  0
  7  6  1  0  0  0  0
  7 13  1  0  0  0  0
  8  7  1  0  0  0  0
  9  8  2  0  0  0  0
 10 11  1  0  0  0  0
 10  8  1  0  0  0  0
 11  5  1  0  0  0  0
 12 11  1  0  0  0  0
 13 14  2  0  0  0  0
 13 19  1  0  0  0  0
 14 15  1  0  0  0  0
 15 16  2  0  0  0  0
 16 18  1  0  0  0  0
 17 16  1  0  0  0  0
 19 17  2  0  0  0  0
 20 21  1  0  0  0  0
 21 23  2  0  0  0  0
 21 22  1  0  0  0  0
 24 26  1  0  0  0  0
 24 23  1  0  0  0  0
 25 24  2  0  0  0  0
 26 32  1  0  0  0  0
 27 25  1  0  0  0  0
 27 20  2  0  0  0  0
 28 29  1  0  0  0  0
 28 25  1  0  0  0  0
 29 30  1  0  0  0  0
 30 31  2  0  0  0  0
 30 26  1  0  0  0  0
M  END
>  <Pose>
1

>  <Score>
-9.520

$$$$
