MODEL 1
REMARK VINA RESULT:    -9.520      0.000      0.000
REMARK INTER + INTRA:         -11.416
REMARK INTER:                 -11.190
REMARK INTRA:                  -0.226
REMARK UNBOUND:                -0.226
REMARK  3 active torsions:
REMARK  status: ('A' for Active; 'I' for Inactive)
REMARK    1  A    between atoms: C_7  and  N_8 
REMARK       I    between atoms: N_8  and  C_9 
REMARK    2  A    between atoms: C_9  and  C_11 
REMARK    3  A    between atoms: N_13  and  C_18 
ROOT
ATOM      1  N   UNK d   1      22.781   8.722  30.708  0.00  0.00    -0.319 N 
ATOM      2  C   UNK d   1      24.097   8.299  30.912  0.00  0.00     0.293 C 
ATOM      3  O   UNK d   1      24.955   9.001  31.465  0.00  0.00    -0.264 OA
ATOM      4  H   UNK d   1      22.112   8.047  30.219  0.00  0.00     0.169 HD
ENDROOT
BRANCH   2   5
ATOM      5  C   UNK d   1      24.534   6.948  30.463  0.00  0.00     0.213 C 
ATOM      6  N   UNK d   1      24.524   5.975  31.320  0.00  0.00    -0.141 NA
ATOM      7  N   UNK d   1      24.918   4.681  30.982  0.00  0.00    -0.198 N 
ATOM      8  C   UNK d   1      25.339   4.419  29.663  0.00  0.00     0.262 C 
ATOM      9  O   UNK d   1      25.606   3.202  29.377  0.00  0.00    -0.269 OA
ATOM     10  C   UNK d   1      25.475   5.478  28.643  0.00  0.00     0.226 C 
ATOM     11  N   UNK d   1      24.954   6.707  29.130  0.00  0.00    -0.360 N 
ATOM     12  H   UNK d   1      24.868   7.517  28.462  0.00  0.00     0.161 HD
BRANCH   7  13
ATOM     13  C   UNK d   1      24.899   3.620  31.968  0.00  0.00     0.062 A 
ATOM     14  C   UNK d   1      26.026   2.891  32.260  0.00  0.00     0.032 A 
ATOM     15  C   UNK d   1      25.984   1.874  33.220  0.00  0.00     0.009 A 
ATOM     16  C   UNK d   1      24.813   1.581  33.890  0.00  0.00    -0.062 A 
ATOM     17  C   UNK d   1      23.693   2.320  33.585  0.00  0.00     0.009 A 
ATOM     18  C   UNK d   1      24.716   0.509  34.925  0.00  0.00     0.048 C 
ATOM     19  C   UNK d   1      23.742   3.310  32.649  0.00  0.00     0.032 A 
ENDBRANCH   7  13
ENDBRANCH   2   5
BRANCH   1  20
ATOM     20  C   UNK d   1      22.268   9.967  31.093  0.00  0.00     0.059 A 
ATOM     21  C   UNK d   1      21.415  10.006  32.199  0.00  0.00     0.063 A 
ATOM     22 Cl   UNK d   1      21.017   8.522  33.038  0.00  0.00    -0.082 Cl
ATOM     23  C   UNK d   1      20.874  11.176  32.653  0.00  0.00     0.058 A 
ATOM     24  C   UNK d   1      21.139  12.373  32.050  0.00  0.00     0.070 A 
ATOM     25  C   UNK d   1      21.971  12.377  30.963  0.00  0.00     0.098 A 
ATOM     26  N   UNK d   1      20.593  13.615  32.511  0.00  0.00    -0.323 N 
ATOM     27  C   UNK d   1      22.525  11.171  30.500  0.00  0.00     0.070 A 
ATOM     28  O   UNK d   1      22.292  13.553  30.289  0.00  0.00    -0.340 OA
ATOM     29  C   UNK d   1      22.097  14.848  30.875  0.00  0.00     0.278 C 
ATOM     30  C   UNK d   1      20.940  14.809  31.818  0.00  0.00     0.246 C 
ATOM     31  O   UNK d   1      20.275  15.856  31.988  0.00  0.00    -0.271 OA
ATOM     32  H   UNK d   1      19.957  13.642  33.333  0.00  0.00     0.169 HD
ENDBRANCH   1  20
TORSDOF 3
ENDMDL
