MODEL 1
REMARK VINA RESULT:    -8.909      0.000      0.000
REMARK INTER + INTRA:         -10.965
REMARK INTER:                 -10.471
REMARK INTRA:                  -0.493
REMARK UNBOUND:                -0.493
REMARK  3 active torsions:
REMARK  status: ('A' for Active; 'I' for Inactive)
REMARK    1  A    between atoms: S_1  and  N_4 
REMARK    2  A    between atoms: S_1  and  C_18 
REMARK    3  A    between atoms: C_19  and  O_25 
ROOT
ATOM      1  N   UNK d   1      24.033   9.395  30.269  0.00  0.00    -0.301 N 
ATOM      2  C   UNK d   1      24.928   9.939  31.210  0.00  0.00     0.140 C 
ATOM      3  C   UNK d   1      25.173  11.425  31.037  0.00  0.00     0.067 C 
ATOM      4  C   UNK d   1      23.823  12.063  31.005  0.00  0.00     0.040 A 
ATOM      5  C   UNK d   1      22.878  11.468  30.196  0.00  0.00     0.067 A 
ATOM      6  N   UNK d   1      21.653  11.990  30.123  0.00  0.00    -0.231 NA
ATOM      7  C   UNK d   1      21.382  13.092  30.852  0.00  0.00     0.154 A 
ATOM      8  N   UNK d   1      22.285  13.690  31.649  0.00  0.00    -0.202 N 
ATOM      9  N   UNK d   1      21.734  14.762  32.249  0.00  0.00    -0.301 N 
ATOM     10  C   UNK d   1      20.457  14.898  31.864  0.00  0.00     0.112 A 
ATOM     11  C   UNK d   1      20.220  13.862  30.992  0.00  0.00     0.071 A 
ATOM     12  C   UNK d   1      23.536  13.188  31.747  0.00  0.00     0.276 A 
ATOM     13  O   UNK d   1      24.423  13.703  32.474  0.00  0.00    -0.266 OA
ATOM     14  C   UNK d   1      23.300  10.263  29.444  0.00  0.00     0.195 C 
ATOM     15  H   UNK d   1      22.252  15.380  32.914  0.00  0.00     0.186 HD
ENDROOT
BRANCH   1  16
ATOM     16  S   UNK d   1      23.472   7.835  30.525  0.00  0.00     0.264 S 
ATOM     17  O   UNK d   1      23.259   7.085  29.218  0.00  0.00    -0.200 OA
ATOM     18  O   UNK d   1      24.574   7.051  31.231  0.00  0.00    -0.200 OA
BRANCH  16  19
ATOM     19  C   UNK d   1      22.025   7.674  31.443  0.00  0.00     0.114 A 
ATOM     20  C   UNK d   1      21.415   6.432  31.602  0.00  0.00     0.091 A 
ATOM     21  C   UNK d   1      20.256   6.340  32.341  0.00  0.00     0.040 A 
ATOM     22  C   UNK d   1      19.681   7.421  32.926  0.00  0.00     0.026 A 
ATOM     23  C   UNK d   1      20.256   8.653  32.789  0.00  0.00     0.035 A 
ATOM     24  C   UNK d   1      21.416   8.747  32.050  0.00  0.00     0.052 A 
ATOM     25 Cl   UNK d   1      19.529  10.078  33.541  0.00  0.00    -0.084 Cl
BRANCH  20  26
ATOM     26  O   UNK d   1      21.931   5.287  31.042  0.00  0.00    -0.354 OA
ATOM     27  C   UNK d   1      22.646   4.388  31.858  0.00  0.00     0.210 C 
ENDBRANCH  20  26
ENDBRANCH  16  19
ENDBRANCH   1  16
TORSDOF 3
ENDMDL
