/Users/jonathanwahrer/Desktop/Msc/3_Semester/Drug_Design_Praktikum/waehrer_HTS_screening/HTS_experiment/out/docking_results/vina_output/3elj/2266_docked.pdbqt
 OpenBabel03192218553D

 27 30  0  0  1  0  0  0  0  0999 V2000
   24.0330    9.3950   30.2690 N   0  0  0  0  0  0  0  0  0  0  0  0
   24.9280    9.9390   31.2100 C   0  0  0  0  0  2  0  0  0  0  0  0
   25.1730   11.4250   31.0370 C   0  0  0  0  0  2  0  0  0  0  0  0
   23.8230   12.0630   31.0050 C   0  0  1  0  0  3  0  0  0  0  0  0
   22.8780   11.4680   30.1960 C   0  0  0  0  0  0  0  0  0  0  0  0
   21.6530   11.9900   30.1230 N   0  0  0  0  0  0  0  0  0  0  0  0
   21.3820   13.0920   30.8520 C   0  0  2  0  0  3  0  0  0  0  0  0
   22.2850   13.6900   31.6490 N   0  0  0  0  0  0  0  0  0  0  0  0
   21.7340   14.7620   32.2490 N   0  0  0  0  0  0  0  0  0  0  0  0
   20.4570   14.8980   31.8640 C   0  0  0  0  0  3  0  0  0  0  0  0
   20.2200   13.8620   30.9920 C   0  0  0  0  0  3  0  0  0  0  0  0
   23.5360   13.1880   31.7470 C   0  0  0  0  0  0  0  0  0  0  0  0
   24.4230   13.7030   32.4740 O   0  0  0  0  0  0  0  0  0  0  0  0
   23.3000   10.2630   29.4440 C   0  0  0  0  0  2  0  0  0  0  0  0
   22.2520   15.3800   32.9140 H   0  0  0  0  0  0  0  0  0  0  0  0
   23.4720    7.8350   30.5250 S   0  0  0  0  0  0  0  0  0  0  0  0
   23.2590    7.0850   29.2180 O   0  0  0  0  0  0  0  0  0  0  0  0
   24.5740    7.0510   31.2310 O   0  0  0  0  0  0  0  0  0  0  0  0
   22.0250    7.6740   31.4430 C   0  0  0  0  0  0  0  0  0  0  0  0
   21.4150    6.4320   31.6020 C   0  0  0  0  0  0  0  0  0  0  0  0
   20.2560    6.3400   32.3410 C   0  0  0  0  0  3  0  0  0  0  0  0
   19.6810    7.4210   32.9260 C   0  0  0  0  0  3  0  0  0  0  0  0
   20.2560    8.6530   32.7890 C   0  0  0  0  0  0  0  0  0  0  0  0
   21.4160    8.7470   32.0500 C   0  0  0  0  0  3  0  0  0  0  0  0
   19.5290   10.0780   33.5410 Cl  0  0  0  0  0  0  0  0  0  0  0  0
   21.9310    5.2870   31.0420 O   0  0  0  0  0  0  0  0  0  0  0  0
   22.6460    4.3880   31.8580 C   0  0  0  0  0  1  0  0  0  0  0  0
  1 16  1  0  0  0  0
  1  2  1  0  0  0  0
  3  2  1  0  0  0  0
  4  3  1  1  0  0  0
  4 12  1  0  0  0  0
  5  4  1  0  0  0  0
  6  5  2  0  0  0  0
  6  7  1  0  0  0  0
  7 11  1  1  0  0  0
  7  8  1  0  0  0  0
  8 12  1  0  0  0  0
  8  9  1  0  0  0  0
  9 15  1  0  0  0  0
 10  9  1  0  0  0  0
 11 10  2  0  0  0  0
 12 13  2  0  0  0  0
 14  5  1  0  0  0  0
 14  1  1  0  0  0  0
 16 18  2  0  0  0  0
 16 19  1  0  0  0  0
 17 16  2  0  0  0  0
 19 20  2  0  0  0  0
 19 24  1  0  0  0  0
 20 21  1  0  0  0  0
 21 22  2  0  0  0  0
 23 22  1  0  0  0  0
 23 25  1  0  0  0  0
 24 23  2  0  0  0  0
 26 20  1  0  0  0  0
 26 27  1  0  0  0  0
M  END
>  <Pose>
1

>  <Score>
-8.909

$$$$
