MODEL 1
REMARK VINA RESULT:    -9.199      0.000      0.000
REMARK INTER + INTRA:         -11.505
REMARK INTER:                 -10.813
REMARK INTRA:                  -0.692
REMARK UNBOUND:                -0.692
REMARK  3 active torsions:
REMARK  status: ('A' for Active; 'I' for Inactive)
REMARK    1  A    between atoms: S_1  and  N_4 
REMARK    2  A    between atoms: S_1  and  C_18 
REMARK    3  A    between atoms: C_21  and  O_24 
ROOT
ATOM      1  N   UNK d   1      23.396   8.962  30.967  0.00  0.00    -0.301 N 
ATOM      2  C   UNK d   1      23.438   7.642  30.522  0.00  0.00     0.140 C 
ATOM      3  C   UNK d   1      22.579   6.700  31.333  0.00  0.00     0.067 C 
ATOM      4  C   UNK d   1      21.416   7.359  31.971  0.00  0.00     0.040 A 
ATOM      5  C   UNK d   1      21.604   8.637  32.438  0.00  0.00     0.067 A 
ATOM      6  N   UNK d   1      20.611   9.311  33.030  0.00  0.00    -0.231 NA
ATOM      7  C   UNK d   1      19.383   8.712  33.172  0.00  0.00     0.154 A 
ATOM      8  N   UNK d   1      19.218   7.456  32.708  0.00  0.00    -0.202 N 
ATOM      9  N   UNK d   1      17.954   7.108  32.965  0.00  0.00    -0.301 N 
ATOM     10  C   UNK d   1      17.318   8.100  33.575  0.00  0.00     0.112 A 
ATOM     11  C   UNK d   1      18.206   9.163  33.730  0.00  0.00     0.071 A 
ATOM     12  C   UNK d   1      20.175   6.737  32.108  0.00  0.00     0.276 A 
ATOM     13  O   UNK d   1      20.020   5.569  31.677  0.00  0.00    -0.266 OA
ATOM     14  C   UNK d   1      22.929   9.257  32.270  0.00  0.00     0.195 C 
ATOM     15  H   UNK d   1      17.515   6.189  32.726  0.00  0.00     0.186 HD
ENDROOT
BRANCH   1  16
ATOM     16  S   UNK d   1      23.450  10.204  29.854  0.00  0.00     0.261 S 
ATOM     17  O   UNK d   1      24.859  10.344  29.324  0.00  0.00    -0.200 OA
ATOM     18  O   UNK d   1      22.571   9.918  28.672  0.00  0.00    -0.200 OA
BRANCH  16  19
ATOM     19  C   UNK d   1      22.996  11.769  30.490  0.00  0.00     0.081 A 
ATOM     20  C   UNK d   1      21.700  12.253  30.440  0.00  0.00     0.052 A 
ATOM     21  C   UNK d   1      21.398  13.502  30.960  0.00  0.00     0.068 A 
ATOM     22  C   UNK d   1      22.351  14.307  31.541  0.00  0.00     0.089 A 
ATOM     23 Cl   UNK d   1      19.752  14.100  30.888  0.00  0.00    -0.081 Cl
ATOM     24  C   UNK d   1      23.641  13.826  31.592  0.00  0.00     0.040 A 
ATOM     25  C   UNK d   1      23.942  12.585  31.075  0.00  0.00     0.028 A 
BRANCH  22  26
ATOM     26  O   UNK d   1      22.022  15.569  32.062  0.00  0.00    -0.354 OA
ATOM     27  C   UNK d   1      22.829  16.142  33.074  0.00  0.00     0.210 C 
ENDBRANCH  22  26
ENDBRANCH  16  19
ENDBRANCH   1  16
TORSDOF 3
ENDMDL
