MODEL 1
REMARK VINA RESULT:    -7.150      0.000      0.000
REMARK INTER + INTRA:          -9.266
REMARK INTER:                  -8.822
REMARK INTRA:                  -0.444
REMARK UNBOUND:                -0.444
REMARK  4 active torsions:
REMARK  status: ('A' for Active; 'I' for Inactive)
REMARK    1  A    between atoms: C_3  and  O_20 
REMARK    2  A    between atoms: C_5  and  C_8 
REMARK       I    between atoms: C_8  and  N_10 
REMARK    3  A    between atoms: N_10  and  C_11 
REMARK    4  A    between atoms: C_11  and  C_12 
ROOT
ATOM      1  C   UNK d   1      23.585  10.866  31.588  0.00  0.00     0.251 C 
ATOM      2  O   UNK d   1      24.738  10.939  32.099  0.00  0.00    -0.268 OA
ATOM      3  N   UNK d   1      22.992  11.985  30.927  0.00  0.00    -0.355 N 
ATOM      4  H   UNK d   1      22.059  11.877  30.531  0.00  0.00     0.162 HD
ENDROOT
BRANCH   1   5
ATOM      5  C   UNK d   1      22.856   9.626  31.680  0.00  0.00     0.034 A 
ATOM      6  C   UNK d   1      21.605   9.653  32.305  0.00  0.00     0.055 A 
ATOM      7  C   UNK d   1      20.816   8.536  32.456  0.00  0.00     0.090 A 
ATOM      8  C   UNK d   1      21.278   7.332  31.968  0.00  0.00     0.067 A 
ATOM      9 Cl   UNK d   1      20.287   5.888  32.150  0.00  0.00    -0.081 Cl
ATOM     10  C   UNK d   1      22.517   7.283  31.345  0.00  0.00     0.028 A 
ATOM     11  C   UNK d   1      23.306   8.430  31.200  0.00  0.00     0.019 A 
BRANCH   7  12
ATOM     12  O   UNK d   1      19.578   8.594  33.081  0.00  0.00    -0.354 OA
ATOM     13  C   UNK d   1      19.025   9.824  33.509  0.00  0.00     0.210 C 
ENDBRANCH   7  12
ENDBRANCH   1   5
BRANCH   3  14
ATOM     14  C   UNK d   1      23.749  13.200  30.856  0.00  0.00     0.160 C 
BRANCH  14  15
ATOM     15  C   UNK d   1      23.072  14.443  31.276  0.00  0.00     0.268 C 
ATOM     16  N   UNK d   1      22.200  14.368  32.408  0.00  0.00     0.100 N 
ATOM     17  C   UNK d   1      22.398  15.646  33.133  0.00  0.00     0.303 C 
ATOM     18  C   UNK d   1      20.786  14.382  32.091  0.00  0.00     0.303 C 
ATOM     19  C   UNK d   1      22.331  16.709  32.029  0.00  0.00     0.302 C 
ATOM     20  N   UNK d   1      21.601  16.243  30.867  0.00  0.00     0.094 N 
ATOM     21  C   UNK d   1      22.302  15.157  30.178  0.00  0.00     0.309 C 
ATOM     22  C   UNK d   1      20.369  15.650  31.357  0.00  0.00     0.302 C 
ENDBRANCH  14  15
ENDBRANCH   3  14
TORSDOF 4
ENDMDL
