MODEL 1
REMARK VINA RESULT:    -8.561      0.000      0.000
REMARK INTER + INTRA:         -12.833
REMARK INTER:                 -11.564
REMARK INTRA:                  -1.269
REMARK UNBOUND:                -1.269
REMARK  6 active torsions:
REMARK  status: ('A' for Active; 'I' for Inactive)
REMARK    1  A    between atoms: N_8  and  C_12 
REMARK    2  A    between atoms: C_12  and  C_13 
REMARK    3  A    between atoms: C_13  and  C_14 
REMARK       I    between atoms: C_14  and  N_16 
REMARK    4  A    between atoms: N_19  and  C_22 
REMARK    5  A    between atoms: C_22  and  C_23 
REMARK       I    between atoms: C_23  and  N_25 
REMARK    6  A    between atoms: N_25  and  C_26 
ROOT
ATOM      1  C   UNK d   1      24.598   9.222  29.686  0.00  0.00     0.221 C 
ATOM      2  O   UNK d   1      25.886   9.182  29.765  0.00  0.00    -0.273 OA
ATOM      3  N   UNK d   1      24.048  10.480  29.436  0.00  0.00    -0.349 N 
ATOM      4  C   UNK d   1      22.609  10.794  29.520  0.00  0.00     0.145 C 
ATOM      5  C   UNK d   1      22.639  11.681  30.804  0.00  0.00     0.137 C 
ATOM      6  N   UNK d   1      23.366  12.900  30.478  0.00  0.00    -0.401 N 
ATOM      7  C   UNK d   1      24.281  12.920  29.474  0.00  0.00     0.137 C 
ATOM      8  C   UNK d   1      24.838  11.603  29.013  0.00  0.00     0.145 C 
ENDROOT
BRANCH   1   9
ATOM      9  C   UNK d   1      23.944   7.946  29.848  0.00  0.00     0.123 C 
BRANCH   9  10
ATOM     10  C   UNK d   1      23.692   7.362  31.162  0.00  0.00     0.144 C 
BRANCH  10  11
ATOM     11  N   UNK d   1      22.353   6.867  31.428  0.00  0.00    -0.290 N 
ATOM     12  C   UNK d   1      21.295   7.437  31.997  0.00  0.00     0.073 A 
ATOM     13  C   UNK d   1      20.266   6.531  32.102  0.00  0.00     0.109 A 
ATOM     14  C   UNK d   1      21.098   8.752  32.456  0.00  0.00     0.034 A 
ATOM     15  C   UNK d   1      19.024   6.873  32.654  0.00  0.00     0.063 A 
ATOM     16  O   UNK d   1      20.732   5.423  31.590  0.00  0.00    -0.259 OA
ATOM     17  C   UNK d   1      18.821   8.147  33.106  0.00  0.00     0.036 A 
ATOM     18 Cl   UNK d   1      17.281   8.612  33.786  0.00  0.00    -0.084 Cl
ATOM     19  C   UNK d   1      19.859   9.054  32.996  0.00  0.00     0.026 A 
ATOM     20  C   UNK d   1      21.967   5.570  31.176  0.00  0.00     0.372 A 
ATOM     21  O   UNK d   1      22.694   4.686  30.639  0.00  0.00    -0.237 OA
ENDBRANCH  10  11
ENDBRANCH   9  10
ENDBRANCH   1   9
BRANCH   6  22
ATOM     22  C   UNK d   1      23.278  13.752  31.566  0.00  0.00     0.219 C 
BRANCH  22  23
ATOM     23  C   UNK d   1      22.021  14.621  31.512  0.00  0.00     0.235 C 
ATOM     24  O   UNK d   1      22.186  15.721  30.859  0.00  0.00    -0.272 OA
ATOM     25  N   UNK d   1      20.893  14.243  32.103  0.00  0.00    -0.355 N 
ATOM     26  H   UNK d   1      20.207  15.269  31.537  0.00  0.00     0.162 HD
BRANCH  25  27
ATOM     27  C   UNK d   1      19.694  13.840  32.732  0.00  0.00     0.084 A 
ATOM     28  C   UNK d   1      19.847  12.622  33.721  0.00  0.00     0.027 A 
ATOM     29  C   UNK d   1      19.173  12.446  32.448  0.00  0.00     0.027 A 
ENDBRANCH  25  27
ENDBRANCH  22  23
ENDBRANCH   6  22
TORSDOF 6
ENDMDL
