MODEL 1
REMARK VINA RESULT:    -7.501      0.000      0.000
REMARK INTER + INTRA:          -8.583
REMARK INTER:                  -8.378
REMARK INTRA:                  -0.205
REMARK UNBOUND:                -0.205
REMARK  2 active torsions:
REMARK  status: ('A' for Active; 'I' for Inactive)
REMARK    1  A    between atoms: C_3  and  N_17 
REMARK    2  A    between atoms: N_17  and  C_18 
ROOT
ATOM      1 Cl   UNK d   1      19.213  13.316  32.901  0.00  0.00    -0.076 Cl
ATOM      2  C   UNK d   1      20.629  12.685  32.089  0.00  0.00     0.135 A 
ATOM      3  C   UNK d   1      21.280  13.447  31.142  0.00  0.00     0.126 A 
ATOM      4  C   UNK d   1      22.389  12.888  30.547  0.00  0.00     0.291 A 
ATOM      5  O   UNK d   1      23.062  13.502  29.663  0.00  0.00    -0.264 OA
ATOM      6  N   UNK d   1      22.790  11.657  30.898  0.00  0.00    -0.241 N 
ATOM      7  N   UNK d   1      22.199  10.895  31.797  0.00  0.00    -0.242 N 
ATOM      8  C   UNK d   1      22.668   9.564  32.148  0.00  0.00     0.134 C 
ATOM      9  C   UNK d   1      22.394   8.550  31.057  0.00  0.00     0.031 C 
ATOM     10  C   UNK d   1      23.461   8.628  29.979  0.00  0.00     0.005 C 
ATOM     11  C   UNK d   1      23.487   9.993  29.329  0.00  0.00     0.031 C 
ATOM     12  C   UNK d   1      23.977  11.080  30.249  0.00  0.00     0.134 C 
ATOM     13  C   UNK d   1      24.773  10.446  31.333  0.00  0.00    -0.002 C 
ATOM     14  C   UNK d   1      24.172   9.678  32.234  0.00  0.00    -0.002 C 
ATOM     15  C   UNK d   1      21.095  11.426  32.402  0.00  0.00     0.287 A 
ATOM     16  O   UNK d   1      20.502  10.710  33.278  0.00  0.00    -0.265 OA
ENDROOT
BRANCH   3  17
ATOM     17  N   UNK d   1      20.852  14.752  30.766  0.00  0.00    -0.380 N 
ATOM     18  H   UNK d   1      20.099  14.763  30.013  0.00  0.00     0.160 HD
BRANCH  17  19
ATOM     19  C   UNK d   1      21.364  15.972  31.328  0.00  0.00     0.073 C 
ATOM     20  C   UNK d   1      22.221  15.715  32.555  0.00  0.00     0.031 C 
ATOM     21  C   UNK d   1      22.158  16.806  30.378  0.00  0.00     0.031 C 
ENDBRANCH  17  19
ENDBRANCH   3  17
TORSDOF 2
ENDMDL
