MODEL 1
REMARK VINA RESULT:    -7.573      0.000      0.000
REMARK INTER + INTRA:          -8.736
REMARK INTER:                  -8.459
REMARK INTRA:                  -0.277
REMARK UNBOUND:                -0.277
REMARK  2 active torsions:
REMARK  status: ('A' for Active; 'I' for Inactive)
REMARK    1  A    between atoms: C_3  and  N_17 
REMARK    2  A    between atoms: N_17  and  C_18 
ROOT
ATOM      1 Cl   UNK d   1      19.348  13.182  33.169  0.00  0.00    -0.076 Cl
ATOM      2  C   UNK d   1      20.641  12.442  32.245  0.00  0.00     0.135 A 
ATOM      3  C   UNK d   1      21.247  13.197  31.263  0.00  0.00     0.126 A 
ATOM      4  C   UNK d   1      22.267  12.541  30.561  0.00  0.00     0.291 A 
ATOM      5  O   UNK d   1      22.850  13.177  29.661  0.00  0.00    -0.264 OA
ATOM      6  N   UNK d   1      22.606  11.278  30.845  0.00  0.00    -0.241 N 
ATOM      7  N   UNK d   1      22.019  10.559  31.790  0.00  0.00    -0.241 N 
ATOM      8  C   UNK d   1      22.514   9.202  31.974  0.00  0.00     0.139 C 
ATOM      9  C   UNK d   1      22.375   8.508  30.632  0.00  0.00     0.021 A 
ATOM     10  C   UNK d   1      22.979   9.314  29.564  0.00  0.00     0.021 A 
ATOM     11  C   UNK d   1      23.664  10.570  30.121  0.00  0.00     0.139 C 
ATOM     12  C   UNK d   1      24.588  10.084  31.203  0.00  0.00    -0.001 C 
ATOM     13  C   UNK d   1      24.003   9.381  32.157  0.00  0.00    -0.001 C 
ATOM     14  C   UNK d   1      23.573   7.954  29.955  0.00  0.00     0.015 A 
ATOM     15  C   UNK d   1      21.043  11.132  32.487  0.00  0.00     0.287 A 
ATOM     16  O   UNK d   1      20.479  10.458  33.387  0.00  0.00    -0.265 OA
ENDROOT
BRANCH   3  17
ATOM     17  N   UNK d   1      20.901  14.543  30.952  0.00  0.00    -0.380 N 
ATOM     18  H   UNK d   1      20.158  14.655  30.230  0.00  0.00     0.160 HD
BRANCH  17  19
ATOM     19  C   UNK d   1      21.478  15.697  31.538  0.00  0.00     0.073 C 
ATOM     20  C   UNK d   1      22.494  15.415  32.615  0.00  0.00     0.031 C 
ATOM     21  C   UNK d   1      22.164  16.605  30.526  0.00  0.00     0.031 C 
ENDBRANCH  17  19
ENDBRANCH   3  17
TORSDOF 2
ENDMDL
