/Users/jonathanwahrer/Desktop/Msc/3_Semester/Drug_Design_Praktikum/waehrer_HTS_screening/HTS_experiment/out/docking_results/vina_output/3elj/2276_docked.pdbqt
 OpenBabel03192218563D

 21 24  0  0  1  0  0  0  0  0999 V2000
   19.3480   13.1820   33.1690 Cl  0  0  0  0  0  0  0  0  0  0  0  0
   20.6410   12.4420   32.2450 C   0  0  0  0  0  0  0  0  0  0  0  0
   21.2470   13.1970   31.2630 C   0  0  0  0  0  0  0  0  0  0  0  0
   22.2670   12.5410   30.5610 C   0  0  0  0  0  0  0  0  0  0  0  0
   22.8500   13.1770   29.6610 O   0  0  0  0  0  0  0  0  0  0  0  0
   22.6060   11.2780   30.8450 N   0  0  0  0  0  0  0  0  0  0  0  0
   22.0190   10.5590   31.7900 N   0  0  0  0  0  0  0  0  0  0  0  0
   22.5140    9.2020   31.9740 C   0  0  1  0  0  3  0  0  0  0  0  0
   22.3750    8.5080   30.6320 C   0  0  1  0  0  3  0  0  0  0  0  0
   22.9790    9.3140   29.5640 C   0  0  1  0  0  3  0  0  0  0  0  0
   23.6640   10.5700   30.1210 C   0  0  2  0  0  3  0  0  0  0  0  0
   24.5880   10.0840   31.2030 C   0  0  0  0  0  2  0  0  0  0  0  0
   24.0030    9.3810   32.1570 C   0  0  0  0  0  2  0  0  0  0  0  0
   23.5730    7.9540   29.9550 C   0  0  0  0  0  2  0  0  0  0  0  0
   21.0430   11.1320   32.4870 C   0  0  0  0  0  0  0  0  0  0  0  0
   20.4790   10.4580   33.3870 O   0  0  0  0  0  0  0  0  0  0  0  0
   20.9010   14.5430   30.9520 N   0  0  0  0  0  0  0  0  0  0  0  0
   20.1580   14.6550   30.2300 H   0  0  0  0  0  0  0  0  0  0  0  0
   21.4780   15.6970   31.5380 C   0  0  0  0  0  3  0  0  0  0  0  0
   22.4940   15.4150   32.6150 C   0  0  0  0  0  1  0  0  0  0  0  0
   22.1640   16.6050   30.5260 C   0  0  0  0  0  1  0  0  0  0  0  0
  2 15  1  0  0  0  0
  2  1  1  0  0  0  0
  3  2  2  0  0  0  0
  4  6  1  0  0  0  0
  4  3  1  0  0  0  0
  5  4  2  0  0  0  0
  6  7  1  0  0  0  0
  7  8  1  0  0  0  0
  7 15  1  0  0  0  0
  8 13  1  6  0  0  0
  9 14  1  1  0  0  0
  9  8  1  0  0  0  0
 10 14  1  1  0  0  0
 10 11  1  0  0  0  0
 10  9  1  0  0  0  0
 11  6  1  0  0  0  0
 11 12  1  1  0  0  0
 12 13  1  0  0  0  0
 15 16  2  0  0  0  0
 17  3  1  0  0  0  0
 17 19  1  0  0  0  0
 18 17  1  0  0  0  0
 19 20  1  0  0  0  0
 21 19  1  0  0  0  0
M  END
>  <Pose>
1

>  <Score>
-7.573

$$$$
