MODEL 1
REMARK VINA RESULT:    -8.033      0.000      0.000
REMARK INTER + INTRA:         -10.991
REMARK INTER:                 -10.381
REMARK INTRA:                  -0.610
REMARK UNBOUND:                -0.610
REMARK  5 active torsions:
REMARK  status: ('A' for Active; 'I' for Inactive)
REMARK    1  A    between atoms: C_3  and  N_15 
REMARK    2  A    between atoms: N_6  and  C_9 
REMARK    3  A    between atoms: N_18  and  C_21 
REMARK    4  A    between atoms: C_21  and  C_22 
REMARK       I    between atoms: C_22  and  N_24 
REMARK       I    between atoms: N_24  and  C_25 
REMARK       I    between atoms: C_25  and  N_27 
REMARK    5  A    between atoms: N_27  and  C_28 
ROOT
ATOM      1  N   UNK d   1      23.133   8.199  29.918  0.00  0.00    -0.375 N 
ATOM      2  C   UNK d   1      22.249   7.173  29.557  0.00  0.00     0.153 C 
ATOM      3  C   UNK d   1      22.777   5.854  30.232  0.00  0.00     0.292 C 
ATOM      4  N   UNK d   1      23.769   5.981  31.179  0.00  0.00     0.100 N 
ATOM      5  C   UNK d   1      24.667   7.102  31.116  0.00  0.00     0.292 C 
ATOM      6  C   UNK d   1      24.581   7.772  29.706  0.00  0.00     0.153 C 
ENDROOT
BRANCH   1   7
ATOM      7  C   UNK d   1      23.012   9.411  30.579  0.00  0.00     0.077 A 
ATOM      8  C   UNK d   1      22.154   9.716  31.542  0.00  0.00     0.131 A 
ATOM      9 Cl   UNK d   1      21.385   8.339  32.430  0.00  0.00    -0.076 Cl
ATOM     10  C   UNK d   1      21.829  11.020  31.916  0.00  0.00     0.292 A 
ATOM     11  N   UNK d   1      22.404  12.014  31.297  0.00  0.00    -0.197 N 
ATOM     12  O   UNK d   1      20.962  11.163  32.844  0.00  0.00    -0.264 OA
ATOM     13  N   UNK d   1      23.303  11.746  30.314  0.00  0.00    -0.174 NA
ATOM     14  C   UNK d   1      23.649  10.578  29.921  0.00  0.00     0.170 A 
BRANCH  11  15
ATOM     15  C   UNK d   1      21.944  13.397  31.408  0.00  0.00     0.062 A 
ATOM     16  C   UNK d   1      20.688  13.785  31.068  0.00  0.00     0.032 A 
ATOM     17  C   UNK d   1      20.247  15.070  31.298  0.00  0.00     0.002 A 
ATOM     18  C   UNK d   1      21.083  16.014  31.892  0.00  0.00     0.000 A 
ATOM     19  C   UNK d   1      22.370  15.589  32.222  0.00  0.00     0.002 A 
ATOM     20  C   UNK d   1      22.779  14.334  31.990  0.00  0.00     0.032 A 
ENDBRANCH  11  15
ENDBRANCH   1   7
BRANCH   4  21
ATOM     21  C   UNK d   1      24.721   4.823  31.264  0.00  0.00     0.375 C 
BRANCH  21  22
ATOM     22  C   UNK d   1      24.194   3.820  32.178  0.00  0.00     0.254 C 
ATOM     23  O   UNK d   1      23.335   3.761  32.890  0.00  0.00    -0.271 OA
ATOM     24  N   UNK d   1      25.150   2.407  32.101  0.00  0.00    -0.278 N 
ATOM     25  C   UNK d   1      24.150   1.547  32.825  0.00  0.00     0.323 C 
ATOM     26  H   UNK d   1      25.661   2.854  31.731  0.00  0.00     0.173 HD
ATOM     27  O   UNK d   1      23.396   1.920  33.682  0.00  0.00    -0.247 OA
ATOM     28  N   UNK d   1      24.208   0.190  32.330  0.00  0.00    -0.338 N 
ATOM     29  H   UNK d   1      24.963   0.009  31.588  0.00  0.00     0.164 HD
BRANCH  28  30
ATOM     30  C   UNK d   1      23.412  -0.909  32.728  0.00  0.00     0.086 C 
ATOM     31  C   UNK d   1      23.218  -2.042  31.806  0.00  0.00     0.025 C 
ATOM     32  C   UNK d   1      24.312  -3.071  32.107  0.00  0.00     0.002 C 
ATOM     33  C   UNK d   1      24.475  -2.897  33.599  0.00  0.00     0.002 C 
ATOM     34  C   UNK d   1      24.148  -1.511  33.943  0.00  0.00     0.025 C 
ENDBRANCH  28  30
ENDBRANCH  21  22
ENDBRANCH   4  21
TORSDOF 5
ENDMDL
