MODEL 1
REMARK VINA RESULT:    -8.117      0.000      0.000
REMARK INTER + INTRA:         -11.702
REMARK INTER:                 -10.965
REMARK INTRA:                  -0.738
REMARK UNBOUND:                -0.738
REMARK  6 active torsions:
REMARK  status: ('A' for Active; 'I' for Inactive)
REMARK    1  A    between atoms: C_3  and  N_15 
REMARK    2  A    between atoms: N_6  and  C_9 
REMARK    3  A    between atoms: N_18  and  C_21 
REMARK    4  A    between atoms: C_21  and  C_22 
REMARK       I    between atoms: C_22  and  N_24 
REMARK    5  A    between atoms: N_24  and  C_25 
REMARK    6  A    between atoms: C_25  and  C_26 
ROOT
ATOM      1  N   UNK d   1      23.368  12.148  30.456  0.00  0.00    -0.375 N 
ATOM      2  C   UNK d   1      23.994  13.044  31.398  0.00  0.00     0.153 C 
ATOM      3  C   UNK d   1      22.959  13.914  32.040  0.00  0.00     0.292 C 
ATOM      4  N   UNK d   1      21.669  13.371  31.697  0.00  0.00     0.100 NA
ATOM      5  C   UNK d   1      21.430  13.592  30.317  0.00  0.00     0.292 C 
ATOM      6  C   UNK d   1      22.379  12.669  29.546  0.00  0.00     0.153 C 
ENDROOT
BRANCH   1   7
ATOM      7  C   UNK d   1      23.689  10.767  30.383  0.00  0.00     0.077 A 
ATOM      8  C   UNK d   1      24.867  10.315  29.795  0.00  0.00     0.131 A 
ATOM      9 Cl   UNK d   1      25.944  11.526  29.133  0.00  0.00    -0.076 Cl
ATOM     10  C   UNK d   1      25.158   8.966  29.744  0.00  0.00     0.292 A 
ATOM     11  N   UNK d   1      24.323   8.042  30.256  0.00  0.00    -0.197 N 
ATOM     12  O   UNK d   1      26.228   8.561  29.209  0.00  0.00    -0.264 OA
ATOM     13  N   UNK d   1      23.211   8.491  30.810  0.00  0.00    -0.174 NA
ATOM     14  C   UNK d   1      22.865   9.788  30.894  0.00  0.00     0.170 A 
BRANCH  11  15
ATOM     15  C   UNK d   1      24.628   6.642  30.205  0.00  0.00     0.062 A 
ATOM     16  C   UNK d   1      24.437   5.853  31.317  0.00  0.00     0.032 A 
ATOM     17  C   UNK d   1      24.730   4.485  31.279  0.00  0.00     0.002 A 
ATOM     18  C   UNK d   1      25.215   3.889  30.137  0.00  0.00     0.000 A 
ATOM     19  C   UNK d   1      25.409   4.671  29.020  0.00  0.00     0.002 A 
ATOM     20  C   UNK d   1      25.114   6.030  29.070  0.00  0.00     0.032 A 
ENDBRANCH  11  15
ENDBRANCH   1   7
BRANCH   4  21
ATOM     21  C   UNK d   1      20.625  13.611  32.611  0.00  0.00     0.374 C 
BRANCH  21  22
ATOM     22  C   UNK d   1      19.875  12.417  33.017  0.00  0.00     0.246 C 
ATOM     23  O   UNK d   1      18.621  12.578  33.197  0.00  0.00    -0.272 OA
ATOM     24  N   UNK d   1      20.409  11.122  33.221  0.00  0.00    -0.357 N 
ATOM     25  H   UNK d   1      21.429  10.993  33.063  0.00  0.00     0.162 HD
BRANCH  24  26
ATOM     26  C   UNK d   1      19.630   9.977  33.620  0.00  0.00     0.154 C 
BRANCH  26  27
ATOM     27  C   UNK d   1      19.833   8.866  32.636  0.00  0.00     0.139 C 
ATOM     28  O   UNK d   1      20.773   7.996  33.120  0.00  0.00    -0.384 OA
ATOM     29  C   UNK d   1      20.267   6.728  33.209  0.00  0.00     0.168 C 
ATOM     30  C   UNK d   1      19.207   6.698  32.129  0.00  0.00     0.029 C 
ATOM     31  C   UNK d   1      18.559   8.063  32.419  0.00  0.00     0.035 C 
ENDBRANCH  26  27
ENDBRANCH  24  26
ENDBRANCH  21  22
ENDBRANCH   4  21
TORSDOF 6
ENDMDL
