MODEL 1
REMARK VINA RESULT:    -8.809      0.000      0.000
REMARK INTER + INTRA:         -12.348
REMARK INTER:                 -11.384
REMARK INTRA:                  -0.964
REMARK UNBOUND:                -0.964
REMARK  5 active torsions:
REMARK  status: ('A' for Active; 'I' for Inactive)
REMARK    1  A    between atoms: S_1  and  N_4 
REMARK    2  A    between atoms: S_1  and  C_28 
REMARK    3  A    between atoms: N_7  and  C_10 
REMARK    4  A    between atoms: C_10  and  C_11 
REMARK    5  A    between atoms: C_17  and  C_21 
ROOT
ATOM      1  C   UNK d   1      26.567   5.921  28.900  0.00  0.00     0.060 A 
ATOM      2  C   UNK d   1      26.294   4.987  29.880  0.00  0.00     0.105 A 
ATOM      3  C   UNK d   1      25.206   5.026  30.713  0.00  0.00     0.272 A 
ATOM      4  O   UNK d   1      25.061   4.104  31.581  0.00  0.00    -0.266 OA
ATOM      5  N   UNK d   1      24.305   6.047  30.596  0.00  0.00    -0.171 N 
ATOM      6  N   UNK d   1      23.258   6.199  31.305  0.00  0.00    -0.154 NA
ATOM      7  C   UNK d   1      22.440   7.196  31.139  0.00  0.00     0.132 A 
ATOM      8  S   UNK d   1      23.237   8.011  29.841  0.00  0.00    -0.028 SA
ATOM      9  C   UNK d   1      24.571   6.948  29.649  0.00  0.00     0.199 A 
ATOM     10  N   UNK d   1      25.645   6.906  28.830  0.00  0.00    -0.225 NA
ENDROOT
BRANCH   1  11
ATOM     11  C   UNK d   1      27.760   5.832  28.025  0.00  0.00     0.176 C 
BRANCH  11  12
ATOM     12  N   UNK d   1      27.996   7.112  27.438  0.00  0.00    -0.404 N 
ATOM     13  C   UNK d   1      28.211   7.140  26.046  0.00  0.00     0.137 C 
ATOM     14  C   UNK d   1      28.004   8.574  25.547  0.00  0.00     0.155 C 
ATOM     15  N   UNK d   1      28.746   9.477  26.312  0.00  0.00    -0.302 N 
ATOM     16  C   UNK d   1      29.606   8.879  27.245  0.00  0.00     0.155 C 
ATOM     17  C   UNK d   1      28.823   7.985  28.180  0.00  0.00     0.137 C 
BRANCH  15  18
ATOM     18  S   UNK d   1      28.274  11.059  26.484  0.00  0.00     0.280 S 
ATOM     19  O   UNK d   1      27.581  11.502  25.200  0.00  0.00    -0.199 OA
ATOM     20  O   UNK d   1      29.429  11.980  26.780  0.00  0.00    -0.199 OA
BRANCH  18  21
ATOM     21  C   UNK d   1      27.070  11.227  27.742  0.00  0.00     0.188 A 
ATOM     22  N   UNK d   1      25.751  11.524  27.575  0.00  0.00    -0.229 NA
ATOM     23  C   UNK d   1      25.136  11.575  28.757  0.00  0.00     0.208 A 
ATOM     24  N   UNK d   1      26.017  11.316  29.732  0.00  0.00    -0.358 N 
ATOM     25  C   UNK d   1      27.206  11.102  29.104  0.00  0.00     0.134 A 
ATOM     26  H   UNK d   1      25.829  11.286  30.748  0.00  0.00     0.166 HD
ENDBRANCH  18  21
ENDBRANCH  15  18
ENDBRANCH  11  12
ENDBRANCH   1  11
BRANCH   7  27
ATOM     27  C   UNK d   1      21.197   7.570  31.824  0.00  0.00     0.002 A 
ATOM     28  C   UNK d   1      20.252   6.594  32.058  0.00  0.00     0.016 A 
ATOM     29  C   UNK d   1      19.056   6.884  32.700  0.00  0.00     0.024 A 
ATOM     30  C   UNK d   1      18.798   8.173  33.119  0.00  0.00     0.034 A 
ATOM     31  C   UNK d   1      19.732   9.169  32.894  0.00  0.00     0.024 A 
ATOM     32 Cl   UNK d   1      17.308   8.549  33.923  0.00  0.00    -0.084 Cl
ATOM     33  C   UNK d   1      20.902   8.834  32.253  0.00  0.00     0.016 A 
ENDBRANCH   7  27
TORSDOF 5
ENDMDL
