MODEL 1
REMARK VINA RESULT:    -8.748      0.000      0.000
REMARK INTER + INTRA:         -12.769
REMARK INTER:                 -12.328
REMARK INTRA:                  -0.441
REMARK UNBOUND:                -0.441
REMARK  7 active torsions:
REMARK  status: ('A' for Active; 'I' for Inactive)
REMARK    1  A    between atoms: S_1  and  N_4 
REMARK    2  A    between atoms: S_1  and  C_27 
REMARK    3  A    between atoms: N_7  and  C_10 
REMARK    4  A    between atoms: C_10  and  C_11 
REMARK       I    between atoms: C_11  and  N_13 
REMARK    5  A    between atoms: N_13  and  C_14 
REMARK    6  A    between atoms: C_14  and  C_15 
REMARK    7  A    between atoms: C_15  and  N_21 
ROOT
ATOM      1  C   UNK d   1      24.272  10.130  31.474  0.00  0.00     0.374 C 
ENDROOT
BRANCH   1   2
ATOM      2  N   UNK d   1      24.688   9.230  30.438  0.00  0.00     0.100 N 
ATOM      3  C   UNK d   1      25.208   7.998  30.912  0.00  0.00     0.293 C 
ATOM      4  C   UNK d   1      24.472   6.762  30.469  0.00  0.00     0.165 C 
ATOM      5  N   UNK d   1      23.109   6.944  30.567  0.00  0.00    -0.303 N 
ATOM      6  C   UNK d   1      22.583   8.111  30.002  0.00  0.00     0.165 C 
ATOM      7  C   UNK d   1      23.673   9.027  29.454  0.00  0.00     0.293 C 
BRANCH   5   8
ATOM      8  S   UNK d   1      22.090   5.864  31.313  0.00  0.00     0.260 S 
ATOM      9  O   UNK d   1      21.478   4.856  30.372  0.00  0.00    -0.200 OA
ATOM     10  O   UNK d   1      22.744   5.049  32.406  0.00  0.00    -0.200 OA
BRANCH   8  11
ATOM     11  C   UNK d   1      20.735   6.723  32.039  0.00  0.00     0.079 A 
ATOM     12  C   UNK d   1      20.815   8.056  32.332  0.00  0.00     0.027 A 
ATOM     13  C   UNK d   1      19.763   8.730  32.897  0.00  0.00     0.025 A 
ATOM     14  C   UNK d   1      18.603   8.041  33.174  0.00  0.00     0.034 A 
ATOM     15  C   UNK d   1      18.518   6.693  32.879  0.00  0.00     0.025 A 
ATOM     16 Cl   UNK d   1      17.275   8.931  33.896  0.00  0.00    -0.084 Cl
ATOM     17  C   UNK d   1      19.577   6.030  32.313  0.00  0.00     0.027 A 
ENDBRANCH   8  11
ENDBRANCH   5   8
ENDBRANCH   1   2
BRANCH   1  18
ATOM     18  C   UNK d   1      23.553  11.319  30.902  0.00  0.00     0.246 C 
ATOM     19  O   UNK d   1      24.161  11.983  30.035  0.00  0.00    -0.272 OA
ATOM     20  N   UNK d   1      22.247  11.666  31.328  0.00  0.00    -0.357 N 
ATOM     21  H   UNK d   1      21.790  11.061  32.062  0.00  0.00     0.162 HD
BRANCH  20  22
ATOM     22  C   UNK d   1      21.637  12.818  30.729  0.00  0.00     0.164 C 
BRANCH  22  23
ATOM     23  C   UNK d   1      20.841  13.689  31.621  0.00  0.00     0.175 C 
ATOM     24  C   UNK d   1      20.584  12.973  32.925  0.00  0.00     0.043 C 
ATOM     25  C   UNK d   1      19.271  12.184  32.902  0.00  0.00     0.003 C 
ATOM     26  C   UNK d   1      18.091  13.134  32.843  0.00  0.00     0.000 C 
ATOM     27  C   UNK d   1      18.533  14.354  32.057  0.00  0.00     0.003 C 
ATOM     28  C   UNK d   1      19.453  13.841  30.969  0.00  0.00     0.043 C 
BRANCH  23  29
ATOM     29  N   UNK d   1      21.309  14.999  31.863  0.00  0.00     0.103 N 
ATOM     30  C   UNK d   1      22.616  15.163  32.394  0.00  0.00     0.299 C 
ATOM     31  C   UNK d   1      22.669  16.598  32.950  0.00  0.00     0.198 C 
ATOM     32  O   UNK d   1      22.501  17.505  31.932  0.00  0.00    -0.388 OA
ATOM     33  C   UNK d   1      22.286  16.942  30.699  0.00  0.00     0.198 C 
ATOM     34  C   UNK d   1      21.174  15.893  30.733  0.00  0.00     0.299 C 
ENDBRANCH  23  29
ENDBRANCH  22  23
ENDBRANCH  20  22
ENDBRANCH   1  18
TORSDOF 7
ENDMDL
