MODEL 1
REMARK VINA RESULT:    -9.225      0.000      0.000
REMARK INTER + INTRA:         -11.302
REMARK INTER:                 -11.382
REMARK INTRA:                   0.080
REMARK UNBOUND:                 0.080
REMARK  4 active torsions:
REMARK  status: ('A' for Active; 'I' for Inactive)
REMARK    1  A    between atoms: S_1  and  N_4 
REMARK    2  A    between atoms: S_1  and  C_18 
REMARK    3  A    between atoms: C_6  and  C_10 
REMARK       I    between atoms: C_10  and  N_12 
REMARK    4  A    between atoms: C_22  and  C_24 
ROOT
ATOM      1  S   UNK d   1      24.786   9.356  30.955  0.00  0.00     0.245 S 
ATOM      2  O   UNK d   1      26.115   9.092  30.242  0.00  0.00    -0.206 OA
ATOM      3  O   UNK d   1      25.182   9.528  32.426  0.00  0.00    -0.206 OA
ENDROOT
BRANCH   1   4
ATOM      4  N   UNK d   1      24.190  10.817  30.338  0.00  0.00    -0.206 NA
ATOM      5  C   UNK d   1      24.204  11.933  31.215  0.00  0.00     0.121 C 
ATOM      6  C   UNK d   1      23.687  13.201  30.576  0.00  0.00     0.092 C 
ATOM      7  C   UNK d   1      24.450  13.506  29.332  0.00  0.00     0.016 C 
ATOM      8  C   UNK d   1      24.534  12.298  28.414  0.00  0.00     0.016 C 
ATOM      9  C   UNK d   1      25.060  11.140  29.188  0.00  0.00     0.107 C 
BRANCH   6  10
ATOM     10  C   UNK d   1      22.218  13.253  30.436  0.00  0.00     0.225 C 
ATOM     11  O   UNK d   1      21.657  12.129  30.158  0.00  0.00    -0.273 OA
ATOM     12  N   UNK d   1      21.393  14.361  30.573  0.00  0.00    -0.348 N 
ATOM     13  C   UNK d   1      19.973  14.263  30.448  0.00  0.00     0.152 C 
ATOM     14  C   UNK d   1      21.923  15.677  30.834  0.00  0.00     0.152 C 
ATOM     15  C   UNK d   1      19.219  15.171  31.380  0.00  0.00     0.187 C 
ATOM     16  O   UNK d   1      19.900  16.268  31.807  0.00  0.00    -0.388 OA
ATOM     17  C   UNK d   1      21.226  16.086  32.142  0.00  0.00     0.187 C 
ENDBRANCH   6  10
ENDBRANCH   1   4
BRANCH   1  18
ATOM     18  C   UNK d   1      23.777   7.976  30.837  0.00  0.00     0.097 A 
ATOM     19  C   UNK d   1      24.149   6.840  30.162  0.00  0.00     0.057 A 
ATOM     20  C   UNK d   1      23.314   5.732  30.158  0.00  0.00     0.026 A 
ATOM     21 Cl   UNK d   1      25.613   6.720  29.210  0.00  0.00    -0.083 Cl
ATOM     22  C   UNK d   1      22.089   5.742  30.830  0.00  0.00     0.017 A 
ATOM     23  C   UNK d   1      21.703   6.875  31.509  0.00  0.00     0.016 A 
ATOM     24  C   UNK d   1      22.544   7.963  31.501  0.00  0.00     0.042 A 
BRANCH  23  25
ATOM     25  C   UNK d   1      20.430   6.913  32.216  0.00  0.00     0.189 A 
ATOM     26  N   UNK d   1      19.823   5.873  32.812  0.00  0.00    -0.106 NA
ATOM     27  O   UNK d   1      18.699   6.262  33.349  0.00  0.00    -0.196 OA
ATOM     28  C   UNK d   1      18.542   7.540  33.126  0.00  0.00     0.169 A 
ATOM     29  N   UNK d   1      19.611   7.957  32.422  0.00  0.00    -0.204 NA
ATOM     30  C   UNK d   1      17.387   8.397  33.566  0.00  0.00     0.102 C 
ENDBRANCH  23  25
ENDBRANCH   1  18
TORSDOF 4
ENDMDL
