/Users/jonathanwahrer/Desktop/Msc/3_Semester/Drug_Design_Praktikum/waehrer_HTS_screening/HTS_experiment/out/docking_results/vina_output/3elj/2335_docked.pdbqt
 OpenBabel03192218593D

 35 38  0  0  1  0  0  0  0  0999 V2000
   24.6430    9.7640   30.3850 N   0  0  0  0  0  0  0  0  0  0  0  0
   23.9210   10.9740   30.3730 C   0  0  0  0  0  2  0  0  0  0  0  0
   24.0930   11.7710   29.0970 C   0  0  2  0  0  3  0  0  0  0  0  0
   25.3810   11.5380   28.4050 C   0  0  0  0  0  2  0  0  0  0  0  0
   26.4630   10.8910   29.1900 C   0  0  0  0  0  3  0  0  0  0  0  0
   26.0190    9.8200   30.1530 C   0  0  0  0  0  3  0  0  0  0  0  0
   23.8460    8.3220   30.5990 S   0  0  0  0  0  0  0  0  0  0  0  0
   24.7880    7.3420   31.2950 O   0  0  0  0  0  0  0  0  0  0  0  0
   23.6220    7.6870   29.2310 O   0  0  0  0  0  0  0  0  0  0  0  0
   22.3310    8.3820   31.4220 C   0  0  0  0  0  0  0  0  0  0  0  0
   21.8760    9.5770   31.9590 C   0  0  0  0  0  3  0  0  0  0  0  0
   20.6720    9.6810   32.6120 C   0  0  0  0  0  0  0  0  0  0  0  0
   19.8730    8.5390   32.7410 C   0  0  0  0  0  0  0  0  0  0  0  0
   19.9450   10.7260   33.2420 N   0  0  0  0  0  0  0  0  0  0  0  0
   20.3260    7.3760   32.2120 C   0  0  0  0  0  3  0  0  0  0  0  0
   18.6200    8.8640   33.4750 C   0  0  0  0  0  2  0  0  0  0  0  0
   21.5410    7.2720   31.5540 C   0  0  0  0  0  0  0  0  0  0  0  0
   22.0840    5.5610   30.8460 Br  0  0  0  0  0  0  0  0  0  0  0  0
   19.0170   10.1290   34.2100 C   0  0  0  0  0  2  0  0  0  0  0  0
   20.0430   12.0990   33.0240 C   0  0  0  0  0  0  0  0  0  0  0  0
   19.2670   12.8980   33.6550 O   0  0  0  0  0  0  0  0  0  0  0  0
   20.9940   12.7150   32.1010 C   0  0  0  0  0  2  0  0  0  0  0  0
   20.4460   14.0030   31.4910 C   0  0  0  0  0  1  0  0  0  0  0  0
   23.9020   13.2220   29.3490 C   0  0  0  0  0  0  0  0  0  0  0  0
   24.0970   13.6490   30.5130 O   0  0  0  0  0  0  0  0  0  0  0  0
   23.5060   14.1050   28.2760 N   0  0  0  0  0  0  0  0  0  0  0  0
   23.3640   13.6540   27.3680 H   0  0  0  0  0  0  0  0  0  0  0  0
   23.3440   15.4780   28.5870 C   0  0  0  0  0  2  0  0  0  0  0  0
   24.0860   16.4870   27.7950 C   0  0  0  0  0  2  0  0  0  0  0  0
   23.4080   17.2050   26.7810 N   0  0  0  0  0  0  0  0  0  0  0  0
   24.0780   17.4570   25.5890 C   0  0  0  0  0  2  0  0  0  0  0  0
   24.3840   18.8940   25.2800 C   0  0  0  0  0  2  0  0  0  0  0  0
   23.3490   19.7470   25.6320 O   0  0  0  0  0  0  0  0  0  0  0  0
   23.2150   19.6550   27.0170 C   0  0  0  0  0  2  0  0  0  0  0  0
   22.6240   18.2960   27.3110 C   0  0  0  0  0  2  0  0  0  0  0  0
  1  7  1  0  0  0  0
  2  1  1  0  0  0  0
  3 24  1  1  0  0  0
  3  2  1  0  0  0  0
  4  3  1  0  0  0  0
  4  5  1  0  0  0  0
  5  6  2  0  0  0  0
  6  1  1  0  0  0  0
  7  8  2  0  0  0  0
  7 10  1  0  0  0  0
  9  7  2  0  0  0  0
 10 17  2  0  0  0  0
 10 11  1  0  0  0  0
 11 12  2  0  0  0  0
 12 13  1  0  0  0  0
 12 14  1  0  0  0  0
 13 16  1  0  0  0  0
 14 19  1  0  0  0  0
 15 13  2  0  0  0  0
 16 19  1  0  0  0  0
 17 15  1  0  0  0  0
 18 17  1  0  0  0  0
 20 14  1  0  0  0  0
 20 21  2  0  0  0  0
 22 20  1  0  0  0  0
 23 22  1  0  0  0  0
 24 25  2  0  0  0  0
 26 28  1  0  0  0  0
 26 24  1  0  0  0  0
 27 26  1  0  0  0  0
 29 28  1  0  0  0  0
 30 35  1  0  0  0  0
 30 29  1  0  0  0  0
 31 30  1  0  0  0  0
 32 31  1  0  0  0  0
 32 33  1  0  0  0  0
 33 34  1  0  0  0  0
 34 35  1  0  0  0  0
M  END
>  <Pose>
1

>  <Score>
-9.309

$$$$
