MODEL 1
REMARK VINA RESULT:    -7.675      0.000      0.000
REMARK INTER + INTRA:          -9.643
REMARK INTER:                  -9.021
REMARK INTRA:                  -0.622
REMARK UNBOUND:                -0.622
REMARK  3 active torsions:
REMARK  status: ('A' for Active; 'I' for Inactive)
REMARK    1  A    between atoms: C_5  and  N_8 
REMARK    2  A    between atoms: C_10  and  C_14 
REMARK       I    between atoms: C_14  and  N_16 
REMARK    3  A    between atoms: N_19  and  C_22 
ROOT
ATOM      1  C   UNK d   1      24.693   6.929  29.442  0.00  0.00     0.226 C 
ATOM      2  O   UNK d   1      23.594   6.266  29.339  0.00  0.00    -0.273 OA
ATOM      3  N   UNK d   1      25.795   6.407  28.757  0.00  0.00    -0.349 N 
ATOM      4  C   UNK d   1      25.668   5.176  27.994  0.00  0.00     0.146 C 
ATOM      5  C   UNK d   1      26.673   4.137  28.480  0.00  0.00     0.161 C 
ATOM      6  N   UNK d   1      27.877   4.805  28.879  0.00  0.00    -0.213 N 
ATOM      7  C   UNK d   1      28.193   6.068  28.283  0.00  0.00     0.161 C 
ATOM      8  C   UNK d   1      27.094   7.038  28.760  0.00  0.00     0.146 C 
ENDROOT
BRANCH   1   9
ATOM      9  C   UNK d   1      24.657   8.145  30.263  0.00  0.00     0.105 C 
ATOM     10  C   UNK d   1      23.830   8.044  31.514  0.00  0.00     0.146 C 
ATOM     11  N   UNK d   1      22.693   8.938  31.330  0.00  0.00    -0.317 N 
ATOM     12  C   UNK d   1      23.146   9.942  30.397  0.00  0.00     0.225 C 
ATOM     13  C   UNK d   1      24.236   9.391  29.558  0.00  0.00     0.119 C 
ATOM     14  O   UNK d   1      22.617  11.101  30.381  0.00  0.00    -0.273 OA
BRANCH  11  15
ATOM     15  C   UNK d   1      21.405   8.859  31.931  0.00  0.00     0.037 A 
ATOM     16  C   UNK d   1      20.866   9.899  32.658  0.00  0.00     0.031 A 
ATOM     17  C   UNK d   1      19.617   9.824  33.246  0.00  0.00     0.026 A 
ATOM     18  C   UNK d   1      18.863   8.688  33.119  0.00  0.00     0.034 A 
ATOM     19 Cl   UNK d   1      17.268   8.575  33.862  0.00  0.00    -0.084 Cl
ATOM     20  C   UNK d   1      19.366   7.636  32.404  0.00  0.00     0.026 A 
ATOM     21  C   UNK d   1      20.634   7.721  31.812  0.00  0.00     0.031 A 
ENDBRANCH  11  15
ENDBRANCH   1   9
BRANCH   6  22
ATOM     22  C   UNK d   1      28.735   4.239  29.845  0.00  0.00     0.704 A 
ATOM     23  N   UNK d   1      29.829   3.463  29.608  0.00  0.00    -0.195 N 
ATOM     24  C   UNK d   1      30.385   3.124  30.779  0.00  0.00     0.128 A 
ATOM     25  C   UNK d   1      30.316   3.061  28.282  0.00  0.00     0.175 C 
ATOM     26  C   UNK d   1      29.639   3.688  31.787  0.00  0.00     0.154 A 
ATOM     27  N   UNK d   1      28.663   4.345  31.187  0.00  0.00    -0.075 NA
ENDBRANCH   6  22
TORSDOF 3
ENDMDL
