/Users/jonathanwahrer/Desktop/Msc/3_Semester/Drug_Design_Praktikum/waehrer_HTS_screening/HTS_experiment/out/docking_results/vina_output/3elj/2345_docked.pdbqt
 OpenBabel03192218593D

 27 30  0  0  1  0  0  0  0  0999 V2000
   24.6930    6.9290   29.4420 C   0  0  0  0  0  0  0  0  0  0  0  0
   23.5940    6.2660   29.3390 O   0  0  0  0  0  0  0  0  0  0  0  0
   25.7950    6.4070   28.7570 N   0  0  0  0  0  0  0  0  0  0  0  0
   25.6680    5.1760   27.9940 C   0  0  0  0  0  2  0  0  0  0  0  0
   26.6730    4.1370   28.4800 C   0  0  0  0  0  2  0  0  0  0  0  0
   27.8770    4.8050   28.8790 N   0  0  0  0  0  0  0  0  0  0  0  0
   28.1930    6.0680   28.2830 C   0  0  0  0  0  2  0  0  0  0  0  0
   27.0940    7.0380   28.7600 C   0  0  0  0  0  2  0  0  0  0  0  0
   24.6570    8.1450   30.2630 C   0  0  2  0  0  3  0  0  0  0  0  0
   23.8300    8.0440   31.5140 C   0  0  0  0  0  2  0  0  0  0  0  0
   22.6930    8.9380   31.3300 N   0  0  0  0  0  0  0  0  0  0  0  0
   23.1460    9.9420   30.3970 C   0  0  0  0  0  0  0  0  0  0  0  0
   24.2360    9.3910   29.5580 C   0  0  0  0  0  2  0  0  0  0  0  0
   22.6170   11.1010   30.3810 O   0  0  0  0  0  0  0  0  0  0  0  0
   21.4050    8.8590   31.9310 C   0  0  0  0  0  0  0  0  0  0  0  0
   20.8660    9.8990   32.6580 C   0  0  0  0  0  3  0  0  0  0  0  0
   19.6170    9.8240   33.2460 C   0  0  0  0  0  3  0  0  0  0  0  0
   18.8630    8.6880   33.1190 C   0  0  0  0  0  0  0  0  0  0  0  0
   17.2680    8.5750   33.8620 Cl  0  0  0  0  0  0  0  0  0  0  0  0
   19.3660    7.6360   32.4040 C   0  0  0  0  0  3  0  0  0  0  0  0
   20.6340    7.7210   31.8120 C   0  0  0  0  0  3  0  0  0  0  0  0
   28.7350    4.2390   29.8450 C   0  0  0  0  0  0  0  0  0  0  0  0
   29.8290    3.4630   29.6080 N   0  0  0  0  0  0  0  0  0  0  0  0
   30.3850    3.1240   30.7790 C   0  0  0  0  0  3  0  0  0  0  0  0
   30.3160    3.0610   28.2820 C   0  0  0  0  0  1  0  0  0  0  0  0
   29.6390    3.6880   31.7870 C   0  0  0  0  0  3  0  0  0  0  0  0
   28.6630    4.3450   31.1870 N   0  0  0  0  0  0  0  0  0  0  0  0
  2  1  2  0  0  0  0
  3  8  1  0  0  0  0
  3  1  1  0  0  0  0
  4  5  1  0  0  0  0
  4  3  1  0  0  0  0
  5  6  1  0  0  0  0
  6 22  1  0  0  0  0
  7  8  1  0  0  0  0
  7  6  1  0  0  0  0
  9  1  1  6  0  0  0
  9 10  1  0  0  0  0
 11 10  1  0  0  0  0
 11 15  1  0  0  0  0
 12 11  1  0  0  0  0
 13  9  1  0  0  0  0
 13 12  1  0  0  0  0
 14 12  2  0  0  0  0
 15 16  1  0  0  0  0
 16 17  2  0  0  0  0
 18 17  1  0  0  0  0
 18 19  1  0  0  0  0
 20 18  2  0  0  0  0
 21 15  2  0  0  0  0
 21 20  1  0  0  0  0
 22 27  2  0  0  0  0
 23 22  1  0  0  0  0
 23 24  1  0  0  0  0
 24 26  2  0  0  0  0
 25 23  1  0  0  0  0
 27 26  1  0  0  0  0
M  END
>  <Pose>
1

>  <Score>
-7.675

$$$$
