MODEL 1
REMARK VINA RESULT:    -7.052      0.000      0.000
REMARK INTER + INTRA:          -7.495
REMARK INTER:                  -7.464
REMARK INTRA:                  -0.031
REMARK UNBOUND:                -0.031
REMARK  1 active torsions:
REMARK  status: ('A' for Active; 'I' for Inactive)
REMARK    1  A    between atoms: C_5  and  N_8 
ROOT
ATOM      1  N   UNK d   1      24.351   5.287  30.659  0.00  0.00    -0.231 N 
ATOM      2  C   UNK d   1      24.907   5.710  29.405  0.00  0.00     0.357 A 
ATOM      3  O   UNK d   1      24.276   6.560  28.716  0.00  0.00    -0.244 OA
ATOM      4  N   UNK d   1      26.145   5.134  29.029  0.00  0.00    -0.169 NA
ATOM      5  C   UNK d   1      26.784   4.280  29.698  0.00  0.00     0.202 A 
ATOM      6  C   UNK d   1      26.356   3.702  31.019  0.00  0.00     0.140 A 
ATOM      7  C   UNK d   1      26.103   2.249  30.731  0.00  0.00     0.269 C 
ATOM      8  N   UNK d   1      26.195   1.346  31.812  0.00  0.00    -0.043 N 
ATOM      9  C   UNK d   1      27.249   1.573  32.728  0.00  0.00     0.140 A 
ATOM     10  C   UNK d   1      27.834   2.796  32.803  0.00  0.00    -0.021 A 
ATOM     11  C   UNK d   1      28.867   2.981  33.718  0.00  0.00     0.016 A 
ATOM     12  C   UNK d   1      29.274   1.934  34.520  0.00  0.00    -0.061 A 
ATOM     13  C   UNK d   1      28.676   0.686  34.441  0.00  0.00     0.009 A 
ATOM     14  C   UNK d   1      27.643   0.514  33.522  0.00  0.00     0.038 A 
ATOM     15  C   UNK d   1      30.389   2.099  35.506  0.00  0.00     0.048 C 
ATOM     16  C   UNK d   1      27.450   3.964  31.981  0.00  0.00     0.070 C 
ATOM     17  C   UNK d   1      24.956   1.112  32.539  0.00  0.00     0.276 C 
ATOM     18  C   UNK d   1      25.080   4.343  31.421  0.00  0.00     0.251 A 
ATOM     19  O   UNK d   1      24.540   4.059  32.550  0.00  0.00    -0.271 OA
ATOM     20  O   UNK d   1      28.012   3.781  29.225  0.00  0.00    -0.173 OA
ATOM     21  H   UNK d   1      26.421   0.389  31.390  0.00  0.00     0.286 HD
ENDROOT
BRANCH   1  22
ATOM     22  C   UNK d   1      23.095   5.825  31.023  0.00  0.00     0.047 A 
ATOM     23  C   UNK d   1      22.952   7.162  31.397  0.00  0.00     0.032 A 
ATOM     24  C   UNK d   1      21.747   7.708  31.748  0.00  0.00     0.026 A 
ATOM     25  C   UNK d   1      20.576   6.948  31.753  0.00  0.00     0.034 A 
ATOM     26 Cl   UNK d   1      19.041   7.671  32.197  0.00  0.00    -0.084 Cl
ATOM     27  C   UNK d   1      20.716   5.625  31.384  0.00  0.00     0.026 A 
ATOM     28  C   UNK d   1      21.928   5.080  31.033  0.00  0.00     0.032 A 
ENDBRANCH   1  22
TORSDOF 1
ENDMDL
