MODEL 1
REMARK VINA RESULT:    -6.959      0.000      0.000
REMARK INTER + INTRA:          -8.304
REMARK INTER:                  -7.773
REMARK INTRA:                  -0.531
REMARK UNBOUND:                -0.531
REMARK  3 active torsions:
REMARK  status: ('A' for Active; 'I' for Inactive)
REMARK    1  A    between atoms: C_5  and  N_8 
REMARK    2  A    between atoms: C_13  and  O_21 
REMARK    3  A    between atoms: C_14  and  O_20 
ROOT
ATOM      1  N   UNK d   1      23.148   9.533  31.102  0.00  0.00    -0.252 N 
ATOM      2  C   UNK d   1      23.269   9.997  29.748  0.00  0.00     0.236 C 
ATOM      3  O   UNK d   1      22.561   9.564  28.804  0.00  0.00    -0.272 OA
ATOM      4  C   UNK d   1      24.327  11.033  29.640  0.00  0.00     0.099 C 
ATOM      5  C   UNK d   1      23.814  12.378  29.240  0.00  0.00     0.031 C 
ATOM      6  C   UNK d   1      22.401  12.499  29.772  0.00  0.00     0.152 C 
ATOM      7  C   UNK d   1      22.643  12.483  31.280  0.00  0.00     0.152 C 
ATOM      8  C   UNK d   1      24.143  12.500  31.462  0.00  0.00     0.031 C 
ATOM      9  C   UNK d   1      24.799  11.208  31.089  0.00  0.00     0.099 C 
ATOM     10  C   UNK d   1      24.273  10.025  31.812  0.00  0.00     0.236 C 
ATOM     11  O   UNK d   1      24.767   9.566  32.871  0.00  0.00    -0.272 OA
ATOM     12  C   UNK d   1      24.516  13.336  30.217  0.00  0.00     0.016 C 
ENDROOT
BRANCH   1  13
ATOM     13  C   UNK d   1      22.122   8.738  31.682  0.00  0.00     0.045 A 
ATOM     14  C   UNK d   1      21.157   9.317  32.515  0.00  0.00     0.032 A 
ATOM     15  C   UNK d   1      20.168   8.551  33.084  0.00  0.00     0.026 A 
ATOM     16  C   UNK d   1      20.089   7.190  32.857  0.00  0.00     0.034 A 
ATOM     17 Cl   UNK d   1      18.813   6.232  33.603  0.00  0.00    -0.084 Cl
ATOM     18  C   UNK d   1      21.034   6.592  32.035  0.00  0.00     0.026 A 
ATOM     19  C   UNK d   1      22.012   7.382  31.478  0.00  0.00     0.032 A 
ENDBRANCH   1  13
BRANCH   6  20
ATOM     20  O   UNK d   1      21.930  13.751  29.439  0.00  0.00    -0.393 OA
ATOM     21  H   UNK d   1      21.195  14.085  30.004  0.00  0.00     0.210 HD
ENDBRANCH   6  20
BRANCH   7  22
ATOM     22  O   UNK d   1      22.170  13.652  31.873  0.00  0.00    -0.393 OA
ATOM     23  H   UNK d   1      21.169  13.584  31.903  0.00  0.00     0.210 HD
ENDBRANCH   7  22
TORSDOF 3
ENDMDL
