/Users/jonathanwahrer/Desktop/Msc/3_Semester/Drug_Design_Praktikum/waehrer_HTS_screening/HTS_experiment/out/docking_results/vina_output/3elj/2357_docked.pdbqt
 OpenBabel03192219003D

 36 39  0  0  1  0  0  0  0  0999 V2000
   23.3240   12.5990   29.4870 C   0  0  2  0  0  3  0  0  0  0  0  0
   23.9270   13.6490   30.0070 C   0  0  0  0  0  2  0  0  0  0  0  0
   22.9500   14.7500   30.2050 C   0  0  2  0  0  3  0  0  0  0  0  0
   21.6900   14.0620   30.1770 N   0  0  0  0  0  0  0  0  0  0  0  0
   21.9570   12.9670   29.3410 N   0  0  0  0  0  0  0  0  0  0  0  0
   20.8920   14.6250   29.8870 H   0  0  0  0  0  0  0  0  0  0  0  0
   21.2560   12.5120   28.7220 H   0  0  0  0  0  0  0  0  0  0  0  0
   23.9300   11.2710   29.1240 C   0  0  1  0  0  3  0  0  0  0  0  0
   25.2800   11.1420   29.7170 C   0  0  0  0  0  0  0  0  0  0  0  0
   25.4280   10.6180   31.0210 N   0  0  0  0  0  0  0  0  0  0  0  0
   26.2760   11.4990   29.0590 O   0  0  0  0  0  0  0  0  0  0  0  0
   24.3930    9.8970   31.6240 C   0  0  0  0  0  0  0  0  0  0  0  0
   26.3230   10.7530   31.5760 H   0  0  0  0  0  0  0  0  0  0  0  0
   23.1670    9.6740   30.9420 N   0  0  0  0  0  0  0  0  0  0  0  0
   24.5000    9.4110   32.8040 O   0  0  0  0  0  0  0  0  0  0  0  0
   23.0330   10.2070   29.6330 C   0  0  0  0  0  0  0  0  0  0  0  0
   22.1390    9.7720   28.8860 O   0  0  0  0  0  0  0  0  0  0  0  0
   22.1270    8.9390   31.5730 C   0  0  0  0  0  0  0  0  0  0  0  0
   22.0390    7.5800   31.4140 C   0  0  0  0  0  3  0  0  0  0  0  0
   21.0430    6.8380   32.0160 C   0  0  0  0  0  3  0  0  0  0  0  0
   20.1020    7.4570   32.8000 C   0  0  0  0  0  0  0  0  0  0  0  0
   18.8150    6.5270   33.5800 Cl  0  0  0  0  0  0  0  0  0  0  0  0
   20.1700    8.8180   32.9720 C   0  0  0  0  0  3  0  0  0  0  0  0
   21.1890    9.5550   32.3540 C   0  0  0  0  0  3  0  0  0  0  0  0
   23.1340   15.7340   29.1450 C   0  0  0  0  0  0  0  0  0  0  0  0
   24.0600   15.4720   28.1590 C   0  0  0  0  0  3  0  0  0  0  0  0
   24.3050   16.3380   27.1120 C   0  0  0  0  0  0  0  0  0  0  0  0
   23.5710   17.5300   27.0680 C   0  0  0  0  0  0  0  0  0  0  0  0
   22.6350   17.8370   28.0310 C   0  0  0  0  0  0  0  0  0  0  0  0
   22.4440   16.9230   29.0480 C   0  0  0  0  0  3  0  0  0  0  0  0
   25.2360   16.0830   26.1130 O   0  0  0  0  0  0  0  0  0  0  0  0
   26.3190   15.2410   26.4510 C   0  0  0  0  0  1  0  0  0  0  0  0
   23.7790   18.4260   26.0430 O   0  0  0  0  0  0  0  0  0  0  0  0
   23.0610   19.0990   25.8100 H   0  0  0  0  0  0  0  0  0  0  0  0
   21.9480   19.0110   27.9420 O   0  0  0  0  0  0  0  0  0  0  0  0
   21.1390   19.4270   26.8810 C   0  0  0  0  0  1  0  0  0  0  0  0
  1  2  1  1  0  0  0
  2  3  1  0  0  0  0
  3 25  1  6  0  0  0
  4  3  1  0  0  0  0
  5  1  1  0  0  0  0
  5  4  1  0  0  0  0
  6  4  1  0  0  0  0
  7  5  1  0  0  0  0
  8  1  1  0  0  0  0
  8 16  1  1  0  0  0
  8  9  1  0  0  0  0
  9 10  1  0  0  0  0
 10 13  1  0  0  0  0
 10 12  1  0  0  0  0
 11  9  2  0  0  0  0
 12 15  2  0  0  0  0
 14 18  1  0  0  0  0
 14 12  1  0  0  0  0
 16 14  1  0  0  0  0
 17 16  2  0  0  0  0
 18 24  1  0  0  0  0
 19 18  2  0  0  0  0
 19 20  1  0  0  0  0
 20 21  2  0  0  0  0
 21 23  1  0  0  0  0
 21 22  1  0  0  0  0
 24 23  2  0  0  0  0
 26 25  2  0  0  0  0
 27 26  1  0  0  0  0
 28 27  2  0  0  0  0
 28 29  1  0  0  0  0
 29 30  2  0  0  0  0
 30 25  1  0  0  0  0
 31 32  1  0  0  0  0
 31 27  1  0  0  0  0
 33 28  1  0  0  0  0
 34 33  1  0  0  0  0
 35 29  1  0  0  0  0
 36 35  1  0  0  0  0
M  END
>  <Pose>
1

>  <Score>
-8.746

$$$$
