MODEL 1
REMARK VINA RESULT:    -8.919      0.000      0.000
REMARK INTER + INTRA:         -11.879
REMARK INTER:                 -11.266
REMARK INTRA:                  -0.613
REMARK UNBOUND:                -0.613
REMARK  5 active torsions:
REMARK  status: ('A' for Active; 'I' for Inactive)
REMARK    1  A    between atoms: C_5  and  N_8 
REMARK    2  A    between atoms: C_14  and  C_17 
REMARK    3  A    between atoms: C_19  and  C_22 
REMARK    4  A    between atoms: C_24  and  O_30 
REMARK    5  A    between atoms: C_25  and  O_28 
ROOT
ATOM      1  N   UNK d   1      23.453  13.083  30.271  0.00  0.00    -0.233 N 
ATOM      2  C   UNK d   1      24.216  13.281  29.089  0.00  0.00     0.336 C 
ATOM      3  O   UNK d   1      23.825  14.158  28.264  0.00  0.00    -0.246 OA
ATOM      4  N   UNK d   1      25.382  12.527  28.826  0.00  0.00    -0.277 N 
ATOM      5  C   UNK d   1      25.825  11.545  29.743  0.00  0.00     0.244 C 
ATOM      6  O   UNK d   1      26.967  10.980  29.615  0.00  0.00    -0.272 OA
ATOM      7  C   UNK d   1      25.001  11.131  30.878  0.00  0.00     0.221 C 
ATOM      8  C   UNK d   1      23.927  12.090  31.168  0.00  0.00     0.251 C 
ATOM      9  O   UNK d   1      23.351  12.056  32.310  0.00  0.00    -0.271 OA
ATOM     10  H   UNK d   1      25.934  12.689  27.944  0.00  0.00     0.173 HD
ENDROOT
BRANCH   7  11
ATOM     11  C   UNK d   1      24.481   9.749  30.662  0.00  0.00     0.041 C 
ATOM     12  C   UNK d   1      24.642   8.696  31.419  0.00  0.00     0.026 C 
ATOM     13  C   UNK d   1      23.929   7.572  30.764  0.00  0.00     0.134 C 
ATOM     14  N   UNK d   1      23.757   8.016  29.397  0.00  0.00    -0.228 NA
ATOM     15  N   UNK d   1      23.695   9.408  29.525  0.00  0.00    -0.323 N 
ATOM     16  H   UNK d   1      24.561   7.719  28.794  0.00  0.00     0.147 HD
ATOM     17  H   UNK d   1      23.153  10.032  28.872  0.00  0.00     0.180 HD
BRANCH  13  18
ATOM     18  C   UNK d   1      22.603   7.348  31.404  0.00  0.00    -0.032 A 
ATOM     19  C   UNK d   1      21.967   8.322  32.139  0.00  0.00     0.048 A 
ATOM     20  C   UNK d   1      20.736   8.123  32.738  0.00  0.00     0.099 A 
ATOM     21  C   UNK d   1      20.097   6.911  32.610  0.00  0.00     0.101 A 
ATOM     22  C   UNK d   1      20.715   5.926  31.880  0.00  0.00     0.040 A 
ATOM     23  C   UNK d   1      21.941   6.134  31.287  0.00  0.00     0.012 A 
BRANCH  20  24
ATOM     24  O   UNK d   1      20.147   9.141  33.464  0.00  0.00    -0.358 OA
ATOM     25  H   UNK d   1      20.108  10.076  33.111  0.00  0.00     0.217 HD
ENDBRANCH  20  24
BRANCH  21  26
ATOM     26  O   UNK d   1      18.868   6.692  33.200  0.00  0.00    -0.353 OA
ATOM     27  C   UNK d   1      17.720   7.311  32.668  0.00  0.00     0.210 C 
ENDBRANCH  21  26
ENDBRANCH  13  18
ENDBRANCH   7  11
BRANCH   1  28
ATOM     28  C   UNK d   1      22.278  13.829  30.564  0.00  0.00     0.047 A 
ATOM     29  C   UNK d   1      22.330  15.150  30.991  0.00  0.00     0.032 A 
ATOM     30  C   UNK d   1      21.207  15.868  31.272  0.00  0.00     0.026 A 
ATOM     31  C   UNK d   1      19.961  15.276  31.132  0.00  0.00     0.034 A 
ATOM     32 Cl   UNK d   1      18.492  16.167  31.484  0.00  0.00    -0.084 Cl
ATOM     33  C   UNK d   1      19.873  13.960  30.708  0.00  0.00     0.026 A 
ATOM     34  C   UNK d   1      21.039  13.245  30.426  0.00  0.00     0.032 A 
ENDBRANCH   1  28
TORSDOF 5
ENDMDL
