MODEL 1
REMARK VINA RESULT:    -8.830      0.000      0.000
REMARK INTER + INTRA:         -11.766
REMARK INTER:                 -10.637
REMARK INTRA:                  -1.129
REMARK UNBOUND:                -1.129
REMARK  4 active torsions:
REMARK  status: ('A' for Active; 'I' for Inactive)
REMARK    1  A    between atoms: C_5  and  N_8 
REMARK    2  A    between atoms: C_14  and  C_17 
REMARK    3  A    between atoms: C_19  and  C_22 
REMARK    4  A    between atoms: C_24  and  O_28 
ROOT
ATOM      1  N   UNK d   1      21.317  11.755  32.069  0.00  0.00    -0.233 N 
ATOM      2  C   UNK d   1      20.295  11.348  32.993  0.00  0.00     0.336 C 
ATOM      3  O   UNK d   1      19.572  12.200  33.596  0.00  0.00    -0.246 OA
ATOM      4  N   UNK d   1      20.137   9.952  33.196  0.00  0.00    -0.277 N 
ATOM      5  C   UNK d   1      20.974   9.005  32.496  0.00  0.00     0.244 C 
ATOM      6  O   UNK d   1      20.523   7.862  32.353  0.00  0.00    -0.272 OA
ATOM      7  C   UNK d   1      22.272   9.429  32.006  0.00  0.00     0.221 C 
ATOM      8  C   UNK d   1      22.114  10.787  31.404  0.00  0.00     0.251 C 
ATOM      9  O   UNK d   1      22.652  11.140  30.324  0.00  0.00    -0.271 OA
ATOM     10  H   UNK d   1      19.405   9.639  33.858  0.00  0.00     0.173 HD
ENDROOT
BRANCH   7  11
ATOM     11  C   UNK d   1      23.007   8.518  31.159  0.00  0.00     0.041 C 
ATOM     12  C   UNK d   1      24.172   7.948  31.367  0.00  0.00     0.026 C 
ATOM     13  C   UNK d   1      24.557   7.078  30.229  0.00  0.00     0.134 C 
ATOM     14  N   UNK d   1      23.339   7.008  29.456  0.00  0.00    -0.228 NA
ATOM     15  N   UNK d   1      22.543   8.075  29.867  0.00  0.00    -0.323 N 
ATOM     16  H   UNK d   1      22.861   6.084  29.532  0.00  0.00     0.147 HD
ATOM     17  H   UNK d   1      21.759   8.448  29.291  0.00  0.00     0.180 HD
BRANCH  13  18
ATOM     18  C   UNK d   1      24.908   5.713  30.638  0.00  0.00    -0.033 A 
ATOM     19  C   UNK d   1      23.957   4.971  31.323  0.00  0.00     0.045 A 
ATOM     20  C   UNK d   1      24.253   3.688  31.720  0.00  0.00     0.066 A 
ATOM     21  C   UNK d   1      25.474   3.114  31.456  0.00  0.00     0.036 A 
ATOM     22  C   UNK d   1      26.428   3.836  30.779  0.00  0.00     0.003 A 
ATOM     23  C   UNK d   1      26.124   5.138  30.378  0.00  0.00     0.009 A 
BRANCH  20  24
ATOM     24  O   UNK d   1      23.300   2.928  32.411  0.00  0.00    -0.361 OA
ATOM     25  H   UNK d   1      23.139   3.113  33.386  0.00  0.00     0.217 HD
ENDBRANCH  20  24
ENDBRANCH  13  18
ENDBRANCH   7  11
BRANCH   1  26
ATOM     26  C   UNK d   1      21.485  13.175  31.859  0.00  0.00     0.047 A 
ATOM     27  C   UNK d   1      22.580  13.856  32.353  0.00  0.00     0.032 A 
ATOM     28  C   UNK d   1      22.767  15.213  32.172  0.00  0.00     0.026 A 
ATOM     29  C   UNK d   1      21.821  15.940  31.463  0.00  0.00     0.034 A 
ATOM     30 Cl   UNK d   1      22.083  17.646  31.252  0.00  0.00    -0.084 Cl
ATOM     31  C   UNK d   1      20.708  15.275  30.955  0.00  0.00     0.026 A 
ATOM     32  C   UNK d   1      20.554  13.915  31.156  0.00  0.00     0.032 A 
ENDBRANCH   1  26
TORSDOF 4
ENDMDL
