MODEL 1
REMARK VINA RESULT:    -9.139      0.000      0.000
REMARK INTER + INTRA:         -11.920
REMARK INTER:                 -10.741
REMARK INTRA:                  -1.178
REMARK UNBOUND:                -1.178
REMARK  3 active torsions:
REMARK  status: ('A' for Active; 'I' for Inactive)
REMARK    1  A    between atoms: C_5  and  N_8 
REMARK    2  A    between atoms: C_14  and  C_17 
REMARK    3  A    between atoms: C_19  and  C_22 
ROOT
ATOM      1  N   UNK d   1      22.976   9.972  30.547  0.00  0.00    -0.233 N 
ATOM      2  C   UNK d   1      22.983   9.992  29.132  0.00  0.00     0.336 C 
ATOM      3  O   UNK d   1      22.223   9.230  28.484  0.00  0.00    -0.246 OA
ATOM      4  N   UNK d   1      23.871  10.899  28.454  0.00  0.00    -0.277 N 
ATOM      5  C   UNK d   1      24.731  11.762  29.185  0.00  0.00     0.244 C 
ATOM      6  O   UNK d   1      25.716  12.287  28.607  0.00  0.00    -0.272 OA
ATOM      7  C   UNK d   1      24.453  12.028  30.605  0.00  0.00     0.221 C 
ATOM      8  C   UNK d   1      23.847  10.846  31.243  0.00  0.00     0.251 C 
ATOM      9  O   UNK d   1      24.105  10.587  32.469  0.00  0.00    -0.271 OA
ATOM     10  H   UNK d   1      23.909  10.947  27.414  0.00  0.00     0.173 HD
ENDROOT
BRANCH   7  11
ATOM     11  C   UNK d   1      23.550  13.217  30.761  0.00  0.00     0.041 C 
ATOM     12  C   UNK d   1      23.192  13.827  31.861  0.00  0.00     0.026 C 
ATOM     13  C   UNK d   1      22.293  14.942  31.525  0.00  0.00     0.135 C 
ATOM     14  N   UNK d   1      22.467  15.116  30.111  0.00  0.00    -0.228 NA
ATOM     15  N   UNK d   1      22.941  13.873  29.661  0.00  0.00    -0.323 N 
ATOM     16  H   UNK d   1      23.116  15.875  29.883  0.00  0.00     0.147 HD
ATOM     17  H   UNK d   1      22.826  13.558  28.671  0.00  0.00     0.180 HD
BRANCH  13  18
ATOM     18  C   UNK d   1      20.909  14.490  31.819  0.00  0.00    -0.018 A 
ATOM     19  C   UNK d   1      19.835  15.138  31.258  0.00  0.00     0.125 A 
ATOM     20  N   UNK d   1      18.563  14.729  31.524  0.00  0.00    -0.273 NA
ATOM     21  C   UNK d   1      18.294  13.690  32.331  0.00  0.00     0.116 A 
ATOM     22  C   UNK d   1      19.346  13.018  32.909  0.00  0.00     0.020 A 
ATOM     23  C   UNK d   1      20.662  13.427  32.646  0.00  0.00     0.012 A 
ENDBRANCH  13  18
ENDBRANCH   7  11
BRANCH   1  24
ATOM     24  C   UNK d   1      22.101   9.072  31.269  0.00  0.00     0.047 A 
ATOM     25  C   UNK d   1      22.284   7.706  31.253  0.00  0.00     0.032 A 
ATOM     26  C   UNK d   1      21.435   6.854  31.951  0.00  0.00     0.026 A 
ATOM     27  C   UNK d   1      20.379   7.348  32.686  0.00  0.00     0.034 A 
ATOM     28 Cl   UNK d   1      19.306   6.277  33.570  0.00  0.00    -0.084 Cl
ATOM     29  C   UNK d   1      20.200   8.715  32.699  0.00  0.00     0.026 A 
ATOM     30  C   UNK d   1      21.044   9.561  32.005  0.00  0.00     0.032 A 
ENDBRANCH   1  24
TORSDOF 3
ENDMDL
