MODEL 1
REMARK VINA RESULT:    -7.701      0.000      0.000
REMARK INTER + INTRA:         -10.792
REMARK INTER:                 -10.177
REMARK INTRA:                  -0.616
REMARK UNBOUND:                -0.616
REMARK  6 active torsions:
REMARK  status: ('A' for Active; 'I' for Inactive)
REMARK    1  A    between atoms: C_4  and  C_8 
REMARK    2  A    between atoms: C_8  and  N_9 
REMARK    3  A    between atoms: N_16  and  C_18 
REMARK    4  A    between atoms: C_18  and  C_19 
REMARK    5  A    between atoms: C_21  and  O_25 
REMARK    6  A    between atoms: C_30  and  O_32 
ROOT
ATOM      1  N   UNK d   1      26.978   2.343  30.963  0.00  0.00    -0.280 N 
ATOM      2  C   UNK d   1      26.689   1.789  29.686  0.00  0.00     0.260 C 
ATOM      3  O   UNK d   1      27.031   0.589  29.433  0.00  0.00    -0.270 OA
ATOM      4  C   UNK d   1      26.005   2.531  28.621  0.00  0.00     0.319 C 
ATOM      5  N   UNK d   1      25.853   3.927  28.863  0.00  0.00     0.127 N 
ATOM      6  C   UNK d   1      25.679   4.323  30.222  0.00  0.00     0.292 A 
ATOM      7  C   UNK d   1      24.259   4.332  30.732  0.00  0.00     0.326 A 
ATOM      8  N   UNK d   1      24.299   5.756  30.806  0.00  0.00     0.098 N 
ATOM      9  C   UNK d   1      25.614   5.839  30.305  0.00  0.00     0.326 A 
ATOM     10  C   UNK d   1      26.662   3.716  31.157  0.00  0.00     0.270 C 
ATOM     11  O   UNK d   1      27.211   4.355  32.091  0.00  0.00    -0.270 OA
ATOM     12  C   UNK d   1      26.988   4.606  28.307  0.00  0.00     0.307 C 
ATOM     13  C   UNK d   1      27.855   3.583  27.628  0.00  0.00     0.149 C 
ATOM     14  C   UNK d   1      26.904   2.448  27.379  0.00  0.00     0.079 C 
ENDROOT
BRANCH   8  15
ATOM     15  C   UNK d   1      23.247   6.513  30.232  0.00  0.00     0.311 C 
BRANCH  15  16
ATOM     16  C   UNK d   1      22.339   7.177  31.173  0.00  0.00    -0.028 A 
ATOM     17  C   UNK d   1      21.259   6.497  31.681  0.00  0.00     0.045 A 
ATOM     18  C   UNK d   1      20.378   7.105  32.580  0.00  0.00     0.068 A 
ATOM     19  C   UNK d   1      20.602   8.409  32.958  0.00  0.00     0.037 A 
ATOM     20  C   UNK d   1      21.675   9.112  32.465  0.00  0.00     0.003 A 
ATOM     21  C   UNK d   1      22.534   8.476  31.571  0.00  0.00     0.009 A 
BRANCH  18  22
ATOM     22  O   UNK d   1      19.291   6.425  33.093  0.00  0.00    -0.356 OA
ATOM     23  C   UNK d   1      18.005   6.998  32.946  0.00  0.00     0.210 C 
ENDBRANCH  18  22
ENDBRANCH  15  16
ENDBRANCH   8  15
BRANCH   1  24
ATOM     24  C   UNK d   1      27.572   1.557  32.030  0.00  0.00     0.173 C 
BRANCH  24  25
ATOM     25  C   UNK d   1      26.586   1.396  33.155  0.00  0.00    -0.038 A 
ATOM     26  C   UNK d   1      27.000   1.423  34.467  0.00  0.00     0.032 A 
ATOM     27  C   UNK d   1      26.116   1.276  35.517  0.00  0.00     0.034 A 
ATOM     28 Cl   UNK d   1      26.678   1.317  37.173  0.00  0.00    -0.084 Cl
ATOM     29  C   UNK d   1      24.777   1.095  35.266  0.00  0.00     0.024 A 
ATOM     30  C   UNK d   1      24.384   1.071  33.947  0.00  0.00     0.002 A 
ATOM     31  C   UNK d   1      25.244   1.214  32.904  0.00  0.00     0.009 A 
ENDBRANCH  24  25
ENDBRANCH   1  24
BRANCH  13  32
ATOM     32  O   UNK d   1      28.438   4.057  26.460  0.00  0.00    -0.394 OA
ATOM     33  H   UNK d   1      28.463   5.042  26.523  0.00  0.00     0.210 HD
ENDBRANCH  13  32
TORSDOF 6
ENDMDL
