MODEL 1
REMARK VINA RESULT:    -8.975      0.000      0.000
REMARK INTER + INTRA:         -12.117
REMARK INTER:                 -11.598
REMARK INTRA:                  -0.518
REMARK UNBOUND:                -0.518
REMARK  5 active torsions:
REMARK  status: ('A' for Active; 'I' for Inactive)
REMARK    1  A    between atoms: C_5  and  C_8 
REMARK    2  A    between atoms: C_8  and  C_10 
REMARK    3  A    between atoms: C_10  and  N_11 
REMARK    4  A    between atoms: C_14  and  C_16 
REMARK    5  A    between atoms: C_19  and  O_22 
ROOT
ATOM      1  N   UNK d   1      23.211   7.904  31.481  0.00  0.00    -0.337 N 
ATOM      2  C   UNK d   1      21.945   7.526  31.522  0.00  0.00     0.086 A 
ATOM      3  N   UNK d   1      21.126   8.589  31.743  0.00  0.00    -0.335 N 
ATOM      4  C   UNK d   1      21.881   9.661  31.848  0.00  0.00     0.061 A 
ATOM      5  C   UNK d   1      23.211   9.221  31.678  0.00  0.00     0.123 A 
ATOM      6  C   UNK d   1      19.694   8.498  31.789  0.00  0.00     0.130 C 
ATOM      7  C   UNK d   1      19.244   7.864  33.104  0.00  0.00     0.020 C 
ATOM      8  C   UNK d   1      20.314   6.813  33.416  0.00  0.00     0.002 C 
ATOM      9  C   UNK d   1      20.327   5.817  32.290  0.00  0.00     0.007 C 
ATOM     10  C   UNK d   1      21.524   6.099  31.367  0.00  0.00     0.077 C 
ENDROOT
BRANCH   1  11
ATOM     11  C   UNK d   1      24.444   7.137  31.277  0.00  0.00     0.213 C 
BRANCH  11  12
ATOM     12  C   UNK d   1      24.637   6.954  29.823  0.00  0.00     0.177 C 
ATOM     13  O   UNK d   1      24.279   7.914  29.063  0.00  0.00    -0.291 OA
BRANCH  12  14
ATOM     14  C   UNK d   1      25.199   5.762  29.226  0.00  0.00     0.011 A 
ATOM     15  C   UNK d   1      25.179   4.569  29.959  0.00  0.00     0.017 A 
ATOM     16  C   UNK d   1      25.701   3.408  29.448  0.00  0.00     0.025 A 
ATOM     17  C   UNK d   1      26.268   3.361  28.199  0.00  0.00     0.034 A 
ATOM     18 Cl   UNK d   1      26.950   1.919  27.492  0.00  0.00    -0.084 Cl
ATOM     19  C   UNK d   1      26.283   4.546  27.482  0.00  0.00     0.025 A 
ATOM     20  C   UNK d   1      25.762   5.717  27.985  0.00  0.00     0.017 A 
ENDBRANCH  12  14
ENDBRANCH  11  12
ENDBRANCH   1  11
BRANCH   4  21
ATOM     21  C   UNK d   1      21.523  11.066  32.064  0.00  0.00    -0.008 A 
ATOM     22  C   UNK d   1      20.542  11.526  32.882  0.00  0.00     0.016 A 
ATOM     23  C   UNK d   1      20.205  12.874  32.990  0.00  0.00     0.037 A 
ATOM     24  C   UNK d   1      20.871  13.816  32.255  0.00  0.00     0.068 A 
ATOM     25  C   UNK d   1      21.871  13.383  31.419  0.00  0.00     0.037 A 
ATOM     26  C   UNK d   1      22.191  12.046  31.323  0.00  0.00     0.016 A 
BRANCH  24  27
ATOM     27  O   UNK d   1      20.551  15.182  32.344  0.00  0.00    -0.356 OA
ATOM     28  C   UNK d   1      21.320  16.181  31.731  0.00  0.00     0.210 C 
ENDBRANCH  24  27
ENDBRANCH   4  21
TORSDOF 5
ENDMDL
