/Users/jonathanwahrer/Desktop/Msc/3_Semester/Drug_Design_Praktikum/waehrer_HTS_screening/HTS_experiment/out/docking_results/vina_output/3elj/2377_docked.pdbqt
 OpenBabel03192219033D

 33 36  0  0  0  0  0  0  0  0999 V2000
   26.8390   10.9880   28.8010 N   0  0  0  0  0  0  0  0  0  0  0  0
   28.1320   10.7480   29.4350 C   0  0  0  0  0  2  0  0  0  0  0  0
   28.8960    9.6310   28.7600 C   0  0  0  0  0  2  0  0  0  0  0  0
   28.3240    9.4300   27.4510 N   0  0  0  0  0  0  0  0  0  0  0  0
   28.0320   10.6360   26.6970 C   0  0  0  0  0  2  0  0  0  0  0  0
   26.8220   11.2900   27.3630 C   0  0  0  0  0  2  0  0  0  0  0  0
   28.0460    8.1660   26.8930 C   0  0  0  0  0  0  0  0  0  0  0  0
   27.5490    8.1030   25.7470 O   0  0  0  0  0  0  0  0  0  0  0  0
   25.6540   10.8910   29.5540 C   0  0  0  0  0  0  0  0  0  0  0  0
   24.5950   11.7650   29.4320 C   0  0  0  0  0  0  0  0  0  0  0  0
   24.7600   13.1040   28.3240 Cl  0  0  0  0  0  0  0  0  0  0  0  0
   23.4310   11.5900   30.1860 C   0  0  0  0  0  0  0  0  0  0  0  0
   23.2770   10.5850   31.0560 N   0  0  0  0  0  0  0  0  0  0  0  0
   22.5080   12.4270   30.0200 O   0  0  0  0  0  0  0  0  0  0  0  0
   24.2920    9.7550   31.1670 N   0  0  0  0  0  0  0  0  0  0  0  0
   25.4430    9.8570   30.4760 C   0  0  0  0  0  3  0  0  0  0  0  0
   22.0940   10.4010   31.8280 C   0  0  0  0  0  0  0  0  0  0  0  0
   21.4140   11.4660   32.3990 C   0  0  0  0  0  3  0  0  0  0  0  0
   20.2670   11.3070   33.1490 C   0  0  0  0  0  3  0  0  0  0  0  0
   19.7830   10.0280   33.3340 C   0  0  0  0  0  3  0  0  0  0  0  0
   20.4360    8.9430   32.7800 C   0  0  0  0  0  3  0  0  0  0  0  0
   21.5980    9.1380   32.0230 C   0  0  0  0  0  3  0  0  0  0  0  0
   28.3140    6.8870   27.5950 C   0  0  0  0  0  2  0  0  0  0  0  0
   27.0220    6.1850   27.9430 C   0  0  0  0  0  2  0  0  0  0  0  0
   26.2340    6.9170   28.9870 C   0  0  0  0  0  2  0  0  0  0  0  0
   25.3030    6.0810   29.7140 N   0  0  0  0  0  0  0  0  0  0  0  0
   23.9010    6.2600   29.7860 C   0  0  0  0  0  0  0  0  0  0  0  0
   23.2230    7.1860   29.2260 O   0  0  0  0  0  0  0  0  0  0  0  0
   23.2960    5.2610   30.5780 N   0  0  0  0  0  0  0  0  0  0  0  0
   24.3340    4.3820   31.0690 C   0  0  0  0  0  2  0  0  0  0  0  0
   21.8810    5.1240   30.8600 C   0  0  0  0  0  1  0  0  0  0  0  0
   25.5890    4.9170   30.4970 C   0  0  0  0  0  0  0  0  0  0  0  0
   26.7300    4.4360   30.6650 O   0  0  0  0  0  0  0  0  0  0  0  0
  1  2  1  0  0  0  0
  1  9  1  0  0  0  0
  3  2  1  0  0  0  0
  4  3  1  0  0  0  0
  5  6  1  0  0  0  0
  5  4  1  0  0  0  0
  6  1  1  0  0  0  0
  7  4  1  0  0  0  0
  7 23  1  0  0  0  0
  8  7  2  0  0  0  0
  9 16  1  0  0  0  0
 10  9  2  0  0  0  0
 10 12  1  0  0  0  0
 11 10  1  0  0  0  0
 12 13  1  0  0  0  0
 13 15  1  0  0  0  0
 13 17  1  0  0  0  0
 14 12  2  0  0  0  0
 16 15  2  0  0  0  0
 17 22  2  0  0  0  0
 17 18  1  0  0  0  0
 18 19  2  0  0  0  0
 19 20  1  0  0  0  0
 21 20  2  0  0  0  0
 22 21  1  0  0  0  0
 23 24  1  0  0  0  0
 24 25  1  0  0  0  0
 25 26  1  0  0  0  0
 26 27  1  0  0  0  0
 26 32  1  0  0  0  0
 27 29  1  0  0  0  0
 28 27  2  0  0  0  0
 29 31  1  0  0  0  0
 29 30  1  0  0  0  0
 32 33  2  0  0  0  0
 32 30  1  0  0  0  0
M  END
>  <Pose>
1

>  <Score>
-8.214

$$$$
