MODEL 1
REMARK VINA RESULT:    -7.715      0.000      0.000
REMARK INTER + INTRA:          -9.283
REMARK INTER:                  -9.068
REMARK INTRA:                  -0.215
REMARK UNBOUND:                -0.215
REMARK  3 active torsions:
REMARK  status: ('A' for Active; 'I' for Inactive)
REMARK    1  A    between atoms: C_3  and  N_15 
REMARK    2  A    between atoms: N_6  and  C_9 
REMARK       I    between atoms: N_18  and  C_21 
REMARK    3  A    between atoms: C_21  and  C_23 
ROOT
ATOM      1 Cl   UNK d   1      25.050   3.478  30.944  0.00  0.00    -0.076 Cl
ATOM      2  C   UNK d   1      24.274   5.014  30.574  0.00  0.00     0.131 A 
ATOM      3  C   UNK d   1      24.823   5.783  29.575  0.00  0.00     0.077 A 
ATOM      4  C   UNK d   1      24.189   6.986  29.309  0.00  0.00     0.170 A 
ATOM      5  N   UNK d   1      23.101   7.345  30.012  0.00  0.00    -0.174 NA
ATOM      6  N   UNK d   1      22.563   6.615  30.975  0.00  0.00    -0.197 N 
ATOM      7  C   UNK d   1      23.154   5.441  31.259  0.00  0.00     0.292 A 
ATOM      8  O   UNK d   1      22.695   4.689  32.166  0.00  0.00    -0.264 OA
ENDROOT
BRANCH   3   9
ATOM      9  N   UNK d   1      25.969   5.330  28.888  0.00  0.00    -0.375 N 
ATOM     10  C   UNK d   1      27.314   5.567  29.400  0.00  0.00     0.143 C 
ATOM     11  C   UNK d   1      27.950   6.550  28.398  0.00  0.00     0.145 C 
ATOM     12  N   UNK d   1      27.834   6.046  27.065  0.00  0.00    -0.347 N 
ATOM     13  C   UNK d   1      27.250   4.698  26.906  0.00  0.00     0.145 C 
ATOM     14  C   UNK d   1      28.247   6.766  25.913  0.00  0.00     0.248 C 
ATOM     15  C   UNK d   1      25.925   4.600  27.634  0.00  0.00     0.143 C 
ATOM     16  O   UNK d   1      28.124   6.278  24.750  0.00  0.00    -0.270 OA
BRANCH  14  17
ATOM     17  C   UNK d   1      28.841   8.113  25.984  0.00  0.00     0.213 C 
ATOM     18  O   UNK d   1      30.083   8.132  25.427  0.00  0.00    -0.376 OA
ATOM     19  C   UNK d   1      30.292   9.386  24.868  0.00  0.00     0.168 C 
ATOM     20  C   UNK d   1      28.947   9.639  24.202  0.00  0.00     0.029 C 
ATOM     21  C   UNK d   1      27.998   9.149  25.275  0.00  0.00     0.043 C 
ENDBRANCH  14  17
ENDBRANCH   3   9
BRANCH   6  22
ATOM     22  C   UNK d   1      21.398   7.054  31.690  0.00  0.00     0.062 A 
ATOM     23  C   UNK d   1      21.328   8.341  32.181  0.00  0.00     0.032 A 
ATOM     24  C   UNK d   1      20.200   8.782  32.879  0.00  0.00     0.002 A 
ATOM     25  C   UNK d   1      19.140   7.936  33.087  0.00  0.00     0.000 A 
ATOM     26  C   UNK d   1      19.196   6.653  32.605  0.00  0.00     0.002 A 
ATOM     27  C   UNK d   1      20.312   6.236  31.920  0.00  0.00     0.032 A 
ENDBRANCH   6  22
TORSDOF 3
ENDMDL
