/Users/jonathanwahrer/Desktop/Msc/3_Semester/Drug_Design_Praktikum/waehrer_HTS_screening/HTS_experiment/out/docking_results/vina_output/3elj/2381_docked.pdbqt
 OpenBabel03192219033D

 30 33  0  0  0  0  0  0  0  0999 V2000
   24.5250    5.3210   30.1090 N   0  0  0  0  0  0  0  0  0  0  0  0
   25.1890    4.2730   30.8310 C   0  0  0  0  0  2  0  0  0  0  0  0
   26.6920    4.3610   30.6810 C   0  0  0  0  0  2  0  0  0  0  0  0
   27.0750    4.8530   29.3810 N   0  0  0  0  0  0  0  0  0  0  0  0
   26.0790    4.9060   28.3390 C   0  0  0  0  0  2  0  0  0  0  0  0
   24.9650    5.8020   28.8140 C   0  0  0  0  0  2  0  0  0  0  0  0
   28.4080    5.2750   29.1430 C   0  0  0  0  0  0  0  0  0  0  0  0
   29.2910    5.2310   30.0580 O   0  0  0  0  0  0  0  0  0  0  0  0
   23.3700    5.9250   30.6950 C   0  0  0  0  0  0  0  0  0  0  0  0
   23.3530    7.2410   31.1090 C   0  0  0  0  0  0  0  0  0  0  0  0
   24.7930    8.2130   30.9070 Cl  0  0  0  0  0  0  0  0  0  0  0  0
   22.1940    7.7540   31.6700 C   0  0  0  0  0  0  0  0  0  0  0  0
   21.0710    7.0320   31.8360 N   0  0  0  0  0  0  0  0  0  0  0  0
   22.1710    8.9440   32.0480 O   0  0  0  0  0  0  0  0  0  0  0  0
   21.1050    5.7720   31.4340 N   0  0  0  0  0  0  0  0  0  0  0  0
   22.1990    5.2130   30.8820 C   0  0  0  0  0  3  0  0  0  0  0  0
   19.9050    7.6160   32.4230 C   0  0  0  0  0  0  0  0  0  0  0  0
   18.6860    6.9730   32.3640 C   0  0  0  0  0  3  0  0  0  0  0  0
   17.5550    7.5300   32.9270 C   0  0  0  0  0  3  0  0  0  0  0  0
   17.5890    8.7500   33.5720 C   0  0  0  0  0  3  0  0  0  0  0  0
   18.8050    9.3970   33.6350 C   0  0  0  0  0  3  0  0  0  0  0  0
   19.9290    8.8370   33.0710 C   0  0  0  0  0  3  0  0  0  0  0  0
   28.8550    5.7890   27.8220 C   0  0  0  0  0  2  0  0  0  0  0  0
   29.3710    7.0900   27.9130 O   0  0  0  0  0  0  0  0  0  0  0  0
   28.5270    8.1840   27.8910 C   0  0  0  0  0  0  0  0  0  0  0  0
   27.9750    8.8190   26.8520 N   0  0  0  0  0  0  0  0  0  0  0  0
   27.2430    9.8020   27.2640 O   0  0  0  0  0  0  0  0  0  0  0  0
   27.2530    9.8910   28.5780 C   0  0  0  0  0  0  0  0  0  0  0  0
   28.0690    8.8650   29.0100 C   0  0  0  0  0  3  0  0  0  0  0  0
   26.5090   10.9150   29.3340 C   0  0  0  0  0  1  0  0  0  0  0  0
  1  9  1  0  0  0  0
  1  2  1  0  0  0  0
  3  2  1  0  0  0  0
  4  3  1  0  0  0  0
  5  6  1  0  0  0  0
  5  4  1  0  0  0  0
  6  1  1  0  0  0  0
  7  4  1  0  0  0  0
  7  8  2  0  0  0  0
  9 16  1  0  0  0  0
  9 10  2  0  0  0  0
 10 12  1  0  0  0  0
 11 10  1  0  0  0  0
 12 13  1  0  0  0  0
 12 14  2  0  0  0  0
 13 17  1  0  0  0  0
 15 13  1  0  0  0  0
 16 15  2  0  0  0  0
 17 22  1  0  0  0  0
 18 17  2  0  0  0  0
 18 19  1  0  0  0  0
 19 20  2  0  0  0  0
 20 21  1  0  0  0  0
 22 21  2  0  0  0  0
 23 24  1  0  0  0  0
 23  7  1  0  0  0  0
 25 24  1  0  0  0  0
 25 29  1  0  0  0  0
 26 27  1  0  0  0  0
 26 25  2  0  0  0  0
 27 28  1  0  0  0  0
 28 29  2  0  0  0  0
 28 30  1  0  0  0  0
M  END
>  <Pose>
1

>  <Score>
-8.568

$$$$
