MODEL 1
REMARK VINA RESULT:    -8.284      0.000      0.000
REMARK INTER + INTRA:         -10.655
REMARK INTER:                 -10.221
REMARK INTRA:                  -0.434
REMARK UNBOUND:                -0.434
REMARK  4 active torsions:
REMARK  status: ('A' for Active; 'I' for Inactive)
REMARK       I    between atoms: N_11  and  C_13 
REMARK    1  A    between atoms: C_13  and  C_15 
REMARK    2  A    between atoms: C_15  and  C_16 
REMARK    3  A    between atoms: C_16  and  C_17 
REMARK    4  A    between atoms: C_17  and  N_18 
ROOT
ATOM      1 Cl   UNK d   1      23.693   1.833  33.886  0.00  0.00    -0.084 Cl
ATOM      2  C   UNK d   1      24.567   2.799  32.702  0.00  0.00     0.034 A 
ATOM      3  C   UNK d   1      23.819   3.689  31.933  0.00  0.00     0.035 A 
ATOM      4  C   UNK d   1      24.488   4.452  31.003  0.00  0.00    -0.005 A 
ATOM      5  C   UNK d   1      25.862   4.326  30.849  0.00  0.00     0.078 A 
ATOM      6  C   UNK d   1      26.600   3.436  31.620  0.00  0.00     0.039 A 
ATOM      7  C   UNK d   1      25.927   2.669  32.554  0.00  0.00     0.026 A 
ATOM      8  O   UNK d   1      26.605   5.057  29.937  0.00  0.00    -0.338 OA
ATOM      9  C   UNK d   1      26.227   5.604  28.704  0.00  0.00     0.088 C 
ATOM     10  C   UNK d   1      25.131   6.606  28.741  0.00  0.00     0.164 C 
ATOM     11  N   UNK d   1      24.243   6.546  29.856  0.00  0.00    -0.345 N 
ATOM     12  C   UNK d   1      23.530   5.336  30.287  0.00  0.00     0.167 C 
ATOM     13  C   UNK d   1      24.010   7.727  30.613  0.00  0.00     0.220 C 
ATOM     14  O   UNK d   1      24.605   8.764  30.241  0.00  0.00    -0.273 OA
ATOM     15  C   UNK d   1      27.472   6.258  28.075  0.00  0.00     0.066 C 
ATOM     16  C   UNK d   1      28.567   5.228  28.131  0.00  0.00     0.170 C 
ATOM     17  O   UNK d   1      28.120   3.998  28.579  0.00  0.00    -0.391 OA
ATOM     18  C   UNK d   1      27.081   3.496  27.815  0.00  0.00     0.170 C 
ATOM     19  C   UNK d   1      25.910   4.452  27.737  0.00  0.00     0.066 C 
ENDROOT
BRANCH  13  20
ATOM     20  C   UNK d   1      23.123   7.755  31.766  0.00  0.00     0.104 C 
BRANCH  20  21
ATOM     21  C   UNK d   1      21.871   8.526  31.666  0.00  0.00     0.029 C 
BRANCH  21  22
ATOM     22  C   UNK d   1      21.094   8.823  32.880  0.00  0.00     0.137 C 
BRANCH  22  23
ATOM     23  N   UNK d   1      19.752   8.391  32.998  0.00  0.00    -0.269 N 
ATOM     24  C   UNK d   1      19.295   7.062  32.823  0.00  0.00     0.325 C 
ATOM     25  O   UNK d   1      19.968   6.026  32.545  0.00  0.00    -0.247 OA
ATOM     26  N   UNK d   1      17.892   7.075  33.021  0.00  0.00    -0.334 N 
ATOM     27  C   UNK d   1      17.523   8.324  33.682  0.00  0.00     0.227 C 
ATOM     28  H   UNK d   1      17.205   6.341  32.756  0.00  0.00     0.164 HD
ATOM     29  C   UNK d   1      18.640   9.213  33.298  0.00  0.00     0.245 C 
ATOM     30  O   UNK d   1      18.583  10.494  33.255  0.00  0.00    -0.271 OA
ENDBRANCH  22  23
ENDBRANCH  21  22
ENDBRANCH  20  21
ENDBRANCH  13  20
TORSDOF 4
ENDMDL
