/Users/jonathanwahrer/Desktop/Msc/3_Semester/Drug_Design_Praktikum/waehrer_HTS_screening/HTS_experiment/out/docking_results/vina_output/3elj/2386_docked.pdbqt
 OpenBabel03192219033D

 30 33  0  0  0  0  0  0  0  0999 V2000
   23.6930    1.8330   33.8860 Cl  0  0  0  0  0  0  0  0  0  0  0  0
   24.5670    2.7990   32.7020 C   0  0  0  0  0  0  0  0  0  0  0  0
   23.8190    3.6890   31.9330 C   0  0  0  0  0  3  0  0  0  0  0  0
   24.4880    4.4520   31.0030 C   0  0  0  0  0  0  0  0  0  0  0  0
   25.8620    4.3260   30.8490 C   0  0  0  0  0  0  0  0  0  0  0  0
   26.6000    3.4360   31.6200 C   0  0  0  0  0  3  0  0  0  0  0  0
   25.9270    2.6690   32.5540 C   0  0  0  0  0  3  0  0  0  0  0  0
   26.6050    5.0570   29.9370 O   0  0  0  0  0  0  0  0  0  0  0  0
   26.2270    5.6040   28.7040 C   0  0  0  0  0  0  0  0  0  0  0  0
   25.1310    6.6060   28.7410 C   0  0  0  0  0  2  0  0  0  0  0  0
   24.2430    6.5460   29.8560 N   0  0  0  0  0  0  0  0  0  0  0  0
   23.5300    5.3360   30.2870 C   0  0  0  0  0  2  0  0  0  0  0  0
   24.0100    7.7270   30.6130 C   0  0  0  0  0  0  0  0  0  0  0  0
   24.6050    8.7640   30.2410 O   0  0  0  0  0  0  0  0  0  0  0  0
   27.4720    6.2580   28.0750 C   0  0  0  0  0  2  0  0  0  0  0  0
   28.5670    5.2280   28.1310 C   0  0  0  0  0  2  0  0  0  0  0  0
   28.1200    3.9980   28.5790 O   0  0  0  0  0  0  0  0  0  0  0  0
   27.0810    3.4960   27.8150 C   0  0  0  0  0  2  0  0  0  0  0  0
   25.9100    4.4520   27.7370 C   0  0  0  0  0  2  0  0  0  0  0  0
   23.1230    7.7550   31.7660 C   0  0  0  0  0  3  0  0  0  0  0  0
   21.8710    8.5260   31.6660 C   0  0  0  0  0  3  0  0  0  0  0  0
   21.0940    8.8230   32.8800 C   0  0  0  0  0  2  0  0  0  0  0  0
   19.7520    8.3910   32.9980 N   0  0  0  0  0  0  0  0  0  0  0  0
   19.2950    7.0620   32.8230 C   0  0  0  0  0  0  0  0  0  0  0  0
   19.9680    6.0260   32.5450 O   0  0  0  0  0  0  0  0  0  0  0  0
   17.8920    7.0750   33.0210 N   0  0  0  0  0  0  0  0  0  0  0  0
   17.5230    8.3240   33.6820 C   0  0  0  0  0  2  0  0  0  0  0  0
   17.2050    6.3410   32.7560 H   0  0  0  0  0  0  0  0  0  0  0  0
   18.6400    9.2130   33.2980 C   0  0  0  0  0  0  0  0  0  0  0  0
   18.5830   10.4940   33.2550 O   0  0  0  0  0  0  0  0  0  0  0  0
  2  1  1  0  0  0  0
  3  2  2  0  0  0  0
  4  3  1  0  0  0  0
  5  4  2  0  0  0  0
  5  6  1  0  0  0  0
  6  7  2  0  0  0  0
  7  2  1  0  0  0  0
  8  5  1  0  0  0  0
  9 10  1  0  0  0  0
  9  8  1  0  0  0  0
 10 11  1  0  0  0  0
 11 12  1  0  0  0  0
 11 13  1  0  0  0  0
 12  4  1  0  0  0  0
 13 20  1  0  0  0  0
 14 13  2  0  0  0  0
 15 16  1  0  0  0  0
 15  9  1  0  0  0  0
 16 17  1  0  0  0  0
 18 17  1  0  0  0  0
 19 18  1  0  0  0  0
 19  9  1  0  0  0  0
 21 20  2  0  0  0  0
 21 22  1  0  0  0  0
 22 23  1  0  0  0  0
 23 29  1  0  0  0  0
 24 23  1  0  0  0  0
 24 26  1  0  0  0  0
 25 24  2  0  0  0  0
 26 27  1  0  0  0  0
 28 26  1  0  0  0  0
 29 27  1  0  0  0  0
 30 29  2  0  0  0  0
M  END
>  <Pose>
1

>  <Score>
-8.284

$$$$
