MODEL 1
REMARK VINA RESULT:    -8.294      0.000      0.000
REMARK INTER + INTRA:          -9.906
REMARK INTER:                  -9.264
REMARK INTRA:                  -0.643
REMARK UNBOUND:                -0.643
REMARK  2 active torsions:
REMARK  status: ('A' for Active; 'I' for Inactive)
REMARK    1  A    between atoms: C_7  and  C_11 
REMARK    2  A    between atoms: C_11  and  N_12 
ROOT
ATOM      1  N   UNK d   1      23.439   4.415  31.169  0.00  0.00    -0.328 N 
ATOM      2  C   UNK d   1      24.696   4.622  30.748  0.00  0.00     0.151 A 
ATOM      3  C   UNK d   1      25.611   4.020  31.604  0.00  0.00     0.167 A 
ATOM      4  N   UNK d   1      24.859   3.436  32.568  0.00  0.00    -0.223 NA
ATOM      5  C   UNK d   1      23.569   3.669  32.313  0.00  0.00     0.213 A 
ATOM      6  N   UNK d   1      26.947   4.072  31.424  0.00  0.00    -0.286 N 
ATOM      7  C   UNK d   1      27.376   4.754  30.345  0.00  0.00     0.332 A 
ATOM      8  O   UNK d   1      28.623   4.813  30.160  0.00  0.00    -0.246 OA
ATOM      9  N   UNK d   1      26.536   5.353  29.489  0.00  0.00    -0.269 N 
ATOM     10  C   UNK d   1      25.199   5.302  29.667  0.00  0.00     0.282 A 
ATOM     11  O   UNK d   1      24.403   5.855  28.883  0.00  0.00    -0.265 OA
ATOM     12  C   UNK d   1      27.003   6.088  28.327  0.00  0.00     0.164 C 
ATOM     13  C   UNK d   1      27.849   3.421  32.354  0.00  0.00     0.163 C 
ENDROOT
BRANCH   1  14
ATOM     14  C   UNK d   1      22.176   4.829  30.590  0.00  0.00     0.189 C 
BRANCH  14  15
ATOM     15  C   UNK d   1      21.602   6.033  31.278  0.00  0.00     0.060 A 
ATOM     16  N   UNK d   1      22.168   7.234  31.063  0.00  0.00    -0.233 NA
ATOM     17  C   UNK d   1      21.678   8.360  31.658  0.00  0.00     0.137 A 
ATOM     18  N   UNK d   1      20.616   8.300  32.476  0.00  0.00    -0.272 N 
ATOM     19  C   UNK d   1      22.298   9.573  31.402  0.00  0.00     0.052 A 
ATOM     20  C   UNK d   1      20.131   9.413  33.065  0.00  0.00     0.121 A 
ATOM     21  C   UNK d   1      19.998   7.111  32.735  0.00  0.00     0.255 A 
ATOM     22  C   UNK d   1      20.738  10.615  32.818  0.00  0.00     0.027 A 
ATOM     23 Br   UNK d   1      20.030  12.169  33.664  0.00  0.00    -0.050 Br
ATOM     24  C   UNK d   1      21.829  10.723  31.987  0.00  0.00     0.024 A 
ATOM     25  C   UNK d   1      20.517   5.994  32.118  0.00  0.00     0.103 A 
ATOM     26  O   UNK d   1      19.019   7.100  33.497  0.00  0.00    -0.268 OA
ENDBRANCH  14  15
ENDBRANCH   1  14
TORSDOF 2
ENDMDL
