/Users/jonathanwahrer/Desktop/Msc/3_Semester/Drug_Design_Praktikum/waehrer_HTS_screening/HTS_experiment/out/docking_results/vina_output/3elj/2403_docked.pdbqt
 OpenBabel03192219043D

 26 29  0  0  0  0  0  0  0  0999 V2000
   23.4390    4.4150   31.1690 N   0  0  0  0  0  0  0  0  0  0  0  0
   24.6960    4.6220   30.7480 C   0  0  0  0  0  0  0  0  0  0  0  0
   25.6110    4.0200   31.6040 C   0  0  0  0  0  0  0  0  0  0  0  0
   24.8590    3.4360   32.5680 N   0  0  0  0  0  0  0  0  0  0  0  0
   23.5690    3.6690   32.3130 C   0  0  0  0  0  3  0  0  0  0  0  0
   26.9470    4.0720   31.4240 N   0  0  0  0  0  0  0  0  0  0  0  0
   27.3760    4.7540   30.3450 C   0  0  0  0  0  0  0  0  0  0  0  0
   28.6230    4.8130   30.1600 O   0  0  0  0  0  0  0  0  0  0  0  0
   26.5360    5.3530   29.4890 N   0  0  0  0  0  0  0  0  0  0  0  0
   25.1990    5.3020   29.6670 C   0  0  0  0  0  0  0  0  0  0  0  0
   24.4030    5.8550   28.8830 O   0  0  0  0  0  0  0  0  0  0  0  0
   27.0030    6.0880   28.3270 C   0  0  0  0  0  1  0  0  0  0  0  0
   27.8490    3.4210   32.3540 C   0  0  0  0  0  1  0  0  0  0  0  0
   22.1760    4.8290   30.5900 C   0  0  0  0  0  2  0  0  0  0  0  0
   21.6020    6.0330   31.2780 C   0  0  0  0  0  0  0  0  0  0  0  0
   22.1680    7.2340   31.0630 N   0  0  0  0  0  0  0  0  0  0  0  0
   21.6780    8.3600   31.6580 C   0  0  0  0  0  0  0  0  0  0  0  0
   20.6160    8.3000   32.4760 N   0  0  0  0  0  0  0  0  0  0  0  0
   22.2980    9.5730   31.4020 C   0  0  0  0  0  3  0  0  0  0  0  0
   20.1310    9.4130   33.0650 C   0  0  0  0  0  3  0  0  0  0  0  0
   19.9980    7.1110   32.7350 C   0  0  0  0  0  0  0  0  0  0  0  0
   20.7380   10.6150   32.8180 C   0  0  0  0  0  0  0  0  0  0  0  0
   20.0300   12.1690   33.6640 Br  0  0  0  0  0  0  0  0  0  0  0  0
   21.8290   10.7230   31.9870 C   0  0  0  0  0  3  0  0  0  0  0  0
   20.5170    5.9940   32.1180 C   0  0  0  0  0  3  0  0  0  0  0  0
   19.0190    7.1000   33.4970 O   0  0  0  0  0  0  0  0  0  0  0  0
  1  5  1  0  0  0  0
  2  1  1  0  0  0  0
  2  3  2  0  0  0  0
  3  4  1  0  0  0  0
  5  4  2  0  0  0  0
  6  3  1  0  0  0  0
  6 13  1  0  0  0  0
  7  6  1  0  0  0  0
  8  7  2  0  0  0  0
  9 10  1  0  0  0  0
  9  7  1  0  0  0  0
 10  2  1  0  0  0  0
 11 10  2  0  0  0  0
 12  9  1  0  0  0  0
 14  1  1  0  0  0  0
 14 15  1  0  0  0  0
 15 25  2  0  0  0  0
 16 15  1  0  0  0  0
 16 17  2  0  0  0  0
 17 18  1  0  0  0  0
 18 21  1  0  0  0  0
 18 20  1  0  0  0  0
 19 17  1  0  0  0  0
 19 24  2  0  0  0  0
 21 26  2  0  0  0  0
 22 20  2  0  0  0  0
 22 23  1  0  0  0  0
 24 22  1  0  0  0  0
 25 21  1  0  0  0  0
M  END
>  <Pose>
1

>  <Score>
-8.294

$$$$
