MODEL 1
REMARK VINA RESULT:    -8.323      0.000      0.000
REMARK INTER + INTRA:         -11.831
REMARK INTER:                 -10.755
REMARK INTRA:                  -1.076
REMARK UNBOUND:                -1.076
REMARK  5 active torsions:
REMARK  status: ('A' for Active; 'I' for Inactive)
REMARK    1  A    between atoms: C_7  and  N_11 
REMARK    2  A    between atoms: C_13  and  C_17 
REMARK       I    between atoms: C_17  and  N_19 
REMARK    3  A    between atoms: N_19  and  C_20 
REMARK    4  A    between atoms: C_20  and  C_21 
REMARK    5  A    between atoms: C_21  and  N_22 
ROOT
ATOM      1  N   UNK d   1      21.953   6.132  31.187  0.00  0.00    -0.299 N 
ATOM      2  C   UNK d   1      22.256   6.413  29.784  0.00  0.00     0.148 C 
ATOM      3  C   UNK d   1      23.767   6.472  29.769  0.00  0.00     0.105 C 
ATOM      4  C   UNK d   1      24.144   5.291  30.656  0.00  0.00     0.119 C 
ATOM      5  C   UNK d   1      22.962   5.199  31.585  0.00  0.00     0.226 C 
ATOM      6  O   UNK d   1      22.866   4.416  32.576  0.00  0.00    -0.273 OA
ENDROOT
BRANCH   3   7
ATOM      7  C   UNK d   1      24.277   7.736  30.352  0.00  0.00     0.223 C 
ATOM      8  O   UNK d   1      24.859   7.684  31.464  0.00  0.00    -0.273 OA
ATOM      9  N   UNK d   1      24.132   8.985  29.706  0.00  0.00    -0.359 N 
ATOM     10  H   UNK d   1      23.637   8.990  28.778  0.00  0.00     0.162 HD
BRANCH   9  11
ATOM     11  C   UNK d   1      24.625  10.217  30.266  0.00  0.00     0.152 C 
BRANCH  11  12
ATOM     12  C   UNK d   1      24.373  11.351  29.295  0.00  0.00     0.292 C 
BRANCH  12  13
ATOM     13  N   UNK d   1      24.444  12.650  29.917  0.00  0.00     0.094 N 
ATOM     14  C   UNK d   1      23.365  13.459  29.362  0.00  0.00     0.298 C 
ATOM     15  C   UNK d   1      22.063  13.191  30.112  0.00  0.00     0.198 C 
ATOM     16  O   UNK d   1      22.096  13.644  31.410  0.00  0.00    -0.388 OA
ATOM     17  C   UNK d   1      23.402  13.746  31.827  0.00  0.00     0.198 C 
ATOM     18  C   UNK d   1      24.250  12.586  31.348  0.00  0.00     0.298 C 
ENDBRANCH  12  13
ENDBRANCH  11  12
ENDBRANCH   9  11
ENDBRANCH   3   7
BRANCH   1  19
ATOM     19  C   UNK d   1      20.893   6.670  31.960  0.00  0.00     0.165 A 
ATOM     20  N   UNK d   1      19.838   6.068  32.524  0.00  0.00    -0.155 NA
ATOM     21  N   UNK d   1      19.085   6.953  33.159  0.00  0.00    -0.275 N 
ATOM     22  C   UNK d   1      19.633   8.194  33.029  0.00  0.00     0.065 A 
ATOM     23  H   UNK d   1      18.194   6.828  33.702  0.00  0.00     0.189 HD
ATOM     24  C   UNK d   1      19.305   9.446  33.457  0.00  0.00     0.051 A 
ATOM     25  C   UNK d   1      20.769   8.017  32.276  0.00  0.00     0.040 A 
ATOM     26  C   UNK d   1      20.084  10.540  33.154  0.00  0.00     0.013 A 
ATOM     27 Br   UNK d   1      19.604  12.278  33.764  0.00  0.00    -0.051 Br
ATOM     28  C   UNK d   1      21.239  10.367  32.390  0.00  0.00     0.020 A 
ATOM     29  C   UNK d   1      21.573   9.104  31.956  0.00  0.00     0.019 A 
ENDBRANCH   1  19
TORSDOF 5
ENDMDL
