MODEL 1
REMARK VINA RESULT:    -8.431      0.000      0.000
REMARK INTER + INTRA:          -9.599
REMARK INTER:                  -9.417
REMARK INTRA:                  -0.182
REMARK UNBOUND:                -0.182
REMARK  2 active torsions:
REMARK  status: ('A' for Active; 'I' for Inactive)
REMARK    1  A    between atoms: C_4  and  C_8 
REMARK       I    between atoms: C_8  and  N_10 
REMARK    2  A    between atoms: N_13  and  C_16 
ROOT
ATOM      1  C   UNK d   1      23.793  11.680  30.119  0.00  0.00     0.204 C 
ATOM      2  O   UNK d   1      23.722  11.680  28.800  0.00  0.00    -0.170 OA
ATOM      3  N   UNK d   1      24.488  10.637  30.710  0.00  0.00    -0.355 N 
ATOM      4  C   UNK d   1      25.053   9.591  29.823  0.00  0.00     0.145 C 
ATOM      5  C   UNK d   1      24.390   8.302  30.229  0.00  0.00     0.144 C 
ATOM      6  N   UNK d   1      23.561   8.395  31.389  0.00  0.00    -0.362 N 
ATOM      7  C   UNK d   1      23.808   9.302  32.501  0.00  0.00     0.144 C 
ATOM      8  C   UNK d   1      24.769  10.402  32.078  0.00  0.00     0.145 C 
ENDROOT
BRANCH   1   9
ATOM      9  C   UNK d   1      23.108  12.805  30.702  0.00  0.00     0.089 A 
ATOM     10  N   UNK d   1      23.550  13.793  31.480  0.00  0.00    -0.342 N 
ATOM     11  C   UNK d   1      22.559  14.672  31.795  0.00  0.00     0.126 A 
ATOM     12  H   UNK d   1      24.502  13.961  31.864  0.00  0.00     0.167 HD
ATOM     13 Cl   UNK d   1      22.659  16.115  32.781  0.00  0.00    -0.063 Cl
ATOM     14  C   UNK d   1      21.404  14.246  31.198  0.00  0.00     0.074 A 
ATOM     15  C   UNK d   1      21.749  13.096  30.527  0.00  0.00     0.061 A 
ATOM     16 Cl   UNK d   1      19.835  15.017  31.284  0.00  0.00    -0.081 Cl
ENDBRANCH   1   9
BRANCH   6  17
ATOM     17  C   UNK d   1      22.410   7.569  31.504  0.00  0.00     0.142 A 
ATOM     18  N   UNK d   1      22.444   6.274  31.137  0.00  0.00    -0.224 NA
ATOM     19  C   UNK d   1      21.357   5.473  31.237  0.00  0.00     0.237 A 
ATOM     20  N   UNK d   1      20.198   5.957  31.714  0.00  0.00    -0.222 NA
ATOM     21  C   UNK d   1      20.082   7.237  32.101  0.00  0.00     0.162 A 
ATOM     22  N   UNK d   1      19.058   7.953  32.603  0.00  0.00    -0.256 N 
ATOM     23  C   UNK d   1      21.215   8.051  31.991  0.00  0.00     0.076 A 
ATOM     24  N   UNK d   1      19.505   9.176  32.809  0.00  0.00    -0.182 NA
ATOM     25  C   UNK d   1      17.696   7.497  32.880  0.00  0.00     0.182 C 
ATOM     26  C   UNK d   1      20.807   9.276  32.451  0.00  0.00     0.158 A 
ENDBRANCH   6  17
TORSDOF 2
ENDMDL
