MODEL 1
REMARK VINA RESULT:    -9.206      0.000      0.000
REMARK INTER + INTRA:         -12.997
REMARK INTER:                 -11.897
REMARK INTRA:                  -1.100
REMARK UNBOUND:                -1.100
REMARK  5 active torsions:
REMARK  status: ('A' for Active; 'I' for Inactive)
REMARK    1  A    between atoms: C_5  and  C_8 
REMARK    2  A    between atoms: N_15  and  C_16 
REMARK    3  A    between atoms: C_16  and  C_17 
REMARK    4  A    between atoms: C_17  and  C_18 
REMARK    5  A    between atoms: C_18  and  N_19 
ROOT
ATOM      1  C   UNK d   1      23.168   6.860  30.922  0.00  0.00     0.078 A 
ATOM      2  C   UNK d   1      21.850   6.441  31.175  0.00  0.00     0.146 A 
ATOM      3  N   UNK d   1      21.193   7.421  31.793  0.00  0.00    -0.153 N 
ATOM      4  C   UNK d   1      19.985   7.741  32.324  0.00  0.00     0.083 A 
ATOM      5  C   UNK d   1      20.096   8.998  32.813  0.00  0.00     0.077 A 
ATOM      6  N   UNK d   1      21.350   9.407  32.572  0.00  0.00    -0.189 N 
ATOM      7  C   UNK d   1      22.046   8.437  31.936  0.00  0.00     0.692 A 
ATOM      8  N   UNK d   1      23.268   8.107  31.404  0.00  0.00    -0.180 N 
ATOM      9  C   UNK d   1      19.019   9.614  33.424  0.00  0.00     0.032 A 
ATOM     10  C   UNK d   1      17.805   8.956  33.549  0.00  0.00     0.002 A 
ATOM     11  C   UNK d   1      17.691   7.667  33.046  0.00  0.00     0.002 A 
ATOM     12  C   UNK d   1      18.784   7.086  32.444  0.00  0.00     0.033 A 
ATOM     13  H   UNK d   1      21.751  10.342  32.843  0.00  0.00     0.184 HD
ENDROOT
BRANCH   8  14
ATOM     14  C   UNK d   1      24.401   8.972  31.421  0.00  0.00     0.149 C 
BRANCH  14  15
ATOM     15  C   UNK d   1      24.623   9.779  30.167  0.00  0.00     0.048 C 
BRANCH  15  16
ATOM     16  C   UNK d   1      24.558  11.236  30.293  0.00  0.00     0.236 C 
BRANCH  16  17
ATOM     17  N   UNK d   1      23.539  11.964  29.595  0.00  0.00    -0.071 N 
ATOM     18  C   UNK d   1      22.215  11.730  30.143  0.00  0.00     0.235 C 
ATOM     19  C   UNK d   1      21.799  12.613  31.242  0.00  0.00     0.028 C 
ATOM     20  C   UNK d   1      22.643  13.805  31.498  0.00  0.00     0.003 C 
ATOM     21  C   UNK d   1      23.225  14.335  30.236  0.00  0.00     0.028 C 
ATOM     22  C   UNK d   1      23.837  13.327  29.337  0.00  0.00     0.235 C 
ATOM     23  H   UNK d   1      23.473  11.492  28.665  0.00  0.00     0.279 HD
ENDBRANCH  16  17
ENDBRANCH  15  16
ENDBRANCH  14  15
ENDBRANCH   8  14
BRANCH   1  24
ATOM     24  C   UNK d   1      24.145   5.983  30.268  0.00  0.00    -0.007 A 
ATOM     25  C   UNK d   1      24.489   4.789  30.901  0.00  0.00     0.015 A 
ATOM     26  C   UNK d   1      25.385   3.876  30.380  0.00  0.00     0.020 A 
ATOM     27  C   UNK d   1      25.991   4.116  29.182  0.00  0.00     0.011 A 
ATOM     28 Br   UNK d   1      27.229   2.893  28.426  0.00  0.00    -0.051 Br
ATOM     29  C   UNK d   1      25.675   5.278  28.535  0.00  0.00     0.020 A 
ATOM     30  C   UNK d   1      24.755   6.211  29.074  0.00  0.00     0.015 A 
ENDBRANCH   1  24
TORSDOF 5
ENDMDL
