MODEL 1
REMARK VINA RESULT:    -8.096      0.000      0.000
REMARK INTER + INTRA:         -11.682
REMARK INTER:                 -10.935
REMARK INTRA:                  -0.747
REMARK UNBOUND:                -0.747
REMARK  6 active torsions:
REMARK  status: ('A' for Active; 'I' for Inactive)
REMARK    1  A    between atoms: C_10  and  C_22 
REMARK    2  A    between atoms: N_15  and  C_18 
REMARK    3  A    between atoms: C_18  and  C_19 
REMARK    4  A    between atoms: C_19  and  C_20 
REMARK    5  A    between atoms: C_22  and  C_23 
REMARK    6  A    between atoms: C_23  and  C_24 
REMARK       I    between atoms: C_24  and  N_26 
ROOT
ATOM      1 Cl   UNK d   1      28.670   8.302  29.022  0.00  0.00    -0.082 Cl
ATOM      2  C   UNK d   1      27.063   7.579  29.023  0.00  0.00     0.061 A 
ATOM      3  C   UNK d   1      26.081   8.203  29.806  0.00  0.00     0.066 A 
ATOM      4  C   UNK d   1      24.834   7.639  29.803  0.00  0.00     0.008 A 
ATOM      5  C   UNK d   1      24.552   6.482  29.047  0.00  0.00     0.012 A 
ATOM      6  C   UNK d   1      25.521   5.880  28.285  0.00  0.00     0.002 A 
ATOM      7  C   UNK d   1      26.774   6.453  28.291  0.00  0.00     0.026 A 
ATOM      8  C   UNK d   1      23.971   8.452  30.670  0.00  0.00     0.151 A 
ATOM      9  N   UNK d   1      23.277   7.720  31.668  0.00  0.00    -0.395 N 
ATOM     10  C   UNK d   1      22.065   8.328  32.004  0.00  0.00     0.092 C 
ATOM     11  C   UNK d   1      21.772   9.277  30.863  0.00  0.00     0.117 C 
ATOM     12  C   UNK d   1      22.863   9.116  29.854  0.00  0.00     0.135 C 
ATOM     13  C   UNK d   1      23.247  10.473  29.386  0.00  0.00     0.234 C 
ATOM     14  O   UNK d   1      24.064  10.690  28.461  0.00  0.00    -0.272 OA
ATOM     15  N   UNK d   1      22.529  11.427  30.170  0.00  0.00    -0.288 N 
ATOM     16  C   UNK d   1      21.915  10.700  31.244  0.00  0.00     0.233 C 
ATOM     17  O   UNK d   1      21.564  11.205  32.322  0.00  0.00    -0.272 OA
ATOM     18  C   UNK d   1      24.836   9.508  31.202  0.00  0.00     0.256 A 
ATOM     19  O   UNK d   1      24.551  10.437  32.020  0.00  0.00    -0.270 OA
ATOM     20  N   UNK d   1      26.128   9.349  30.647  0.00  0.00    -0.323 N 
ATOM     21  H   UNK d   1      23.854   7.336  32.434  0.00  0.00     0.155 HD
ATOM     22  H   UNK d   1      26.983   9.935  30.795  0.00  0.00     0.169 HD
ENDROOT
BRANCH  10  23
ATOM     23  C   UNK d   1      20.908   7.482  32.373  0.00  0.00     0.035 C 
BRANCH  23  24
ATOM     24  C   UNK d   1      19.568   8.101  32.403  0.00  0.00     0.104 C 
BRANCH  24  25
ATOM     25  C   UNK d   1      18.513   7.400  33.143  0.00  0.00     0.215 C 
ATOM     26  O   UNK d   1      18.644   6.200  33.447  0.00  0.00    -0.274 OA
ATOM     27  N   UNK d   1      17.303   8.033  33.551  0.00  0.00    -0.370 N 
ATOM     28  H   UNK d   1      17.261   8.773  34.273  0.00  0.00     0.159 HD
ATOM     29  H   UNK d   1      16.418   7.740  33.105  0.00  0.00     0.159 HD
ENDBRANCH  24  25
ENDBRANCH  23  24
ENDBRANCH  10  23
BRANCH  15  30
ATOM     30  C   UNK d   1      22.413  12.837  29.956  0.00  0.00     0.135 C 
BRANCH  30  31
ATOM     31  C   UNK d   1      23.257  13.701  30.822  0.00  0.00     0.020 C 
BRANCH  31  32
ATOM     32  C   UNK d   1      22.546  14.714  31.648  0.00  0.00    -0.003 C 
ATOM     33  C   UNK d   1      21.032  14.571  31.540  0.00  0.00     0.005 C 
ENDBRANCH  31  32
ENDBRANCH  30  31
ENDBRANCH  15  30
TORSDOF 6
ENDMDL
