/Users/jonathanwahrer/Desktop/Msc/3_Semester/Drug_Design_Praktikum/waehrer_HTS_screening/HTS_experiment/out/docking_results/vina_output/3elj/2440_docked.pdbqt
 OpenBabel03192219053D

 33 36  0  0  1  0  0  0  0  0999 V2000
   28.6700    8.3020   29.0220 Cl  0  0  0  0  0  0  0  0  0  0  0  0
   27.0630    7.5790   29.0230 C   0  0  0  0  0  0  0  0  0  0  0  0
   26.0810    8.2030   29.8060 C   0  0  0  0  0  0  0  0  0  0  0  0
   24.8340    7.6390   29.8030 C   0  0  0  0  0  0  0  0  0  0  0  0
   24.5520    6.4820   29.0470 C   0  0  0  0  0  3  0  0  0  0  0  0
   25.5210    5.8800   28.2850 C   0  0  0  0  0  3  0  0  0  0  0  0
   26.7740    6.4530   28.2910 C   0  0  0  0  0  3  0  0  0  0  0  0
   23.9710    8.4520   30.6700 C   0  0  2  0  0  0  0  0  0  0  0  0
   23.2770    7.7200   31.6680 N   0  0  0  0  0  0  0  0  0  0  0  0
   22.0650    8.3280   32.0040 C   0  0  1  0  0  3  0  0  0  0  0  0
   21.7720    9.2770   30.8630 C   0  0  2  0  0  3  0  0  0  0  0  0
   22.8630    9.1160   29.8540 C   0  0  1  0  0  3  0  0  0  0  0  0
   23.2470   10.4730   29.3860 C   0  0  0  0  0  0  0  0  0  0  0  0
   24.0640   10.6900   28.4610 O   0  0  0  0  0  0  0  0  0  0  0  0
   22.5290   11.4270   30.1700 N   0  0  0  0  0  0  0  0  0  0  0  0
   21.9150   10.7000   31.2440 C   0  0  0  0  0  0  0  0  0  0  0  0
   21.5640   11.2050   32.3220 O   0  0  0  0  0  0  0  0  0  0  0  0
   24.8360    9.5080   31.2020 C   0  0  0  0  0  0  0  0  0  0  0  0
   24.5510   10.4370   32.0200 O   0  0  0  0  0  0  0  0  0  0  0  0
   26.1280    9.3490   30.6470 N   0  0  0  0  0  0  0  0  0  0  0  0
   23.8540    7.3360   32.4340 H   0  0  0  0  0  0  0  0  0  0  0  0
   26.9830    9.9350   30.7950 H   0  0  0  0  0  0  0  0  0  0  0  0
   20.9080    7.4820   32.3730 C   0  0  0  0  0  3  0  0  0  0  0  0
   19.5680    8.1010   32.4030 C   0  0  0  0  0  3  0  0  0  0  0  0
   18.5130    7.4000   33.1430 C   0  0  0  0  0  0  0  0  0  0  0  0
   18.6440    6.2000   33.4470 O   0  0  0  0  0  0  0  0  0  0  0  0
   17.3030    8.0330   33.5510 N   0  0  0  0  0  0  0  0  0  0  0  0
   17.2610    8.7730   34.2730 H   0  0  0  0  0  0  0  0  0  0  0  0
   16.4180    7.7400   33.1050 H   0  0  0  0  0  0  0  0  0  0  0  0
   22.4130   12.8370   29.9560 C   0  0  0  0  0  2  0  0  0  0  0  0
   23.2570   13.7010   30.8220 C   0  0  0  0  0  2  0  0  0  0  0  0
   22.5460   14.7140   31.6480 C   0  0  0  0  0  2  0  0  0  0  0  0
   21.0320   14.5710   31.5400 C   0  0  0  0  0  1  0  0  0  0  0  0
  1  2  1  0  0  0  0
  2  3  1  0  0  0  0
  3 20  1  0  0  0  0
  4  3  2  0  0  0  0
  5  4  1  0  0  0  0
  6  7  1  0  0  0  0
  6  5  2  0  0  0  0
  7  2  2  0  0  0  0
  8  4  1  6  0  0  0
  8 18  1  0  0  0  0
  8  9  1  0  0  0  0
  9 10  1  0  0  0  0
  9 21  1  0  0  0  0
 10 23  1  6  0  0  0
 11 16  1  1  0  0  0
 11 10  1  0  0  0  0
 12 13  1  1  0  0  0
 12  8  1  0  0  0  0
 12 11  1  0  0  0  0
 13 15  1  0  0  0  0
 14 13  2  0  0  0  0
 15 16  1  0  0  0  0
 16 17  2  0  0  0  0
 18 19  2  0  0  0  0
 20 22  1  0  0  0  0
 20 18  1  0  0  0  0
 23 24  2  0  0  0  0
 24 25  1  0  0  0  0
 25 26  2  0  0  0  0
 25 27  1  0  0  0  0
 27 28  1  0  0  0  0
 29 27  1  0  0  0  0
 30 15  1  0  0  0  0
 30 31  1  0  0  0  0
 31 32  1  0  0  0  0
 33 32  1  0  0  0  0
M  END
>  <Pose>
1

>  <Score>
-8.096

$$$$
