2


 38 41  0  0  0  0  0  0  0  0999 V2000
    0.9314    6.6389  -13.0163 C   0  0  0  0  0  0  0  0  0  0  0  0
   -0.1319    5.7653  -13.1017 N   0  0  0  0  0  0  0  0  0  0  0  0
   -1.2029    6.4646  -13.2996 N   0  0  0  0  0  0  0  0  0  0  0  0
   -0.8773    7.7858  -13.3475 N   0  0  0  0  0  0  0  0  0  0  0  0
    0.4359    7.9263  -13.1762 C   0  0  0  0  0  0  0  0  0  0  0  0
   -1.9063    8.7575  -13.5496 C   0  0  0  0  0  0  0  0  0  0  0  0
   -2.0143   10.0256  -13.1739 N   0  0  0  0  0  0  0  0  0  0  0  0
   -3.1315   10.4776  -13.6404 O   0  0  0  0  0  0  0  0  0  0  0  0
   -3.7753    9.5729  -14.3090 N   0  0  0  0  0  0  0  0  0  0  0  0
   -3.0583    8.4575  -14.2941 C   0  0  0  0  0  0  0  0  0  0  0  0
   -3.3378    7.1976  -14.8828 N   0  0  0  0  0  0  0  0  0  0  0  0
   -3.5138    7.1390  -15.9072 H   0  0  0  0  0  0  0  0  0  0  0  0
   -3.3772    6.3005  -14.3187 H   0  0  0  0  0  0  0  0  0  0  0  0
    3.4944    6.6909  -13.3098 N   0  0  0  0  0  0  0  0  0  0  0  0
    2.2877    6.1932  -12.8050 C   0  0  0  0  0  0  0  0  0  0  0  0
    2.3936    5.1615  -12.0120 O   0  0  0  0  0  0  0  0  0  0  0  0
    3.5913    7.4825  -13.9238 H   0  0  0  0  0  0  0  0  0  0  0  0
    5.7788    6.1522  -13.5565 C   0  0  0  0  0  0  0  0  0  0  0  0
    4.6901    6.0057  -12.8997 N   0  0  0  0  0  0  0  0  0  0  0  0
   10.6537    6.5771  -11.4366 Br  0  0  0  0  0  0  0  0  0  0  0  0
    9.2373    5.5582  -12.2383 C   0  0  0  0  0  0  0  0  0  0  0  0
    9.4321    4.2050  -12.4384 C   0  0  0  0  0  0  0  0  0  0  0  0
    8.4031    3.4924  -13.0146 C   0  0  0  0  0  0  0  0  0  0  0  0
    7.2242    4.1236  -13.3748 C   0  0  0  0  0  0  0  0  0  0  0  0
    7.0255    5.4745  -13.1771 C   0  0  0  0  0  0  0  0  0  0  0  0
    8.0601    6.1811  -12.6002 C   0  0  0  0  0  0  0  0  0  0  0  0
    7.8543    7.5583  -12.3999 O   0  0  0  0  0  0  0  0  0  0  0  0
    8.6764    1.6198  -13.2896 Br  0  0  0  0  0  0  0  0  0  0  0  0
   10.6338    3.6017  -12.0628 O   0  0  0  0  0  0  0  0  0  0  0  0
    8.5853    8.1113  -11.9798 H   0  0  0  0  0  0  0  0  0  0  0  0
    1.2373    9.1494  -13.1570 C   0  0  0  0  0  0  0  0  0  0  0  0
    1.2143   10.0219  -14.2699 N   0  0  0  0  0  0  0  0  0  0  0  0
    2.3981    9.9179  -15.1105 C   0  0  0  0  0  0  0  0  0  0  0  0
    3.6345   10.0434  -14.3141 C   0  0  0  0  0  0  0  0  0  0  0  0
    3.6711   10.8227  -13.2316 O   0  0  0  0  0  0  0  0  0  0  0  0
    2.5453   11.4623  -12.8248 C   0  0  0  0  0  0  0  0  0  0  0  0
    1.3758   11.4077  -13.7213 C   0  0  0  0  0  0  0  0  0  0  0  0
    0.3507    9.9858  -14.7912 H   0  0  0  0  0  0  0  0  0  0  0  0
 20 21  1  0  0  0
 21 22  2  0  0  0
 21 26  1  0  0  0
 22 23  1  0  0  0
 22 29  1  0  0  0
 23 24  2  0  0  0
 23 28  1  0  0  0
 24 25  1  0  0  0
 25 26  2  0  0  0
 25 18  1  0  0  0
 26 27  1  0  0  0
 18 19  2  0  0  0
 19 14  1  0  0  0
 14 15  1  0  0  0
 15 16  2  0  0  0
 15  1  1  0  0  0
  1  2  1  0  0  0
  1  5  2  0  0  0
  2  3  2  0  0  0
  3  4  1  0  0  0
  4  5  1  0  0  0
  4  6  1  0  0  0
  5 31  1  0  0  0
 31 32  1  0  0  0
 32 33  1  0  0  0
 32 37  1  0  0  0
 33 34  1  0  0  0
 34 35  1  0  0  0
 35 36  1  0  0  0
 36 37  1  0  0  0
  6  7  2  0  0  0
  6 10  1  0  0  0
  7  8  1  0  0  0
  8  9  1  0  0  0
  9 10  2  0  0  0
 10 11  1  0  0  0
 27 30  1  0  0  0
 14 17  1  0  0  0
 32 38  1  0  0  0
 11 12  1  0  0  0
 11 13  1  0  0  0
M  CHG 1  29  -1
M  CHG 1  32   1
M  END
> <minimizedAffinity>
-7.87111

$$$$
3


 38 41  0  0  0  0  0  0  0  0999 V2000
    6.5585    6.8006  -13.7655 C   0  0  0  0  0  0  0  0  0  0  0  0
    7.6912    7.4809  -14.1367 N   0  0  0  0  0  0  0  0  0  0  0  0
    8.7409    6.7584  -13.8590 N   0  0  0  0  0  0  0  0  0  0  0  0
    8.4016    5.6037  -13.3122 N   0  0  0  0  0  0  0  0  0  0  0  0
    7.0597    5.6044  -13.2409 C   0  0  0  0  0  0  0  0  0  0  0  0
    9.3294    4.6018  -12.9356 C   0  0  0  0  0  0  0  0  0  0  0  0
   10.0838    4.5075  -11.8198 N   0  0  0  0  0  0  0  0  0  0  0  0
   10.8003    3.4155  -11.8611 O   0  0  0  0  0  0  0  0  0  0  0  0
   10.5645    2.7567  -12.9669 N   0  0  0  0  0  0  0  0  0  0  0  0
    9.6554    3.4641  -13.6582 C   0  0  0  0  0  0  0  0  0  0  0  0
    9.1383    3.0802  -14.9144 N   0  0  0  0  0  0  0  0  0  0  0  0
    8.4961    2.2686  -14.9642 H   0  0  0  0  0  0  0  0  0  0  0  0
    9.3748    3.5780  -15.7915 H   0  0  0  0  0  0  0  0  0  0  0  0
    4.0599    6.9318  -13.2112 N   0  0  0  0  0  0  0  0  0  0  0  0
    5.2014    7.2907  -13.9151 C   0  0  0  0  0  0  0  0  0  0  0  0
    5.0547    8.1812  -14.8345 O   0  0  0  0  0  0  0  0  0  0  0  0
    3.9849    6.2284  -12.4384 H   0  0  0  0  0  0  0  0  0  0  0  0
    1.7286    7.1748  -13.0624 C   0  0  0  0  0  0  0  0  0  0  0  0
    2.8339    7.5868  -13.5732 N   0  0  0  0  0  0  0  0  0  0  0  0
   -1.2257   11.5696  -13.3813 Br  0  0  0  0  0  0  0  0  0  0  0  0
   -1.0101    9.6944  -13.5427 C   0  0  0  0  0  0  0  0  0  0  0  0
   -2.0618    8.9173  -13.9316 C   0  0  0  0  0  0  0  0  0  0  0  0
   -1.8727    7.5420  -14.0399 C   0  0  0  0  0  0  0  0  0  0  0  0
   -0.6268    6.9943  -13.7511 C   0  0  0  0  0  0  0  0  0  0  0  0
    0.4336    7.7671  -13.3600 C   0  0  0  0  0  0  0  0  0  0  0  0
    0.2321    9.1255  -13.2571 C   0  0  0  0  0  0  0  0  0  0  0  0
    1.3127    9.8982  -12.8606 O   0  0  0  0  0  0  0  0  0  0  0  0
   -3.3134    6.4341  -14.5786 Br  0  0  0  0  0  0  0  0  0  0  0  0
   -3.3117    9.4433  -14.2244 O   0  0  0  0  0  0  0  0  0  0  0  0
    1.2153   10.9017  -12.7699 H   0  0  0  0  0  0  0  0  0  0  0  0
   -4.0722    8.8479  -14.5087 H   0  0  0  0  0  0  0  0  0  0  0  0
    6.2042    4.5253  -12.7385 C   0  0  0  0  0  0  0  0  0  0  0  0
    6.0931    3.3742  -13.6385 N   0  0  0  0  0  0  0  0  0  0  0  0
    4.7182    3.3299  -14.1737 C   0  0  0  0  0  0  0  0  0  0  0  0
    3.7396    3.5094  -13.0661 C   0  0  0  0  0  0  0  0  0  0  0  0
    3.9849    2.5868  -12.0790 O   0  0  0  0  0  0  0  0  0  0  0  0
    4.8963    1.6221  -12.4194 C   0  0  0  0  0  0  0  0  0  0  0  0
    6.2495    2.1428  -12.8285 C   0  0  0  0  0  0  0  0  0  0  0  0
 20 21  1  0  0  0
 21 22  2  0  0  0
 21 26  1  0  0  0
 22 23  1  0  0  0
 22 29  1  0  0  0
 23 24  2  0  0  0
 23 28  1  0  0  0
 24 25  1  0  0  0
 25 26  2  0  0  0
 25 18  1  0  0  0
 26 27  1  0  0  0
 18 19  2  0  0  0
 19 14  1  0  0  0
 14 15  1  0  0  0
 15 16  2  0  0  0
 15  1  1  0  0  0
  1  2  1  0  0  0
  1  5  2  0  0  0
  2  3  2  0  0  0
  3  4  1  0  0  0
  4  5  1  0  0  0
  4  6  1  0  0  0
  5 32  1  0  0  0
 32 33  1  0  0  0
 33 34  1  0  0  0
 33 38  1  0  0  0
 34 35  1  0  0  0
 35 36  1  0  0  0
 36 37  1  0  0  0
 37 38  1  0  0  0
  6  7  2  0  0  0
  6 10  1  0  0  0
  7  8  1  0  0  0
  8  9  1  0  0  0
  9 10  2  0  0  0
 10 11  1  0  0  0
 27 30  1  0  0  0
 14 17  1  0  0  0
 11 12  1  0  0  0
 11 13  1  0  0  0
 29 31  1  0  0  0
M  END
> <minimizedAffinity>
-7.88135

$$$$
4


 34 37  0  0  0  0  0  0  0  0999 V2000
    2.2916   10.1172  -14.4199 C   0  0  0  0  0  0  0  0  0  0  0  0
    2.0938   11.3376  -13.9266 N   0  0  0  0  0  0  0  0  0  0  0  0
    0.9649   11.6803  -13.2416 C   0  0  0  0  0  0  0  0  0  0  0  0
    0.0575   10.7186  -13.0888 N   0  0  0  0  0  0  0  0  0  0  0  0
    0.1781    9.4552  -13.5555 C   0  0  0  0  0  0  0  0  0  0  0  0
    1.3383    9.1973  -14.2301 N   0  0  0  0  0  0  0  0  0  0  0  0
   -0.8090    8.4704  -13.3695 N   0  0  0  0  0  0  0  0  0  0  0  0
   -0.4767    7.1964  -12.8127 C   0  0  0  0  0  0  0  0  0  0  0  0
   -1.0421    6.1303  -13.7554 C   0  0  0  0  0  0  0  0  0  0  0  0
   -1.6200    6.6861  -14.8762 O   0  0  0  0  0  0  0  0  0  0  0  0
   -2.6316    7.5758  -14.6129 C   0  0  0  0  0  0  0  0  0  0  0  0
   -2.1661    8.7337  -13.7379 C   0  0  0  0  0  0  0  0  0  0  0  0
    0.7749   12.9802  -12.7265 N   0  0  0  0  0  0  0  0  0  0  0  0
   -0.5006   13.6292  -12.8480 C   0  0  0  0  0  0  0  0  0  0  0  0
   -0.2425   15.0418  -13.3480 C   0  0  0  0  0  0  0  0  0  0  0  0
    0.7808   15.6642  -12.6438 O   0  0  0  0  0  0  0  0  0  0  0  0
    1.9944   15.0251  -12.7594 C   0  0  0  0  0  0  0  0  0  0  0  0
    1.8610   13.6577  -12.0773 C   0  0  0  0  0  0  0  0  0  0  0  0
    3.4827    9.7994  -15.1283 N   0  0  0  0  0  0  0  0  0  0  0  0
    3.9490   10.4312  -15.7877 H   0  0  0  0  0  0  0  0  0  0  0  0
    4.8421    8.2799  -13.9391 C   0  0  0  0  0  0  0  0  0  0  0  0
    4.0837    8.5412  -14.9289 N   0  0  0  0  0  0  0  0  0  0  0  0
    4.3839    3.0558  -12.7530 Br  0  0  0  0  0  0  0  0  0  0  0  0
    5.3736    4.6322  -13.1852 C   0  0  0  0  0  0  0  0  0  0  0  0
    6.7468    4.5206  -13.2820 C   0  0  0  0  0  0  0  0  0  0  0  0
    7.4652    5.6543  -13.5932 C   0  0  0  0  0  0  0  0  0  0  0  0
    6.8397    6.8698  -13.8055 C   0  0  0  0  0  0  0  0  0  0  0  0
    5.4735    6.9905  -13.7115 C   0  0  0  0  0  0  0  0  0  0  0  0
    4.7556    5.8546  -13.3997 C   0  0  0  0  0  0  0  0  0  0  0  0
    3.3878    5.9513  -13.3014 O   0  0  0  0  0  0  0  0  0  0  0  0
    9.3703    5.5136  -13.7293 Br  0  0  0  0  0  0  0  0  0  0  0  0
    7.3597    3.2887  -13.0645 O   0  0  0  0  0  0  0  0  0  0  0  0
    2.8201    5.1304  -13.0712 H   0  0  0  0  0  0  0  0  0  0  0  0
    8.3607    3.2134  -13.1363 H   0  0  0  0  0  0  0  0  0  0  0  0
 23 24  1  0  0  0
 24 25  2  0  0  0
 24 29  1  0  0  0
 25 26  1  0  0  0
 25 32  1  0  0  0
 26 27  2  0  0  0
 26 31  1  0  0  0
 27 28  1  0  0  0
 28 29  2  0  0  0
 28 21  1  0  0  0
 29 30  1  0  0  0
 21 22  2  0  0  0
 22 19  1  0  0  0
 19  1  1  0  0  0
  1  2  2  0  0  0
  1  6  1  0  0  0
  2  3  1  0  0  0
  3  4  2  0  0  0
  3 13  1  0  0  0
  4  5  1  0  0  0
  5  6  2  0  0  0
  5  7  1  0  0  0
  7  8  1  0  0  0
  7 12  1  0  0  0
  8  9  1  0  0  0
  9 10  1  0  0  0
 10 11  1  0  0  0
 11 12  1  0  0  0
 13 14  1  0  0  0
 13 18  1  0  0  0
 14 15  1  0  0  0
 15 16  1  0  0  0
 16 17  1  0  0  0
 17 18  1  0  0  0
 30 33  1  0  0  0
 19 20  1  0  0  0
 32 34  1  0  0  0
M  END
> <minimizedAffinity>
-8.47627

$$$$
5


 38 41  0  0  0  0  0  0  0  0999 V2000
   -0.0477    7.7703  -13.6966 N   0  0  0  0  0  0  0  0  0  0  0  0
   -1.3330    7.4747  -14.0265 C   0  0  0  0  0  0  0  0  0  0  0  0
   -2.0918    8.6135  -13.9736 C   0  0  0  0  0  0  0  0  0  0  0  0
   -1.2590    9.5704  -13.6191 N   0  0  0  0  0  0  0  0  0  0  0  0
    0.0031    9.0918  -13.4441 C   0  0  0  0  0  0  0  0  0  0  0  0
   -3.4282    8.6651  -14.2643 N   0  0  0  0  0  0  0  0  0  0  0  0
   -4.0067    7.5130  -14.6249 C   0  0  0  0  0  0  0  0  0  0  0  0
   -5.2406    7.5637  -14.8920 O   0  0  0  0  0  0  0  0  0  0  0  0
   -3.3035    6.3663  -14.6963 N   0  0  0  0  0  0  0  0  0  0  0  0
   -1.9927    6.3010  -14.4133 C   0  0  0  0  0  0  0  0  0  0  0  0
   -1.2964    5.1175  -14.4998 O   0  0  0  0  0  0  0  0  0  0  0  0
   -4.1373    9.9333  -14.1645 C   0  0  0  0  0  0  0  0  0  0  0  0
    1.1191    9.9585  -13.1703 N   0  0  0  0  0  0  0  0  0  0  0  0
    2.2412    9.6885  -12.3568 C   0  0  0  0  0  0  0  0  0  0  0  0
    3.2028   10.9041  -12.4622 C   0  0  0  0  0  0  0  0  0  0  0  0
    2.4463   12.0172  -11.9221 N   0  0  0  0  0  0  0  0  0  0  0  0
    1.5783   12.4092  -13.0487 C   0  0  0  0  0  0  0  0  0  0  0  0
    1.1122   11.2606  -13.8503 C   0  0  0  0  0  0  0  0  0  0  0  0
    1.7982   11.7502  -11.1509 H   0  0  0  0  0  0  0  0  0  0  0  0
    3.3080   13.1257  -11.5628 C   0  0  0  0  0  0  0  0  0  0  0  0
    2.5305   14.4150  -11.7114 C   0  0  0  0  0  0  0  0  0  0  0  0
    2.2174   14.9094  -10.4392 O   0  0  0  0  0  0  0  0  0  0  0  0
    1.2303   14.9747  -10.3187 H   0  0  0  0  0  0  0  0  0  0  0  0
    1.0281    6.8460  -13.6415 C   0  0  0  0  0  0  0  0  0  0  0  0
    1.3668    6.1091  -12.4355 C   0  0  0  0  0  0  0  0  0  0  0  0
    0.7167    6.4449  -11.2346 O   0  0  0  0  0  0  0  0  0  0  0  0
   -0.2375    6.2529  -11.2687 H   0  0  0  0  0  0  0  0  0  0  0  0
    2.7124    5.6537  -12.0598 C   0  0  0  0  0  0  0  0  0  0  0  0
    3.4669    5.3122  -13.2205 O   0  0  0  0  0  0  0  0  0  0  0  0
    4.9925    7.7808  -13.9523 Br  0  0  0  0  0  0  0  0  0  0  0  0
    5.6977    6.0383  -13.5921 C   0  0  0  0  0  0  0  0  0  0  0  0
    4.7858    5.0228  -13.2650 C   0  0  0  0  0  0  0  0  0  0  0  0
    5.3013    3.7927  -13.0125 C   0  0  0  0  0  0  0  0  0  0  0  0
    6.6761    3.5322  -13.0696 C   0  0  0  0  0  0  0  0  0  0  0  0
    7.5499    4.5446  -13.3921 C   0  0  0  0  0  0  0  0  0  0  0  0
    7.0470    5.8012  -13.6530 C   0  0  0  0  0  0  0  0  0  0  0  0
    9.4371    4.3089  -13.5013 Br  0  0  0  0  0  0  0  0  0  0  0  0
    4.1814    2.3413  -12.5826 Br  0  0  0  0  0  0  0  0  0  0  0  0
 30 31  1  0  0  0
 31 32  2  0  0  0
 31 36  1  0  0  0
 32 33  1  0  0  0
 32 29  1  0  0  0
 33 34  2  0  0  0
 33 38  1  0  0  0
 34 35  1  0  0  0
 35 36  2  0  0  0
 35 37  1  0  0  0
 29 28  1  0  0  0
 28 25  1  0  0  0
 25 26  1  0  0  0
 25 24  1  0  0  0
 24  1  1  0  0  0
  1  2  1  0  0  0
  1  5  1  0  0  0
  2  3  2  0  0  0
  2 10  1  0  0  0
  3  4  1  0  0  0
  3  6  1  0  0  0
  4  5  2  0  0  0
  5 13  1  0  0  0
 13 14  1  0  0  0
 13 18  1  0  0  0
 14 15  1  0  0  0
 15 16  1  0  0  0
 16 17  1  0  0  0
 16 20  1  0  0  0
 17 18  1  0  0  0
 20 21  1  0  0  0
 21 22  1  0  0  0
  6  7  1  0  0  0
  6 12  1  0  0  0
  7  8  2  0  0  0
  7  9  1  0  0  0
  9 10  2  0  0  0
 10 11  1  0  0  0
 26 27  1  0  0  0
 16 19  1  0  0  0
 22 23  1  0  0  0
M  CHG 1  11  -1
M  CHG 1  16   1
M  END
> <minimizedAffinity>
-9.37773

$$$$
6


 34 37  0  0  0  0  0  0  0  0999 V2000
    1.2785   10.7177  -13.9231 N   0  0  0  0  0  0  0  0  0  0  0  0
    2.1840   11.5964  -13.4171 C   0  0  0  0  0  0  0  0  0  0  0  0
    1.5542   12.5126  -12.6212 C   0  0  0  0  0  0  0  0  0  0  0  0
    0.2553   12.1758  -12.6525 N   0  0  0  0  0  0  0  0  0  0  0  0
    0.0827   11.0751  -13.4503 C   0  0  0  0  0  0  0  0  0  0  0  0
    2.3096   13.4934  -12.0130 C   0  0  0  0  0  0  0  0  0  0  0  0
    3.6817   13.5755  -12.1854 C   0  0  0  0  0  0  0  0  0  0  0  0
    4.2910   12.6346  -12.9968 C   0  0  0  0  0  0  0  0  0  0  0  0
    3.5373   11.6518  -13.6064 C   0  0  0  0  0  0  0  0  0  0  0  0
   -1.2096   10.4479  -13.6984 C   0  0  0  0  0  0  0  0  0  0  0  0
   -2.2411   11.0153  -14.3367 N   0  0  0  0  0  0  0  0  0  0  0  0
   -3.2433   10.1556  -14.3757 O   0  0  0  0  0  0  0  0  0  0  0  0
   -2.9082    9.0502  -13.7886 N   0  0  0  0  0  0  0  0  0  0  0  0
   -1.6386    9.1880  -13.3471 C   0  0  0  0  0  0  0  0  0  0  0  0
   -0.8807    8.2166  -12.6498 N   0  0  0  0  0  0  0  0  0  0  0  0
   -0.4243    7.5405  -13.2770 H   0  0  0  0  0  0  0  0  0  0  0  0
   -1.5732    7.6666  -12.0711 H   0  0  0  0  0  0  0  0  0  0  0  0
   -0.1933    8.6437  -11.9755 H   0  0  0  0  0  0  0  0  0  0  0  0
    1.5295    9.6123  -14.7941 C   0  0  0  0  0  0  0  0  0  0  0  0
    3.6568    8.2683  -14.7418 N   0  0  0  0  0  0  0  0  0  0  0  0
    2.3544    8.5546  -14.2640 C   0  0  0  0  0  0  0  0  0  0  0  0
    1.9251    7.8346  -13.3320 O   0  0  0  0  0  0  0  0  0  0  0  0
    4.0234    8.8605  -15.5174 H   0  0  0  0  0  0  0  0  0  0  0  0
    5.6953    7.4274  -13.9271 C   0  0  0  0  0  0  0  0  0  0  0  0
    4.4706    7.2603  -14.2525 N   0  0  0  0  0  0  0  0  0  0  0  0
   10.1600    5.6928  -11.7543 Br  0  0  0  0  0  0  0  0  0  0  0  0
    8.4177    5.4070  -12.4490 C   0  0  0  0  0  0  0  0  0  0  0  0
    7.7048    6.4875  -12.9237 C   0  0  0  0  0  0  0  0  0  0  0  0
    6.4537    6.2986  -13.4250 C   0  0  0  0  0  0  0  0  0  0  0  0
    5.8697    5.0277  -13.4706 C   0  0  0  0  0  0  0  0  0  0  0  0
    6.6021    3.9690  -12.9917 C   0  0  0  0  0  0  0  0  0  0  0  0
    7.8656    4.1381  -12.4820 C   0  0  0  0  0  0  0  0  0  0  0  0
    5.8518    2.2095  -13.0300 Br  0  0  0  0  0  0  0  0  0  0  0  0
    8.2673    7.7511  -12.8859 O   0  0  0  0  0  0  0  0  0  0  0  0
 26 27  1  0  0  0
 27 28  2  0  0  0
 27 32  1  0  0  0
 28 29  1  0  0  0
 28 34  1  0  0  0
 29 30  2  0  0  0
 29 24  1  0  0  0
 30 31  1  0  0  0
 31 32  2  0  0  0
 31 33  1  0  0  0
 24 25  2  0  0  0
 25 20  1  0  0  0
 20 21  1  0  0  0
 21 22  2  0  0  0
 21 19  1  0  0  0
 19  1  1  0  0  0
  1  2  1  0  0  0
  1  5  1  0  0  0
  2  3  2  0  0  0
  2  9  1  0  0  0
  3  4  1  0  0  0
  3  6  1  0  0  0
  4  5  2  0  0  0
  5 10  1  0  0  0
 10 11  2  0  0  0
 10 14  1  0  0  0
 11 12  1  0  0  0
 12 13  1  0  0  0
 13 14  2  0  0  0
 14 15  1  0  0  0
  6  7  2  0  0  0
  7  8  1  0  0  0
  8  9  2  0  0  0
 20 23  1  0  0  0
 15 16  1  0  0  0
 15 17  1  0  0  0
 15 18  1  0  0  0
M  CHG 1  15   1
M  CHG 1  34  -1
M  END
> <minimizedAffinity>
-8.51722

$$$$
11


 36 39  0  0  0  0  0  0  0  0999 V2000
    2.2400   11.4616  -13.8236 C   0  0  0  0  0  0  0  0  0  0  0  0
    0.8851   11.5476  -13.4639 N   0  0  0  0  0  0  0  0  0  0  0  0
    0.0649   10.4378  -13.5991 C   0  0  0  0  0  0  0  0  0  0  0  0
   -1.1684   10.8082  -13.2115 C   0  0  0  0  0  0  0  0  0  0  0  0
   -1.0981   12.0828  -12.8615 N   0  0  0  0  0  0  0  0  0  0  0  0
    0.1950   12.5617  -13.0151 C   0  0  0  0  0  0  0  0  0  0  0  0
   -2.2491    9.9402  -13.2213 C   0  0  0  0  0  0  0  0  0  0  0  0
   -2.0009    8.6590  -13.6515 C   0  0  0  0  0  0  0  0  0  0  0  0
   -0.7536    8.2247  -14.0572 C   0  0  0  0  0  0  0  0  0  0  0  0
    0.2968    9.1402  -14.0282 C   0  0  0  0  0  0  0  0  0  0  0  0
    0.4058   13.9585  -12.6802 C   0  0  0  0  0  0  0  0  0  0  0  0
   -0.4014   14.9754  -13.1861 N   0  0  0  0  0  0  0  0  0  0  0  0
   -0.0348   16.1042  -12.7307 O   0  0  0  0  0  0  0  0  0  0  0  0
    0.9607   15.9677  -11.9501 N   0  0  0  0  0  0  0  0  0  0  0  0
    1.2687   14.6271  -11.8903 C   0  0  0  0  0  0  0  0  0  0  0  0
    2.3188   14.1388  -11.0845 N   0  0  0  0  0  0  0  0  0  0  0  0
    2.6496   14.9470  -10.4343 H   0  0  0  0  0  0  0  0  0  0  0  0
    3.1467   13.9467  -11.6613 H   0  0  0  0  0  0  0  0  0  0  0  0
    1.9929   13.4426  -10.4189 H   0  0  0  0  0  0  0  0  0  0  0  0
    3.6347    9.5756  -13.3496 N   0  0  0  0  0  0  0  0  0  0  0  0
    3.0685   10.6719  -12.7865 C   0  0  0  0  0  0  0  0  0  0  0  0
    3.0484   11.1873  -11.6706 O   0  0  0  0  0  0  0  0  0  0  0  0
    4.2211    9.2943  -12.1033 H   0  0  0  0  0  0  0  0  0  0  0  0
    4.6905    7.6113  -14.2704 C   0  0  0  0  0  0  0  0  0  0  0  0
    4.1513    8.5784  -13.8588 N   0  0  0  0  0  0  0  0  0  0  0  0
    9.5934    6.5658  -12.4928 Br  0  0  0  0  0  0  0  0  0  0  0  0
    7.8127    6.0472  -12.8965 C   0  0  0  0  0  0  0  0  0  0  0  0
    7.4110    4.7424  -12.7136 C   0  0  0  0  0  0  0  0  0  0  0  0
    6.0838    4.3745  -13.0420 C   0  0  0  0  0  0  0  0  0  0  0  0
    5.2630    5.3486  -13.5317 C   0  0  0  0  0  0  0  0  0  0  0  0
    5.6295    6.6868  -13.7357 C   0  0  0  0  0  0  0  0  0  0  0  0
    6.9308    6.9851  -13.3969 C   0  0  0  0  0  0  0  0  0  0  0  0
    8.2290    3.7636  -12.2288 O   0  0  0  0  0  0  0  0  0  0  0  0
    5.7093    3.0579  -12.8504 O   0  0  0  0  0  0  0  0  0  0  0  0
    4.3886    2.6365  -12.8749 C   0  0  0  0  0  0  0  0  0  0  0  0
    4.0071    1.7152  -13.9988 C   0  0  0  0  0  0  0  0  0  0  0  0
 26 27  1  0  0  0
 27 28  2  0  0  0
 27 32  1  0  0  0
 28 29  1  0  0  0
 28 33  1  0  0  0
 29 30  2  0  0  0
 29 34  1  0  0  0
 30 31  1  0  0  0
 31 32  2  0  0  0
 31 24  1  0  0  0
 24 25  2  0  0  0
 25 20  1  0  0  0
 20 21  1  0  0  0
 21 22  2  0  0  0
 21  1  1  0  0  0
  1  2  1  0  0  0
  2  3  1  0  0  0
  2  6  1  0  0  0
  3  4  2  0  0  0
  3 10  1  0  0  0
  4  5  1  0  0  0
  4  7  1  0  0  0
  5  6  2  0  0  0
  6 11  1  0  0  0
 11 12  2  0  0  0
 11 15  1  0  0  0
 12 13  1  0  0  0
 13 14  1  0  0  0
 14 15  2  0  0  0
 15 16  1  0  0  0
  7  8  2  0  0  0
  8  9  1  0  0  0
  9 10  2  0  0  0
 34 35  1  0  0  0
 35 36  1  0  0  0
 20 23  1  0  0  0
 16 17  1  0  0  0
 16 18  1  0  0  0
 16 19  1  0  0  0
M  CHG 1  16   1
M  CHG 1  33  -1
M  END
> <minimizedAffinity>
-8.99995

$$$$
17


 38 41  0  0  0  0  0  0  0  0999 V2000
    0.7144    6.5454  -13.0870 C   0  0  0  0  0  0  0  0  0  0  0  0
   -0.2657    5.7100  -13.4546 N   0  0  0  0  0  0  0  0  0  0  0  0
   -1.3345    6.3989  -13.7712 N   0  0  0  0  0  0  0  0  0  0  0  0
   -1.1089    7.7174  -13.6282 N   0  0  0  0  0  0  0  0  0  0  0  0
    0.1535    7.8313  -13.2053 C   0  0  0  0  0  0  0  0  0  0  0  0
   -2.1050    8.7139  -13.8821 C   0  0  0  0  0  0  0  0  0  0  0  0
   -2.0863   10.0222  -13.5821 N   0  0  0  0  0  0  0  0  0  0  0  0
   -3.2004   10.5749  -13.9990 O   0  0  0  0  0  0  0  0  0  0  0  0
   -3.9697    9.6795  -14.5702 N   0  0  0  0  0  0  0  0  0  0  0  0
   -3.3093    8.5091  -14.5108 C   0  0  0  0  0  0  0  0  0  0  0  0
   -3.8233    7.2945  -15.0343 N   0  0  0  0  0  0  0  0  0  0  0  0
   -4.4482    6.6517  -14.5059 H   0  0  0  0  0  0  0  0  0  0  0  0
   -3.5849    6.9862  -16.0118 H   0  0  0  0  0  0  0  0  0  0  0  0
    3.1786    6.3684  -13.5190 N   0  0  0  0  0  0  0  0  0  0  0  0
    2.0696    6.2309  -12.6544 C   0  0  0  0  0  0  0  0  0  0  0  0
    2.2555    5.8290  -11.4889 O   0  0  0  0  0  0  0  0  0  0  0  0
    3.0031    6.7113  -14.5073 H   0  0  0  0  0  0  0  0  0  0  0  0
    5.1501    5.0666  -13.5557 C   0  0  0  0  0  0  0  0  0  0  0  0
    4.4786    6.0903  -13.1759 N   0  0  0  0  0  0  0  0  0  0  0  0
    8.5799    1.6216  -11.5602 Br  0  0  0  0  0  0  0  0  0  0  0  0
    8.1493    3.3500  -12.2374 C   0  0  0  0  0  0  0  0  0  0  0  0
    9.1041    4.3563  -12.3277 C   0  0  0  0  0  0  0  0  0  0  0  0
    8.7999    5.6067  -12.8155 C   0  0  0  0  0  0  0  0  0  0  0  0
    7.5048    5.8345  -13.2156 C   0  0  0  0  0  0  0  0  0  0  0  0
    6.5271    4.8550  -13.1398 C   0  0  0  0  0  0  0  0  0  0  0  0
    6.8758    3.6176  -12.6454 C   0  0  0  0  0  0  0  0  0  0  0  0
   10.3990    4.0678  -11.9066 O   0  0  0  0  0  0  0  0  0  0  0  0
   11.1163    4.7810  -11.9607 H   0  0  0  0  0  0  0  0  0  0  0  0
    9.7948    6.5530  -12.8757 O   0  0  0  0  0  0  0  0  0  0  0  0
   10.8456    6.6057  -13.7840 C   0  0  0  0  0  0  0  0  0  0  0  0
   10.5993    5.9007  -15.0788 C   0  0  0  0  0  0  0  0  0  0  0  0
    0.9064    9.0391  -12.8624 C   0  0  0  0  0  0  0  0  0  0  0  0
    1.1811    9.9639  -13.9328 N   0  0  0  0  0  0  0  0  0  0  0  0
    2.0732   10.9653  -13.3347 C   0  0  0  0  0  0  0  0  0  0  0  0
    3.3575   10.4365  -12.8323 C   0  0  0  0  0  0  0  0  0  0  0  0
    3.7988    9.3658  -13.5944 O   0  0  0  0  0  0  0  0  0  0  0  0
    3.3970    9.5663  -14.8974 C   0  0  0  0  0  0  0  0  0  0  0  0
    1.9127    9.2737  -14.9974 C   0  0  0  0  0  0  0  0  0  0  0  0
 20 21  1  0  0  0
 21 22  2  0  0  0
 21 26  1  0  0  0
 22 23  1  0  0  0
 22 27  1  0  0  0
 23 24  2  0  0  0
 23 29  1  0  0  0
 24 25  1  0  0  0
 25 26  2  0  0  0
 25 18  1  0  0  0
 18 19  2  0  0  0
 19 14  1  0  0  0
 14 15  1  0  0  0
 15 16  2  0  0  0
 15  1  1  0  0  0
  1  2  1  0  0  0
  1  5  2  0  0  0
  2  3  2  0  0  0
  3  4  1  0  0  0
  4  5  1  0  0  0
  4  6  1  0  0  0
  5 32  1  0  0  0
 32 33  1  0  0  0
 33 34  1  0  0  0
 33 38  1  0  0  0
 34 35  1  0  0  0
 35 36  1  0  0  0
 36 37  1  0  0  0
 37 38  1  0  0  0
  6  7  2  0  0  0
  6 10  1  0  0  0
  7  8  1  0  0  0
  8  9  1  0  0  0
  9 10  2  0  0  0
 10 11  1  0  0  0
 29 30  1  0  0  0
 30 31  1  0  0  0
 14 17  1  0  0  0
 11 12  1  0  0  0
 11 13  1  0  0  0
 27 28  1  0  0  0
M  END
> <minimizedAffinity>
-7.69026

$$$$
18


 37 40  0  0  0  0  0  0  0  0999 V2000
    0.2373    7.5304  -14.1684 C   0  0  0  0  0  0  0  0  0  0  0  0
   -0.4203    6.5636  -14.7048 N   0  0  0  0  0  0  0  0  0  0  0  0
   -1.7191    6.7896  -14.6039 N   0  0  0  0  0  0  0  0  0  0  0  0
   -1.9029    7.9402  -13.9725 N   0  0  0  0  0  0  0  0  0  0  0  0
   -0.7537    8.5031  -13.6276 C   0  0  0  0  0  0  0  0  0  0  0  0
   -3.1659    8.6402  -14.0899 C   0  0  0  0  0  0  0  0  0  0  0  0
   -3.6883    9.6274  -13.4912 N   0  0  0  0  0  0  0  0  0  0  0  0
   -4.9244    9.8872  -13.9190 O   0  0  0  0  0  0  0  0  0  0  0  0
   -5.1802    9.0194  -14.8299 N   0  0  0  0  0  0  0  0  0  0  0  0
   -4.1536    8.1896  -15.0188 C   0  0  0  0  0  0  0  0  0  0  0  0
   -4.0612    7.1063  -15.9082 N   0  0  0  0  0  0  0  0  0  0  0  0
   -4.0410    6.1196  -15.5939 H   0  0  0  0  0  0  0  0  0  0  0  0
   -4.0206    7.2444  -16.9739 H   0  0  0  0  0  0  0  0  0  0  0  0
    2.5353    7.9277  -13.2450 N   0  0  0  0  0  0  0  0  0  0  0  0
    1.5670    8.0808  -14.3078 C   0  0  0  0  0  0  0  0  0  0  0  0
    1.8921    8.6111  -15.3693 O   0  0  0  0  0  0  0  0  0  0  0  0
    2.6621    7.7747  -12.3351 H   0  0  0  0  0  0  0  0  0  0  0  0
    4.4692    6.9544  -13.5035 C   0  0  0  0  0  0  0  0  0  0  0  0
    3.9187    8.0651  -14.0288 N   0  0  0  0  0  0  0  0  0  0  0  0
    5.9352    1.9740  -13.4330 Br  0  0  0  0  0  0  0  0  0  0  0  0
    6.3262    3.8644  -13.4309 C   0  0  0  0  0  0  0  0  0  0  0  0
    7.6442    4.2688  -13.4169 C   0  0  0  0  0  0  0  0  0  0  0  0
    7.9504    5.6013  -13.4358 C   0  0  0  0  0  0  0  0  0  0  0  0
    6.9100    6.5011  -13.4640 C   0  0  0  0  0  0  0  0  0  0  0  0
    5.5724    6.1488  -13.4771 C   0  0  0  0  0  0  0  0  0  0  0  0
    5.3173    4.7279  -13.4593 C   0  0  0  0  0  0  0  0  0  0  0  0
    8.6599    3.3091  -13.3826 O   0  0  0  0  0  0  0  0  0  0  0  0
    8.3824    2.3063  -13.3241 H   0  0  0  0  0  0  0  0  0  0  0  0
    9.2761    6.0511  -13.4396 O   0  0  0  0  0  0  0  0  0  0  0  0
    9.9063    6.3382  -14.7045 C   0  0  0  0  0  0  0  0  0  0  0  0
   -0.3652    9.7694  -13.0767 C   0  0  0  0  0  0  0  0  0  0  0  0
   -0.3995   10.9410  -13.9545 N   0  0  0  0  0  0  0  0  0  0  0  0
    0.8855   11.5401  -14.1134 C   0  0  0  0  0  0  0  0  0  0  0  0
    1.4326   12.1975  -12.8789 C   0  0  0  0  0  0  0  0  0  0  0  0
    0.7561   13.3832  -12.6468 O   0  0  0  0  0  0  0  0  0  0  0  0
   -0.5154   13.3486  -13.2305 C   0  0  0  0  0  0  0  0  0  0  0  0
   -1.0975   11.9829  -13.0832 C   0  0  0  0  0  0  0  0  0  0  0  0
 20 21  1  0  0  0
 21 22  2  0  0  0
 21 26  1  0  0  0
 22 23  1  0  0  0
 22 27  1  0  0  0
 23 24  2  0  0  0
 23 29  1  0  0  0
 24 25  1  0  0  0
 25 26  2  0  0  0
 25 18  1  0  0  0
 18 19  2  0  0  0
 19 14  1  0  0  0
 14 15  1  0  0  0
 15 16  2  0  0  0
 15  1  1  0  0  0
  1  2  1  0  0  0
  1  5  2  0  0  0
  2  3  2  0  0  0
  3  4  1  0  0  0
  4  5  1  0  0  0
  4  6  1  0  0  0
  5 31  1  0  0  0
 31 32  1  0  0  0
 32 33  1  0  0  0
 32 37  1  0  0  0
 33 34  1  0  0  0
 34 35  1  0  0  0
 35 36  1  0  0  0
 36 37  1  0  0  0
  6  7  2  0  0  0
  6 10  1  0  0  0
  7  8  1  0  0  0
  8  9  1  0  0  0
  9 10  2  0  0  0
 10 11  1  0  0  0
 29 30  1  0  0  0
 14 17  1  0  0  0
 11 12  1  0  0  0
 11 13  1  0  0  0
 27 28  1  0  0  0
M  END
> <minimizedAffinity>
-8.49602

$$$$
20


 34 37  0  0  0  0  0  0  0  0999 V2000
    2.3420    9.3128  -14.8055 C   0  0  0  0  0  0  0  0  0  0  0  0
    2.5931   10.5154  -14.3241 N   0  0  0  0  0  0  0  0  0  0  0  0
    1.6500   11.1983  -13.6142 C   0  0  0  0  0  0  0  0  0  0  0  0
    0.4663   10.5632  -13.4433 N   0  0  0  0  0  0  0  0  0  0  0  0
    0.1530    9.3403  -13.9113 C   0  0  0  0  0  0  0  0  0  0  0  0
    1.1319    8.7218  -14.6096 N   0  0  0  0  0  0  0  0  0  0  0  0
   -1.0224    8.6945  -13.5701 N   0  0  0  0  0  0  0  0  0  0  0  0
   -1.3267    7.3162  -13.5459 C   0  0  0  0  0  0  0  0  0  0  0  0
   -2.4551    7.1000  -14.5585 C   0  0  0  0  0  0  0  0  0  0  0  0
   -3.4884    7.9448  -14.2186 O   0  0  0  0  0  0  0  0  0  0  0  0
   -3.1958    9.2888  -14.2542 C   0  0  0  0  0  0  0  0  0  0  0  0
   -2.1376    9.5978  -13.1564 C   0  0  0  0  0  0  0  0  0  0  0  0
    1.9080   12.4506  -13.0083 N   0  0  0  0  0  0  0  0  0  0  0  0
    3.2845   12.7994  -12.6217 C   0  0  0  0  0  0  0  0  0  0  0  0
    3.1617   13.3630  -11.1825 C   0  0  0  0  0  0  0  0  0  0  0  0
    2.4843   14.5390  -11.3340 O   0  0  0  0  0  0  0  0  0  0  0  0
    1.1717   14.3837  -11.6817 C   0  0  0  0  0  0  0  0  0  0  0  0
    0.8681   13.3652  -12.7309 C   0  0  0  0  0  0  0  0  0  0  0  0
    3.3648    8.4198  -15.3978 N   0  0  0  0  0  0  0  0  0  0  0  0
    3.1801    8.1173  -16.3342 H   0  0  0  0  0  0  0  0  0  0  0  0
    5.1947    8.0668  -13.7773 C   0  0  0  0  0  0  0  0  0  0  0  0
    4.3362    8.2229  -14.5429 N   0  0  0  0  0  0  0  0  0  0  0  0
   10.1649    6.3279  -14.3589 Br  0  0  0  0  0  0  0  0  0  0  0  0
    8.3225    6.0418  -13.9061 C   0  0  0  0  0  0  0  0  0  0  0  0
    7.8845    4.7744  -13.6379 C   0  0  0  0  0  0  0  0  0  0  0  0
    6.5425    4.5670  -13.3256 C   0  0  0  0  0  0  0  0  0  0  0  0
    5.6612    5.6385  -13.2919 C   0  0  0  0  0  0  0  0  0  0  0  0
    6.0845    6.9063  -13.5671 C   0  0  0  0  0  0  0  0  0  0  0  0
    7.4169    7.0794  -13.8676 C   0  0  0  0  0  0  0  0  0  0  0  0
    8.7963    3.7415  -13.6886 O   0  0  0  0  0  0  0  0  0  0  0  0
    9.7525    3.8533  -13.9254 H   0  0  0  0  0  0  0  0  0  0  0  0
    6.1953    3.2782  -13.0655 O   0  0  0  0  0  0  0  0  0  0  0  0
    5.6436    2.3250  -13.9026 C   0  0  0  0  0  0  0  0  0  0  0  0
    4.1222    2.3526  -13.9083 C   0  0  0  0  0  0  0  0  0  0  0  0
 23 24  1  0  0  0
 24 25  2  0  0  0
 24 29  1  0  0  0
 25 26  1  0  0  0
 25 30  1  0  0  0
 26 27  2  0  0  0
 26 32  1  0  0  0
 27 28  1  0  0  0
 28 29  2  0  0  0
 28 21  1  0  0  0
 21 22  2  0  0  0
 22 19  1  0  0  0
 19  1  1  0  0  0
  1  2  2  0  0  0
  1  6  1  0  0  0
  2  3  1  0  0  0
  3  4  2  0  0  0
  3 13  1  0  0  0
  4  5  1  0  0  0
  5  6  2  0  0  0
  5  7  1  0  0  0
  7  8  1  0  0  0
  7 12  1  0  0  0
  8  9  1  0  0  0
  9 10  1  0  0  0
 10 11  1  0  0  0
 11 12  1  0  0  0
 13 14  1  0  0  0
 13 18  1  0  0  0
 14 15  1  0  0  0
 15 16  1  0  0  0
 16 17  1  0  0  0
 17 18  1  0  0  0
 32 33  1  0  0  0
 33 34  1  0  0  0
 19 20  1  0  0  0
 30 31  1  0  0  0
M  END
> <minimizedAffinity>
-8.80204

$$$$
23


 37 40  0  0  0  0  0  0  0  0999 V2000
    2.4840    7.4785  -13.7959 C   0  0  0  0  0  0  0  0  0  0  0  0
    1.4768    6.8067  -13.0019 N   0  0  0  0  0  0  0  0  0  0  0  0
    1.1604    7.5336  -11.8495 C   0  0  0  0  0  0  0  0  0  0  0  0
    0.4312    7.1548  -10.9207 O   0  0  0  0  0  0  0  0  0  0  0  0
    1.8475    8.8226  -11.9363 C   0  0  0  0  0  0  0  0  0  0  0  0
    1.7603    9.6998  -11.0392 O   0  0  0  0  0  0  0  0  0  0  0  0
    2.5863    8.8522  -13.1804 C   0  0  0  0  0  0  0  0  0  0  0  0
    3.2515    9.8782  -13.6383 C   0  0  0  0  0  0  0  0  0  0  0  0
    3.9736    9.7571  -14.8147 O   0  0  0  0  0  0  0  0  0  0  0  0
    3.2574   11.1518  -12.9613 C   0  0  0  0  0  0  0  0  0  0  0  0
    2.0714   11.8870  -13.0855 C   0  0  0  0  0  0  0  0  0  0  0  0
    1.9216   13.1019  -12.4637 C   0  0  0  0  0  0  0  0  0  0  0  0
    2.9448   13.6194  -11.7041 C   0  0  0  0  0  0  0  0  0  0  0  0
    4.1054   12.8760  -11.5971 C   0  0  0  0  0  0  0  0  0  0  0  0
    4.2734   11.6544  -12.2124 C   0  0  0  0  0  0  0  0  0  0  0  0
    2.5229   14.8635  -11.1905 O   0  0  0  0  0  0  0  0  0  0  0  0
    1.3942   15.3003  -11.9410 C   0  0  0  0  0  0  0  0  0  0  0  0
    0.7531   14.0400  -12.4745 C   0  0  0  0  0  0  0  0  0  0  0  0
    1.7968   16.1498  -13.1318 C   0  0  0  0  0  0  0  0  0  0  0  0
    7.8272    7.1690  -13.9705 Br  0  0  0  0  0  0  0  0  0  0  0  0
    6.0959    6.4590  -13.6640 C   0  0  0  0  0  0  0  0  0  0  0  0
    5.9748    5.1240  -13.2524 C   0  0  0  0  0  0  0  0  0  0  0  0
    4.7069    4.6031  -13.0286 C   0  0  0  0  0  0  0  0  0  0  0  0
    3.6315    5.4053  -13.2164 C   0  0  0  0  0  0  0  0  0  0  0  0
    3.7531    6.7244  -13.6233 C   0  0  0  0  0  0  0  0  0  0  0  0
    4.9930    7.2675  -13.8526 C   0  0  0  0  0  0  0  0  0  0  0  0
    7.0728    4.3229  -13.0656 O   0  0  0  0  0  0  0  0  0  0  0  0
    6.9658    3.3821  -12.7763 H   0  0  0  0  0  0  0  0  0  0  0  0
    4.5809    3.2734  -12.6180 O   0  0  0  0  0  0  0  0  0  0  0  0
    4.1011    2.2539  -13.4517 C   0  0  0  0  0  0  0  0  0  0  0  0
    0.9179    5.5357  -13.4140 C   0  0  0  0  0  0  0  0  0  0  0  0
   -0.4617    5.5555  -13.9213 C   0  0  0  0  0  0  0  0  0  0  0  0
   -0.9568    6.8040  -14.5516 C   0  0  0  0  0  0  0  0  0  0  0  0
   -2.0791    7.4058  -13.8746 N   0  0  0  0  0  0  0  0  0  0  0  0
   -3.2372    7.4086  -14.7801 C   0  0  0  0  0  0  0  0  0  0  0  0
   -1.7348    8.7933  -13.6218 C   0  0  0  0  0  0  0  0  0  0  0  0
   -2.3263    6.9809  -12.9767 H   0  0  0  0  0  0  0  0  0  0  0  0
 20 21  1  0  0  0
 21 22  2  0  0  0
 21 26  1  0  0  0
 22 23  1  0  0  0
 22 27  1  0  0  0
 23 24  2  0  0  0
 23 29  1  0  0  0
 24 25  1  0  0  0
 25 26  2  0  0  0
 25  1  1  0  0  0
  1  2  1  0  0  0
  1  7  1  0  0  0
  2  3  1  0  0  0
  2 31  1  0  0  0
  3  4  2  0  0  0
  3  5  1  0  0  0
  5  6  2  0  0  0
  5  7  1  0  0  0
  7  8  2  0  0  0
  8  9  1  0  0  0
  8 10  1  0  0  0
 10 11  2  0  0  0
 10 15  1  0  0  0
 11 12  1  0  0  0
 12 13  2  0  0  0
 12 18  1  0  0  0
 13 14  1  0  0  0
 13 16  1  0  0  0
 14 15  2  0  0  0
 16 17  1  0  0  0
 17 18  1  0  0  0
 17 19  1  0  0  0
 31 32  1  0  0  0
 32 33  1  0  0  0
 33 34  1  0  0  0
 34 35  1  0  0  0
 34 36  1  0  0  0
 29 30  1  0  0  0
 34 37  1  0  0  0
 27 28  1  0  0  0
M  CHG 1   9  -1
M  CHG 1  34   1
M  END
> <minimizedAffinity>
-7.59647

$$$$
26


 29 32  0  0  0  0  0  0  0  0999 V2000
    3.3556    9.3079  -14.6931 C   0  0  0  0  0  0  0  0  0  0  0  0
    4.0471   10.4340  -14.2195 N   0  0  0  0  0  0  0  0  0  0  0  0
    3.3222   11.5436  -13.7290 C   0  0  0  0  0  0  0  0  0  0  0  0
    1.8898   11.6323  -14.1816 C   0  0  0  0  0  0  0  0  0  0  0  0
    1.1974   10.3247  -14.0936 C   0  0  0  0  0  0  0  0  0  0  0  0
   -0.0937    9.9812  -13.7961 C   0  0  0  0  0  0  0  0  0  0  0  0
   -0.1239    8.5999  -13.8755 C   0  0  0  0  0  0  0  0  0  0  0  0
    1.1138    8.1475  -14.2103 N   0  0  0  0  0  0  0  0  0  0  0  0
    1.9272    9.2033  -14.3453 C   0  0  0  0  0  0  0  0  0  0  0  0
   -1.3319    7.9888  -13.6155 C   0  0  0  0  0  0  0  0  0  0  0  0
   -2.4574    8.7161  -13.2913 C   0  0  0  0  0  0  0  0  0  0  0  0
   -2.4254   10.0932  -13.2123 C   0  0  0  0  0  0  0  0  0  0  0  0
   -1.2195   10.7236  -13.4713 C   0  0  0  0  0  0  0  0  0  0  0  0
    4.7758   10.1731  -13.4946 H   0  0  0  0  0  0  0  0  0  0  0  0
    4.6678   10.7895  -15.0160 H   0  0  0  0  0  0  0  0  0  0  0  0
    1.3021    7.1275  -14.3218 H   0  0  0  0  0  0  0  0  0  0  0  0
    7.9713    6.7358  -14.0090 Br  0  0  0  0  0  0  0  0  0  0  0  0
    6.0823    6.8626  -13.8381 C   0  0  0  0  0  0  0  0  0  0  0  0
    5.3757    5.8408  -13.2508 C   0  0  0  0  0  0  0  0  0  0  0  0
    4.0064    5.9605  -13.1400 C   0  0  0  0  0  0  0  0  0  0  0  0
    3.2939    7.0520  -13.5871 C   0  0  0  0  0  0  0  0  0  0  0  0
    4.0095    8.0734  -14.1747 C   0  0  0  0  0  0  0  0  0  0  0  0
    5.3783    7.9796  -14.2981 C   0  0  0  0  0  0  0  0  0  0  0  0
    3.0473    4.5304  -12.3228 Br  0  0  0  0  0  0  0  0  0  0  0  0
    6.0306    4.6899  -12.7680 O   0  0  0  0  0  0  0  0  0  0  0  0
    7.0347    4.6434  -12.8700 H   0  0  0  0  0  0  0  0  0  0  0  0
    3.3188   11.6191  -12.2420 C   0  0  0  0  0  0  0  0  0  0  0  0
    2.8226   10.6531  -11.5678 O   0  0  0  0  0  0  0  0  0  0  0  0
    3.8482   12.7321  -11.6094 O   0  0  0  0  0  0  0  0  0  0  0  0
 17 18  1  0  0  0
 18 19  2  0  0  0
 18 23  1  0  0  0
 19 20  1  0  0  0
 19 25  1  0  0  0
 20 21  2  0  0  0
 20 24  1  0  0  0
 21 22  1  0  0  0
 22 23  2  0  0  0
 22  1  1  0  0  0
  1  2  1  0  0  0
  1  9  1  0  0  0
  2  3  1  0  0  0
  3  4  1  0  0  0
  3 27  1  0  0  0
  4  5  1  0  0  0
  5  6  1  0  0  0
  5  9  2  0  0  0
  6  7  2  0  0  0
  6 13  1  0  0  0
  7  8  1  0  0  0
  7 10  1  0  0  0
  8  9  1  0  0  0
 10 11  2  0  0  0
 11 12  1  0  0  0
 12 13  2  0  0  0
 27 28  2  0  0  0
 27 29  1  0  0  0
  2 14  1  0  0  0
  2 15  1  0  0  0
  8 16  1  0  0  0
 25 26  1  0  0  0
M  CHG 1   2   1
M  END
> <minimizedAffinity>
-8.34882

$$$$
31


 24 27  0  0  0  0  0  0  0  0999 V2000
    1.8571   14.9402  -10.9154 Br  0  0  0  0  0  0  0  0  0  0  0  0
    2.4065   13.5198  -12.0860 C   0  0  0  0  0  0  0  0  0  0  0  0
    1.5023   12.7434  -12.7188 C   0  0  0  0  0  0  0  0  0  0  0  0
    1.9225   11.6526  -13.5346 C   0  0  0  0  0  0  0  0  0  0  0  0
    3.2505   11.4231  -13.6414 C   0  0  0  0  0  0  0  0  0  0  0  0
    4.1593   12.2223  -12.9759 C   0  0  0  0  0  0  0  0  0  0  0  0
    3.7566   13.2677  -12.2026 C   0  0  0  0  0  0  0  0  0  0  0  0
    0.8415   10.6864  -13.8109 C   0  0  0  0  0  0  0  0  0  0  0  0
    0.8886    9.3693  -13.3234 N   0  0  0  0  0  0  0  0  0  0  0  0
    1.6083    9.0265  -12.2023 C   0  0  0  0  0  0  0  0  0  0  0  0
    1.3955    7.6341  -11.8142 N   0  0  0  0  0  0  0  0  0  0  0  0
    1.7875    6.8019  -12.9397 C   0  0  0  0  0  0  0  0  0  0  0  0
    1.0783    7.1539  -14.1524 N   0  0  0  0  0  0  0  0  0  0  0  0
    1.2106    8.5095  -14.5136 C   0  0  0  0  0  0  0  0  0  0  0  0
   -0.3190    6.8222  -13.9660 C   0  0  0  0  0  0  0  0  0  0  0  0
   -0.7901    7.6269  -12.7807 C   0  0  0  0  0  0  0  0  0  0  0  0
   -0.5657    9.0605  -13.0908 C   0  0  0  0  0  0  0  0  0  0  0  0
    0.0175    7.3248  -11.5213 C   0  0  0  0  0  0  0  0  0  0  0  0
    0.1778   12.9722  -12.6015 O   0  0  0  0  0  0  0  0  0  0  0  0
   -0.5938   13.7260  -13.5583 C   0  0  0  0  0  0  0  0  0  0  0  0
   -0.4728   15.1808  -13.5189 C   0  0  0  0  0  0  0  0  0  0  0  0
    0.3888   15.8334  -14.0906 O   0  0  0  0  0  0  0  0  0  0  0  0
   -1.4417   15.8850  -12.7951 O   0  0  0  0  0  0  0  0  0  0  0  0
   -1.9537   17.1248  -13.2052 C   0  0  0  0  0  0  0  0  0  0  0  0
  1  2  1  0  0  0
  2  3  2  0  0  0
  2  7  1  0  0  0
  3  4  1  0  0  0
  3 19  1  0  0  0
  4  5  2  0  0  0
  4  8  1  0  0  0
  5  6  1  0  0  0
  6  7  2  0  0  0
  8  9  1  0  0  0
  9 10  1  0  0  0
  9 14  1  0  0  0
  9 17  1  0  0  0
 10 11  1  0  0  0
 11 12  1  0  0  0
 11 18  1  0  0  0
 12 13  1  0  0  0
 13 14  1  0  0  0
 13 15  1  0  0  0
 15 16  1  0  0  0
 16 17  1  0  0  0
 16 18  1  0  0  0
 19 20  1  0  0  0
 20 21  1  0  0  0
 21 22  2  0  0  0
 21 23  1  0  0  0
 23 24  1  0  0  0
M  CHG 1   9   1
M  END
> <minimizedAffinity>
-6.81575

$$$$
33


 33 36  0  0  0  0  0  0  0  0999 V2000
    2.0861    9.7144  -14.7028 C   0  0  0  0  0  0  0  0  0  0  0  0
    1.9487   10.9320  -14.2027 N   0  0  0  0  0  0  0  0  0  0  0  0
    0.8998   11.3340  -13.4640 C   0  0  0  0  0  0  0  0  0  0  0  0
   -0.0633   10.4162  -13.2303 N   0  0  0  0  0  0  0  0  0  0  0  0
    0.0211    9.1488  -13.7162 C   0  0  0  0  0  0  0  0  0  0  0  0
    1.1098    8.8161  -14.4533 N   0  0  0  0  0  0  0  0  0  0  0  0
   -0.9989    8.2059  -13.4780 N   0  0  0  0  0  0  0  0  0  0  0  0
   -2.3590    8.4544  -13.8817 C   0  0  0  0  0  0  0  0  0  0  0  0
   -2.7646    7.2294  -14.7144 C   0  0  0  0  0  0  0  0  0  0  0  0
   -2.5148    6.0867  -13.9819 O   0  0  0  0  0  0  0  0  0  0  0  0
   -1.1421    5.8791  -13.8534 C   0  0  0  0  0  0  0  0  0  0  0  0
   -0.6886    6.9518  -12.8399 C   0  0  0  0  0  0  0  0  0  0  0  0
    0.7926   12.6702  -12.9456 N   0  0  0  0  0  0  0  0  0  0  0  0
    1.9310   13.3543  -12.4016 C   0  0  0  0  0  0  0  0  0  0  0  0
    1.7719   14.7998  -12.1325 C   0  0  0  0  0  0  0  0  0  0  0  0
    0.4557   15.2383  -12.0921 O   0  0  0  0  0  0  0  0  0  0  0  0
   -0.2780   14.7916  -13.1825 C   0  0  0  0  0  0  0  0  0  0  0  0
   -0.4893   13.3103  -12.9862 C   0  0  0  0  0  0  0  0  0  0  0  0
    3.2172    9.3894  -15.5014 N   0  0  0  0  0  0  0  0  0  0  0  0
    3.4216    9.9494  -16.3374 H   0  0  0  0  0  0  0  0  0  0  0  0
    4.8967    8.3554  -14.2004 C   0  0  0  0  0  0  0  0  0  0  0  0
    4.0372    8.3269  -15.1601 N   0  0  0  0  0  0  0  0  0  0  0  0
    9.7418    6.0558  -14.0382 Br  0  0  0  0  0  0  0  0  0  0  0  0
    7.8638    6.0679  -13.7418 C   0  0  0  0  0  0  0  0  0  0  0  0
    7.2819    4.9401  -13.1846 C   0  0  0  0  0  0  0  0  0  0  0  0
    5.9151    4.9708  -12.9841 C   0  0  0  0  0  0  0  0  0  0  0  0
    5.1721    6.0714  -13.3245 C   0  0  0  0  0  0  0  0  0  0  0  0
    5.7356    7.2178  -13.8841 C   0  0  0  0  0  0  0  0  0  0  0  0
    7.0989    7.1690  -14.0771 C   0  0  0  0  0  0  0  0  0  0  0  0
    3.7885    6.0950  -13.1202 O   0  0  0  0  0  0  0  0  0  0  0  0
    8.0271    3.8159  -12.8357 O   0  0  0  0  0  0  0  0  0  0  0  0
    3.3486    5.2741  -12.7152 H   0  0  0  0  0  0  0  0  0  0  0  0
    9.0263    3.7462  -12.9564 H   0  0  0  0  0  0  0  0  0  0  0  0
 23 24  1  0  0  0
 24 25  2  0  0  0
 24 29  1  0  0  0
 25 26  1  0  0  0
 25 31  1  0  0  0
 26 27  2  0  0  0
 27 28  1  0  0  0
 27 30  1  0  0  0
 28 29  2  0  0  0
 28 21  1  0  0  0
 21 22  2  0  0  0
 22 19  1  0  0  0
 19  1  1  0  0  0
  1  2  2  0  0  0
  1  6  1  0  0  0
  2  3  1  0  0  0
  3  4  2  0  0  0
  3 13  1  0  0  0
  4  5  1  0  0  0
  5  6  2  0  0  0
  5  7  1  0  0  0
  7  8  1  0  0  0
  7 12  1  0  0  0
  8  9  1  0  0  0
  9 10  1  0  0  0
 10 11  1  0  0  0
 11 12  1  0  0  0
 13 14  1  0  0  0
 13 18  1  0  0  0
 14 15  1  0  0  0
 15 16  1  0  0  0
 16 17  1  0  0  0
 17 18  1  0  0  0
 19 20  1  0  0  0
 30 32  1  0  0  0
 31 33  1  0  0  0
M  END
> <minimizedAffinity>
-8.76690

$$$$
35


 33 36  0  0  0  0  0  0  0  0999 V2000
   -2.9088    9.8056  -13.2218 C   0  0  0  0  0  0  0  0  0  0  0  0
   -2.1544    8.7078  -13.3276 N   0  0  0  0  0  0  0  0  0  0  0  0
   -0.8044    8.7677  -13.4787 C   0  0  0  0  0  0  0  0  0  0  0  0
   -0.2120    9.9714  -13.5236 N   0  0  0  0  0  0  0  0  0  0  0  0
   -0.9412   11.0925  -13.4200 C   0  0  0  0  0  0  0  0  0  0  0  0
   -2.2955   10.9920  -13.2693 N   0  0  0  0  0  0  0  0  0  0  0  0
   -0.3194   12.3763  -13.4688 N   0  0  0  0  0  0  0  0  0  0  0  0
    1.1095   12.5725  -13.4177 C   0  0  0  0  0  0  0  0  0  0  0  0
    1.4655   13.6853  -12.4551 C   0  0  0  0  0  0  0  0  0  0  0  0
    0.3500   14.2329  -11.8396 O   0  0  0  0  0  0  0  0  0  0  0  0
   -0.5275   14.7144  -12.8305 C   0  0  0  0  0  0  0  0  0  0  0  0
   -1.1602   13.5521  -13.5700 C   0  0  0  0  0  0  0  0  0  0  0  0
   -0.1039    7.5490  -13.5847 N   0  0  0  0  0  0  0  0  0  0  0  0
    1.2873    7.5648  -13.9488 C   0  0  0  0  0  0  0  0  0  0  0  0
    2.0092    6.8215  -12.8139 C   0  0  0  0  0  0  0  0  0  0  0  0
    1.4983    5.5233  -12.8373 O   0  0  0  0  0  0  0  0  0  0  0  0
    0.1692    5.4767  -12.4303 C   0  0  0  0  0  0  0  0  0  0  0  0
   -0.7385    6.2760  -13.3433 C   0  0  0  0  0  0  0  0  0  0  0  0
   -4.3032    9.6739  -13.0586 N   0  0  0  0  0  0  0  0  0  0  0  0
   -4.6503    9.0802  -12.2769 H   0  0  0  0  0  0  0  0  0  0  0  0
   -6.4967   10.2526  -13.7028 C   0  0  0  0  0  0  0  0  0  0  0  0
   -5.2255   10.3260  -13.9233 N   0  0  0  0  0  0  0  0  0  0  0  0
   -7.6184   12.8286  -12.4907 Br  0  0  0  0  0  0  0  0  0  0  0  0
   -8.1361   12.0427  -14.1486 C   0  0  0  0  0  0  0  0  0  0  0  0
   -9.1099   12.6350  -14.9322 C   0  0  0  0  0  0  0  0  0  0  0  0
   -9.4682   12.0431  -16.1338 C   0  0  0  0  0  0  0  0  0  0  0  0
   -8.8532   10.8760  -16.5281 C   0  0  0  0  0  0  0  0  0  0  0  0
   -7.8817   10.3127  -15.7147 C   0  0  0  0  0  0  0  0  0  0  0  0
   -7.5070   10.8781  -14.5201 C   0  0  0  0  0  0  0  0  0  0  0  0
   -9.2424   10.3175  -17.7354 O   0  0  0  0  0  0  0  0  0  0  0  0
   -9.7251   13.8067  -14.5316 O   0  0  0  0  0  0  0  0  0  0  0  0
   -8.8133   10.5308  -18.6255 H   0  0  0  0  0  0  0  0  0  0  0  0
   -9.4442   14.2181  -13.6511 H   0  0  0  0  0  0  0  0  0  0  0  0
 23 24  1  0  0  0
 24 25  2  0  0  0
 24 29  1  0  0  0
 25 26  1  0  0  0
 25 31  1  0  0  0
 26 27  2  0  0  0
 27 28  1  0  0  0
 27 30  1  0  0  0
 28 29  2  0  0  0
 29 21  1  0  0  0
 21 22  2  0  0  0
 22 19  1  0  0  0
 19  1  1  0  0  0
  1  2  2  0  0  0
  1  6  1  0  0  0
  2  3  1  0  0  0
  3  4  2  0  0  0
  3 13  1  0  0  0
  4  5  1  0  0  0
  5  6  2  0  0  0
  5  7  1  0  0  0
  7  8  1  0  0  0
  7 12  1  0  0  0
  8  9  1  0  0  0
  9 10  1  0  0  0
 10 11  1  0  0  0
 11 12  1  0  0  0
 13 14  1  0  0  0
 13 18  1  0  0  0
 14 15  1  0  0  0
 15 16  1  0  0  0
 16 17  1  0  0  0
 17 18  1  0  0  0
 19 20  1  0  0  0
 30 32  1  0  0  0
 31 33  1  0  0  0
M  END
> <minimizedAffinity>
-8.46357

$$$$
37


 27 30  0  0  0  0  0  0  0  0999 V2000
   -1.6785    9.3615  -13.7185 N   0  0  0  0  0  0  0  0  0  0  0  0
   -2.9461    9.9574  -13.3680 C   0  0  0  0  0  0  0  0  0  0  0  0
   -3.8799    9.3111  -14.3680 C   0  0  0  0  0  0  0  0  0  0  0  0
   -3.4382    7.8605  -14.2869 C   0  0  0  0  0  0  0  0  0  0  0  0
   -1.9673    8.0589  -14.1930 C   0  0  0  0  0  0  0  0  0  0  0  0
   -1.1192    7.1920  -14.4930 O   0  0  0  0  0  0  0  0  0  0  0  0
    3.6839   12.2620  -13.1176 Br  0  0  0  0  0  0  0  0  0  0  0  0
    2.0094   11.3711  -13.3055 C   0  0  0  0  0  0  0  0  0  0  0  0
    1.9997    9.9828  -13.3703 C   0  0  0  0  0  0  0  0  0  0  0  0
    0.7856    9.3666  -13.5031 C   0  0  0  0  0  0  0  0  0  0  0  0
   -0.4261   10.0186  -13.5784 C   0  0  0  0  0  0  0  0  0  0  0  0
   -0.3725   11.4131  -13.5095 C   0  0  0  0  0  0  0  0  0  0  0  0
    0.8285   12.0816  -13.3753 C   0  0  0  0  0  0  0  0  0  0  0  0
    3.2904    9.2459  -13.2937 C   0  0  0  0  0  0  0  0  0  0  0  0
   -5.2997    9.4771  -13.9931 C   0  0  0  0  0  0  0  0  0  0  0  0
   -5.9217    8.5747  -13.3832 O   0  0  0  0  0  0  0  0  0  0  0  0
   -5.9601   10.6768  -14.3307 N   0  0  0  0  0  0  0  0  0  0  0  0
   -5.4549   11.4265  -14.8355 H   0  0  0  0  0  0  0  0  0  0  0  0
   -7.3444   10.8828  -13.9818 C   0  0  0  0  0  0  0  0  0  0  0  0
   -8.1941   11.0079  -15.1992 C   0  0  0  0  0  0  0  0  0  0  0  0
   -9.0336   12.0222  -15.5264 N   0  0  0  0  0  0  0  0  0  0  0  0
   -9.6142   11.7573  -16.7087 C   0  0  0  0  0  0  0  0  0  0  0  0
   -9.1085   10.5583  -17.0949 N   0  0  0  0  0  0  0  0  0  0  0  0
   -8.2597   10.1080  -16.1935 N   0  0  0  0  0  0  0  0  0  0  0  0
  -10.5513   12.8604  -17.1020 C   0  0  0  0  0  0  0  0  0  0  0  0
  -10.7157   13.6170  -15.8027 C   0  0  0  0  0  0  0  0  0  0  0  0
   -9.4855   13.2901  -14.9824 C   0  0  0  0  0  0  0  0  0  0  0  0
  7  8  1  0  0  0
  8  9  2  0  0  0
  8 13  1  0  0  0
  9 10  1  0  0  0
  9 14  1  0  0  0
 10 11  2  0  0  0
 11 12  1  0  0  0
 11  1  1  0  0  0
 12 13  2  0  0  0
  1  2  1  0  0  0
  1  5  1  0  0  0
  2  3  1  0  0  0
  3  4  1  0  0  0
  3 15  1  0  0  0
  4  5  1  0  0  0
  5  6  2  0  0  0
 15 16  2  0  0  0
 15 17  1  0  0  0
 17 19  1  0  0  0
 19 20  1  0  0  0
 20 21  1  0  0  0
 20 24  2  0  0  0
 21 22  1  0  0  0
 21 27  1  0  0  0
 22 23  2  0  0  0
 22 25  1  0  0  0
 23 24  1  0  0  0
 25 26  1  0  0  0
 26 27  1  0  0  0
 17 18  1  0  0  0
M  END
> <minimizedAffinity>
-10.26179

$$$$
39


 21 23  0  0  0  0  0  0  0  0999 V2000
   -0.8747    8.1727  -13.9630 N   0  0  0  0  0  0  0  0  0  0  0  0
   -0.1024    7.7436  -12.8824 C   0  0  0  0  0  0  0  0  0  0  0  0
   -0.5360    7.7798  -11.7221 O   0  0  0  0  0  0  0  0  0  0  0  0
   -0.4147    8.1021  -14.9194 H   0  0  0  0  0  0  0  0  0  0  0  0
   -2.7835    6.2421  -15.2536 Br  0  0  0  0  0  0  0  0  0  0  0  0
   -3.2474    7.9522  -14.5085 C   0  0  0  0  0  0  0  0  0  0  0  0
   -2.1907    8.6898  -13.9553 C   0  0  0  0  0  0  0  0  0  0  0  0
   -2.5514    9.9119  -13.4290 C   0  0  0  0  0  0  0  0  0  0  0  0
   -3.8735   10.3623  -13.4537 C   0  0  0  0  0  0  0  0  0  0  0  0
   -4.8921    9.6216  -14.0016 C   0  0  0  0  0  0  0  0  0  0  0  0
   -4.5451    8.4016  -14.5303 C   0  0  0  0  0  0  0  0  0  0  0  0
   -6.3007   10.1209  -14.0196 C   0  0  0  0  0  0  0  0  0  0  0  0
    1.2605    7.2364  -13.1352 C   0  0  0  0  0  0  0  0  0  0  0  0
    2.1912    8.1815  -13.6607 N   0  0  0  0  0  0  0  0  0  0  0  0
    3.5252    7.5631  -13.6124 C   0  0  0  0  0  0  0  0  0  0  0  0
    4.3714    8.2496  -14.6558 C   0  0  0  0  0  0  0  0  0  0  0  0
    4.0053    9.6645  -14.6030 N   0  0  0  0  0  0  0  0  0  0  0  0
    2.7712    9.7770  -15.3747 C   0  0  0  0  0  0  0  0  0  0  0  0
    1.8964    8.5786  -15.0349 C   0  0  0  0  0  0  0  0  0  0  0  0
    3.6757   10.0204  -13.2319 C   0  0  0  0  0  0  0  0  0  0  0  0
    2.3115    9.4003  -12.8870 C   0  0  0  0  0  0  0  0  0  0  0  0
  5  6  1  0  0  0
  6  7  2  0  0  0
  6 11  1  0  0  0
  7  8  1  0  0  0
  7  1  1  0  0  0
  8  9  2  0  0  0
  9 10  1  0  0  0
 10 11  2  0  0  0
 10 12  1  0  0  0
  1  2  1  0  0  0
  2  3  2  0  0  0
  2 13  1  0  0  0
 13 14  1  0  0  0
 14 15  1  0  0  0
 14 19  1  0  0  0
 14 21  1  0  0  0
 15 16  1  0  0  0
 16 17  1  0  0  0
 17 18  1  0  0  0
 17 20  1  0  0  0
 18 19  1  0  0  0
 20 21  1  0  0  0
  1  4  1  0  0  0
M  CHG 1  14   1
M  END
> <minimizedAffinity>
-7.18298

$$$$
56


 24 27  0  0  0  0  0  0  0  0999 V2000
    0.7794    8.2940  -14.3221 C   0  0  0  0  0  0  0  0  0  0  0  0
    1.8873    9.1426  -14.3530 C   0  0  0  0  0  0  0  0  0  0  0  0
    2.7694    9.8323  -13.3723 C   0  0  0  0  0  0  0  0  0  0  0  0
    3.8068    8.7704  -13.3874 N   0  0  0  0  0  0  0  0  0  0  0  0
    3.2009    7.6253  -13.4275 C   0  0  0  0  0  0  0  0  0  0  0  0
    1.7961    7.8887  -13.4300 C   0  0  0  0  0  0  0  0  0  0  0  0
    3.8443    6.3317  -13.4629 N   0  0  0  0  0  0  0  0  0  0  0  0
    3.2840   10.9810  -13.9835 O   0  0  0  0  0  0  0  0  0  0  0  0
    3.0668   12.0330  -13.1151 C   0  0  0  0  0  0  0  0  0  0  0  0
    2.9878   11.3312  -11.7698 C   0  0  0  0  0  0  0  0  0  0  0  0
    2.2951   10.1605  -12.1666 O   0  0  0  0  0  0  0  0  0  0  0  0
    4.7232    6.1554  -12.9399 H   0  0  0  0  0  0  0  0  0  0  0  0
    3.4379    5.5530  -14.0138 H   0  0  0  0  0  0  0  0  0  0  0  0
   -1.6153    6.2213  -13.9505 Br  0  0  0  0  0  0  0  0  0  0  0  0
   -1.6259    8.1077  -13.6590 C   0  0  0  0  0  0  0  0  0  0  0  0
   -0.5064    8.8757  -13.8569 C   0  0  0  0  0  0  0  0  0  0  0  0
   -0.5495   10.2308  -13.6301 C   0  0  0  0  0  0  0  0  0  0  0  0
   -1.7113   10.8580  -13.2010 C   0  0  0  0  0  0  0  0  0  0  0  0
   -2.8442   10.1079  -12.9961 C   0  0  0  0  0  0  0  0  0  0  0  0
   -2.7908    8.7292  -13.2295 C   0  0  0  0  0  0  0  0  0  0  0  0
    1.3801    8.1112  -12.0126 C   0  0  0  0  0  0  0  0  0  0  0  0
    1.0519    8.2610  -10.8855 N   0  0  0  0  0  0  0  0  0  0  0  0
    2.7182    8.9526  -15.5954 C   0  0  0  0  0  0  0  0  0  0  0  0
    3.3517    8.7975  -16.5804 N   0  0  0  0  0  0  0  0  0  0  0  0
 14 15  1  0  0  0
 15 16  2  0  0  0
 15 20  1  0  0  0
 16 17  1  0  0  0
 16  1  1  0  0  0
 17 18  2  0  0  0
 18 19  1  0  0  0
 19 20  2  0  0  0
  1  2  1  0  0  0
  1  6  1  0  0  0
  2  3  1  0  0  0
  2  6  1  0  0  0
  2 23  1  0  0  0
  3  4  1  0  0  0
  3  8  1  0  0  0
  3 11  1  0  0  0
  4  5  2  0  0  0
  5  6  1  0  0  0
  5  7  1  0  0  0
  6 21  1  0  0  0
 21 22  3  0  0  0
  8  9  1  0  0  0
  9 10  1  0  0  0
 10 11  1  0  0  0
 23 24  3  0  0  0
  7 12  1  0  0  0
  7 13  1  0  0  0
M  END
> <minimizedAffinity>
-5.10627

$$$$
64


 22 25  0  0  0  0  0  0  0  0999 V2000
   -0.2179    8.6313  -13.3405 N   0  0  0  0  0  0  0  0  0  0  0  0
    0.3468    9.9223  -13.5031 C   0  0  0  0  0  0  0  0  0  0  0  0
   -0.1611   10.8285  -14.1870 O   0  0  0  0  0  0  0  0  0  0  0  0
    1.6171   10.0472  -12.7520 C   0  0  0  0  0  0  0  0  0  0  0  0
    2.8031   10.2464  -13.6301 C   0  0  0  0  0  0  0  0  0  0  0  0
    3.7326    9.2470  -13.2374 O   0  0  0  0  0  0  0  0  0  0  0  0
    2.8390    8.1506  -13.3520 C   0  0  0  0  0  0  0  0  0  0  0  0
    1.8511    8.6042  -12.2704 C   0  0  0  0  0  0  0  0  0  0  0  0
    0.5621    7.9057  -12.3851 C   0  0  0  0  0  0  0  0  0  0  0  0
    0.1823    6.8781  -11.7826 O   0  0  0  0  0  0  0  0  0  0  0  0
    2.3072    8.3753  -14.7128 C   0  0  0  0  0  0  0  0  0  0  0  0
    2.4543    9.6753  -14.9674 C   0  0  0  0  0  0  0  0  0  0  0  0
   -2.8190   10.2407  -12.9227 Br  0  0  0  0  0  0  0  0  0  0  0  0
   -2.6145    8.6077  -13.9251 C   0  0  0  0  0  0  0  0  0  0  0  0
   -1.3524    8.0613  -13.9773 C   0  0  0  0  0  0  0  0  0  0  0  0
   -1.2341    6.8820  -14.7050 C   0  0  0  0  0  0  0  0  0  0  0  0
   -2.3113    6.2926  -15.3380 C   0  0  0  0  0  0  0  0  0  0  0  0
   -3.5724    6.8729  -15.2644 C   0  0  0  0  0  0  0  0  0  0  0  0
   -3.6993    8.0343  -14.5502 C   0  0  0  0  0  0  0  0  0  0  0  0
    3.3945   11.5916  -13.6830 C   0  0  0  0  0  0  0  0  0  0  0  0
    2.7714   12.3818  -12.6989 O   0  0  0  0  0  0  0  0  0  0  0  0
    1.8530   12.6334  -13.0099 H   0  0  0  0  0  0  0  0  0  0  0  0
 13 14  1  0  0  0
 14 15  2  0  0  0
 14 19  1  0  0  0
 15 16  1  0  0  0
 15  1  1  0  0  0
 16 17  2  0  0  0
 17 18  1  0  0  0
 18 19  2  0  0  0
  1  2  1  0  0  0
  1  9  1  0  0  0
  2  3  2  0  0  0
  2  4  1  0  0  0
  4  5  1  0  0  0
  4  8  1  0  0  0
  5  6  1  0  0  0
  5 12  1  0  0  0
  5 20  1  0  0  0
  6  7  1  0  0  0
  7  8  1  0  0  0
  7 11  1  0  0  0
  8  9  1  0  0  0
  9 10  2  0  0  0
 11 12  2  0  0  0
 20 21  1  0  0  0
 21 22  1  0  0  0
M  END
> <minimizedAffinity>
-7.27143

$$$$
67


 22 25  0  0  0  0  0  0  0  0999 V2000
    0.2160    9.0158  -13.3508 N   0  0  0  0  0  0  0  0  0  0  0  0
    0.2076   10.4813  -13.5217 C   0  0  0  0  0  0  0  0  0  0  0  0
    1.6284   10.7942  -13.4387 C   0  0  0  0  0  0  0  0  0  0  0  0
    2.3572   10.6755  -14.6341 O   0  0  0  0  0  0  0  0  0  0  0  0
    3.6351   10.8631  -14.0433 C   0  0  0  0  0  0  0  0  0  0  0  0
    3.6244    9.6160  -13.1486 C   0  0  0  0  0  0  0  0  0  0  0  0
    2.2876    9.7745  -12.4941 C   0  0  0  0  0  0  0  0  0  0  0  0
    1.3684    8.6532  -12.5996 C   0  0  0  0  0  0  0  0  0  0  0  0
    1.5436    7.5196  -12.1070 O   0  0  0  0  0  0  0  0  0  0  0  0
    3.3928   12.1110  -13.2611 C   0  0  0  0  0  0  0  0  0  0  0  0
    2.0685   12.1115  -12.9898 C   0  0  0  0  0  0  0  0  0  0  0  0
   -2.7663   10.0737  -13.4229 Br  0  0  0  0  0  0  0  0  0  0  0  0
   -2.0880    8.3920  -13.9376 C   0  0  0  0  0  0  0  0  0  0  0  0
   -0.7407    8.0892  -13.8407 C   0  0  0  0  0  0  0  0  0  0  0  0
   -0.3836    6.8129  -14.2573 C   0  0  0  0  0  0  0  0  0  0  0  0
   -1.2817    5.8921  -14.7355 C   0  0  0  0  0  0  0  0  0  0  0  0
   -2.6000    6.2092  -14.8235 C   0  0  0  0  0  0  0  0  0  0  0  0
   -3.0028    7.4557  -14.4247 C   0  0  0  0  0  0  0  0  0  0  0  0
    3.6022    8.4617  -14.1022 C   0  0  0  0  0  0  0  0  0  0  0  0
    3.0774    8.5243  -15.2233 O   0  0  0  0  0  0  0  0  0  0  0  0
    4.1958    7.2687  -13.7093 O   0  0  0  0  0  0  0  0  0  0  0  0
    5.6208    7.1513  -13.7994 C   0  0  0  0  0  0  0  0  0  0  0  0
 12 13  1  0  0  0
 13 14  2  0  0  0
 13 18  1  0  0  0
 14 15  1  0  0  0
 14  1  1  0  0  0
 15 16  2  0  0  0
 16 17  1  0  0  0
 17 18  2  0  0  0
  1  2  1  0  0  0
  1  8  1  0  0  0
  2  3  1  0  0  0
  3  4  1  0  0  0
  3  7  1  0  0  0
  3 11  1  0  0  0
  4  5  1  0  0  0
  5  6  1  0  0  0
  5 10  1  0  0  0
  6  7  1  0  0  0
  6 19  1  0  0  0
  7  8  1  0  0  0
  8  9  2  0  0  0
 19 20  2  0  0  0
 19 21  1  0  0  0
 21 22  1  0  0  0
 10 11  2  0  0  0
M  END
> <minimizedAffinity>
-7.98606

$$$$
81


 22 25  0  0  0  0  0  0  0  0999 V2000
   -6.6139    9.4805  -14.8663 C   0  0  0  0  0  0  0  0  0  0  0  0
   -6.7488   10.4587  -13.9525 N   0  0  0  0  0  0  0  0  0  0  0  0
   -7.7088   11.2999  -14.3418 N   0  0  0  0  0  0  0  0  0  0  0  0
   -8.2106   10.8745  -15.5189 C   0  0  0  0  0  0  0  0  0  0  0  0
   -7.5219    9.7576  -15.8185 N   0  0  0  0  0  0  0  0  0  0  0  0
   -9.2245   11.5955  -16.1194 C   0  0  0  0  0  0  0  0  0  0  0  0
   -9.7479   12.7422  -15.5569 C   0  0  0  0  0  0  0  0  0  0  0  0
  -10.7198   13.2432  -16.3452 N   0  0  0  0  0  0  0  0  0  0  0  0
  -10.8248   12.4448  -17.3897 N   0  0  0  0  0  0  0  0  0  0  0  0
   -9.9268   11.4201  -17.2942 C   0  0  0  0  0  0  0  0  0  0  0  0
  -11.5268   14.4330  -16.1285 C   0  0  0  0  0  0  0  0  0  0  0  0
   -9.2192   13.1324  -14.3829 N   0  0  0  0  0  0  0  0  0  0  0  0
   -8.2215   12.4178  -13.7975 C   0  0  0  0  0  0  0  0  0  0  0  0
   -5.6520    8.3248  -14.8283 C   0  0  0  0  0  0  0  0  0  0  0  0
   -0.4323    8.1604  -13.6136 Br  0  0  0  0  0  0  0  0  0  0  0  0
   -2.2136    8.7291  -13.9442 C   0  0  0  0  0  0  0  0  0  0  0  0
   -3.2686    7.9407  -14.3243 C   0  0  0  0  0  0  0  0  0  0  0  0
   -4.3275    8.7537  -14.4431 N   0  0  0  0  0  0  0  0  0  0  0  0
   -3.9663    9.9886  -14.1542 N   0  0  0  0  0  0  0  0  0  0  0  0
   -2.6521   10.0228  -13.8362 C   0  0  0  0  0  0  0  0  0  0  0  0
   -1.8567   11.2429  -13.4475 C   0  0  0  0  0  0  0  0  0  0  0  0
   -3.2028    6.4614  -14.5515 C   0  0  0  0  0  0  0  0  0  0  0  0
 15 16  1  0  0  0
 16 17  2  0  0  0
 16 20  1  0  0  0
 17 18  1  0  0  0
 17 22  1  0  0  0
 18 19  1  0  0  0
 18 14  1  0  0  0
 19 20  2  0  0  0
 20 21  1  0  0  0
 14  1  1  0  0  0
  1  2  2  0  0  0
  1  5  1  0  0  0
  2  3  1  0  0  0
  3  4  1  0  0  0
  3 13  1  0  0  0
  4  5  2  0  0  0
  4  6  1  0  0  0
  6  7  2  0  0  0
  6 10  1  0  0  0
  7  8  1  0  0  0
  7 12  1  0  0  0
  8  9  1  0  0  0
  8 11  1  0  0  0
  9 10  2  0  0  0
 12 13  2  0  0  0
M  END
> <minimizedAffinity>
-8.90417

$$$$
85


 26 29  0  0  0  0  0  0  0  0999 V2000
    3.1848    7.9580  -14.0595 C   0  0  0  0  0  0  0  0  0  0  0  0
    3.4050    6.7240  -13.4145 C   0  0  0  0  0  0  0  0  0  0  0  0
    2.5244    5.8158  -12.9136 N   0  0  0  0  0  0  0  0  0  0  0  0
    3.2231    4.8404  -12.4176 O   0  0  0  0  0  0  0  0  0  0  0  0
    4.4914    5.0646  -12.5677 N   0  0  0  0  0  0  0  0  0  0  0  0
    4.6658    6.2376  -13.1901 C   0  0  0  0  0  0  0  0  0  0  0  0
    5.8010    6.9196  -13.5786 C   0  0  0  0  0  0  0  0  0  0  0  0
    5.5812    8.1290  -14.2103 C   0  0  0  0  0  0  0  0  0  0  0  0
    4.3032    8.6332  -14.4438 C   0  0  0  0  0  0  0  0  0  0  0  0
    7.1020    6.4338  -13.3546 N   0  0  0  0  0  0  0  0  0  0  0  0
    7.9586    7.1507  -12.4137 C   0  0  0  0  0  0  0  0  0  0  0  0
    9.3624    6.6116  -12.4190 C   0  0  0  0  0  0  0  0  0  0  0  0
    9.8630    6.2644  -13.6301 O   0  0  0  0  0  0  0  0  0  0  0  0
    9.0021    5.8128  -14.5873 C   0  0  0  0  0  0  0  0  0  0  0  0
    7.7383    5.2908  -13.9363 C   0  0  0  0  0  0  0  0  0  0  0  0
    1.0282    8.9287  -13.2572 C   0  0  0  0  0  0  0  0  0  0  0  0
    1.4987    9.1326  -12.0764 O   0  0  0  0  0  0  0  0  0  0  0  0
    1.8368    8.3598  -14.2370 N   0  0  0  0  0  0  0  0  0  0  0  0
    1.3795    8.2409  -15.1906 H   0  0  0  0  0  0  0  0  0  0  0  0
   -0.0249   12.2681  -13.5113 Br  0  0  0  0  0  0  0  0  0  0  0  0
   -0.9060   10.5752  -13.5764 C   0  0  0  0  0  0  0  0  0  0  0  0
   -0.3767    9.3298  -13.4798 C   0  0  0  0  0  0  0  0  0  0  0  0
   -1.3988    8.4149  -13.6025 N   0  0  0  0  0  0  0  0  0  0  0  0
   -2.4989    9.1013  -13.7655 N   0  0  0  0  0  0  0  0  0  0  0  0
   -2.2935   10.4135  -13.7627 C   0  0  0  0  0  0  0  0  0  0  0  0
   -1.2747    6.9815  -13.5572 C   0  0  0  0  0  0  0  0  0  0  0  0
 20 21  1  0  0  0
 21 22  2  0  0  0
 21 25  1  0  0  0
 22 23  1  0  0  0
 22 16  1  0  0  0
 23 24  1  0  0  0
 23 26  1  0  0  0
 24 25  2  0  0  0
 16 17  2  0  0  0
 16 18  1  0  0  0
 18  1  1  0  0  0
  1  2  1  0  0  0
  1  9  2  0  0  0
  2  3  2  0  0  0
  2  6  1  0  0  0
  3  4  1  0  0  0
  4  5  1  0  0  0
  5  6  2  0  0  0
  6  7  1  0  0  0
  7  8  2  0  0  0
  7 10  1  0  0  0
  8  9  1  0  0  0
 10 11  1  0  0  0
 10 15  1  0  0  0
 11 12  1  0  0  0
 12 13  1  0  0  0
 13 14  1  0  0  0
 14 15  1  0  0  0
 18 19  1  0  0  0
M  END
> <minimizedAffinity>
-7.21608

$$$$
95


 26 29  0  0  0  0  0  0  0  0999 V2000
    3.4912    9.1853  -14.4520 C   0  0  0  0  0  0  0  0  0  0  0  0
    3.3403    9.2258  -15.7158 O   0  0  0  0  0  0  0  0  0  0  0  0
    3.2530   10.2152  -13.5738 N   0  0  0  0  0  0  0  0  0  0  0  0
    2.8895   11.0273  -14.6044 H   0  0  0  0  0  0  0  0  0  0  0  0
    7.5065    5.7370  -13.5719 Br  0  0  0  0  0  0  0  0  0  0  0  0
    5.6908    6.2622  -13.4671 C   0  0  0  0  0  0  0  0  0  0  0  0
    5.2997    7.5026  -13.9853 C   0  0  0  0  0  0  0  0  0  0  0  0
    3.9798    7.8655  -13.9013 C   0  0  0  0  0  0  0  0  0  0  0  0
    3.0541    7.0384  -13.3224 C   0  0  0  0  0  0  0  0  0  0  0  0
    3.4414    5.7918  -12.8019 C   0  0  0  0  0  0  0  0  0  0  0  0
    4.7695    5.4256  -12.8859 C   0  0  0  0  0  0  0  0  0  0  0  0
    1.7105    7.4820  -13.2638 N   0  0  0  0  0  0  0  0  0  0  0  0
    1.1472    7.9710  -12.1758 N   0  0  0  0  0  0  0  0  0  0  0  0
   -0.1049    8.3036  -12.4062 N   0  0  0  0  0  0  0  0  0  0  0  0
   -0.3771    8.0298  -13.6717 N   0  0  0  0  0  0  0  0  0  0  0  0
    0.7448    7.5237  -14.1936 C   0  0  0  0  0  0  0  0  0  0  0  0
    3.0160   11.2396  -12.7013 C   0  0  0  0  0  0  0  0  0  0  0  0
    1.7142   11.9809  -12.9575 C   0  0  0  0  0  0  0  0  0  0  0  0
    1.4873   13.2770  -12.6512 N   0  0  0  0  0  0  0  0  0  0  0  0
    0.2435   13.6249  -13.0053 C   0  0  0  0  0  0  0  0  0  0  0  0
   -0.3047   12.5229  -13.5406 N   0  0  0  0  0  0  0  0  0  0  0  0
    0.5873   11.5220  -13.5124 N   0  0  0  0  0  0  0  0  0  0  0  0
   -0.2228   14.9281  -12.7868 C   0  0  0  0  0  0  0  0  0  0  0  0
    0.5902   15.8621  -12.2073 C   0  0  0  0  0  0  0  0  0  0  0  0
    1.8726   15.5029  -11.8425 C   0  0  0  0  0  0  0  0  0  0  0  0
    2.3021   14.2040  -12.0725 C   0  0  0  0  0  0  0  0  0  0  0  0
  5  6  1  0  0  0
  6  7  2  0  0  0
  6 11  1  0  0  0
  7  8  1  0  0  0
  8  9  2  0  0  0
  8  1  1  0  0  0
  9 10  1  0  0  0
  9 12  1  0  0  0
 10 11  2  0  0  0
 12 13  1  0  0  0
 12 16  1  0  0  0
 13 14  2  0  0  0
 14 15  1  0  0  0
 15 16  2  0  0  0
  1  2  2  0  0  0
  1  3  1  0  0  0
  3 17  1  0  0  0
 17 18  1  0  0  0
 18 19  1  0  0  0
 18 22  2  0  0  0
 19 20  1  0  0  0
 19 26  1  0  0  0
 20 21  2  0  0  0
 20 23  1  0  0  0
 21 22  1  0  0  0
 23 24  2  0  0  0
 24 25  1  0  0  0
 25 26  2  0  0  0
  3  4  1  0  0  0
M  END
> <minimizedAffinity>
-8.38081

$$$$
106


 29 32  0  0  0  0  0  0  0  0999 V2000
   -1.2071   12.6775  -13.3040 C   0  0  0  0  0  0  0  0  0  0  0  0
   -1.2039   11.3767  -13.3994 C   0  0  0  0  0  0  0  0  0  0  0  0
   -0.1067   10.5726  -13.1331 O   0  0  0  0  0  0  0  0  0  0  0  0
   -0.3927    9.2330  -13.3193 C   0  0  0  0  0  0  0  0  0  0  0  0
   -1.6984    9.0689  -13.7223 C   0  0  0  0  0  0  0  0  0  0  0  0
   -2.1944    7.8056  -13.9665 C   0  0  0  0  0  0  0  0  0  0  0  0
   -1.3710    6.7116  -13.8049 C   0  0  0  0  0  0  0  0  0  0  0  0
   -0.0382    6.9068  -13.3921 C   0  0  0  0  0  0  0  0  0  0  0  0
    0.4726    8.1438  -13.1438 C   0  0  0  0  0  0  0  0  0  0  0  0
    0.6792    5.7060  -13.2718 O   0  0  0  0  0  0  0  0  0  0  0  0
   -2.2515   10.4260  -13.7841 C   0  0  0  0  0  0  0  0  0  0  0  0
   -3.4187   10.7367  -14.1091 O   0  0  0  0  0  0  0  0  0  0  0  0
    3.9331   13.1046  -11.7358 Br  0  0  0  0  0  0  0  0  0  0  0  0
    2.2110   13.7749  -12.1979 C   0  0  0  0  0  0  0  0  0  0  0  0
    1.1500   13.0069  -12.5827 C   0  0  0  0  0  0  0  0  0  0  0  0
   -0.0870   13.5160  -12.9117 C   0  0  0  0  0  0  0  0  0  0  0  0
   -0.2395   14.9040  -12.8383 C   0  0  0  0  0  0  0  0  0  0  0  0
    0.7886   15.7230  -12.4599 C   0  0  0  0  0  0  0  0  0  0  0  0
    2.0145   15.1517  -12.1397 C   0  0  0  0  0  0  0  0  0  0  0  0
   -1.4718   15.4398  -13.1583 O   0  0  0  0  0  0  0  0  0  0  0  0
   -1.6709   16.8288  -13.1289 C   0  0  0  0  0  0  0  0  0  0  0  0
    1.8159    8.4010  -12.7026 C   0  0  0  0  0  0  0  0  0  0  0  0
    2.9391    8.2131  -13.5261 N   0  0  0  0  0  0  0  0  0  0  0  0
    2.6764    8.1408  -14.9377 C   0  0  0  0  0  0  0  0  0  0  0  0
    2.5342    9.4850  -15.6078 C   0  0  0  0  0  0  0  0  0  0  0  0
    2.5598   10.5528  -14.7212 O   0  0  0  0  0  0  0  0  0  0  0  0
    3.7805   10.4820  -14.0587 C   0  0  0  0  0  0  0  0  0  0  0  0
    3.9874    9.2213  -13.2853 C   0  0  0  0  0  0  0  0  0  0  0  0
    3.4173    7.3296  -13.2541 H   0  0  0  0  0  0  0  0  0  0  0  0
 13 14  1  0  0  0
 14 15  2  0  0  0
 14 19  1  0  0  0
 15 16  1  0  0  0
 16 17  2  0  0  0
 16  1  1  0  0  0
 17 18  1  0  0  0
 17 20  1  0  0  0
 18 19  2  0  0  0
 20 21  1  0  0  0
  1  2  2  0  0  0
  2  3  1  0  0  0
  2 11  1  0  0  0
  3  4  1  0  0  0
  4  5  2  0  0  0
  4  9  1  0  0  0
  5  6  1  0  0  0
  5 11  1  0  0  0
  6  7  2  0  0  0
  7  8  1  0  0  0
  8  9  2  0  0  0
  8 10  1  0  0  0
  9 22  1  0  0  0
 22 23  1  0  0  0
 23 24  1  0  0  0
 23 28  1  0  0  0
 24 25  1  0  0  0
 25 26  1  0  0  0
 26 27  1  0  0  0
 27 28  1  0  0  0
 11 12  2  0  0  0
 23 29  1  0  0  0
M  CHG 1  10  -1
M  CHG 1  23   1
M  END
> <minimizedAffinity>
-8.94156

$$$$
107


 31 34  0  0  0  0  0  0  0  0999 V2000
    2.1714   10.0027  -14.6451 C   0  0  0  0  0  0  0  0  0  0  0  0
    1.9843   11.2326  -14.1194 N   0  0  0  0  0  0  0  0  0  0  0  0
    0.9103   11.5224  -13.3759 C   0  0  0  0  0  0  0  0  0  0  0  0
    0.0051   10.5561  -13.1563 N   0  0  0  0  0  0  0  0  0  0  0  0
    0.1296    9.2966  -13.6536 C   0  0  0  0  0  0  0  0  0  0  0  0
    1.2461    9.0744  -14.4005 N   0  0  0  0  0  0  0  0  0  0  0  0
    0.7129   12.8166  -12.8238 N   0  0  0  0  0  0  0  0  0  0  0  0
   -0.5516   13.5127  -12.9132 C   0  0  0  0  0  0  0  0  0  0  0  0
   -0.3486   14.9841  -13.2418 C   0  0  0  0  0  0  0  0  0  0  0  0
    0.6768   15.5246  -12.4577 O   0  0  0  0  0  0  0  0  0  0  0  0
    1.8783   14.8991  -12.6892 C   0  0  0  0  0  0  0  0  0  0  0  0
    1.7944   13.4909  -12.1410 C   0  0  0  0  0  0  0  0  0  0  0  0
   -0.8228    8.2882  -13.4200 N   0  0  0  0  0  0  0  0  0  0  0  0
   -0.4689    7.0659  -12.7622 C   0  0  0  0  0  0  0  0  0  0  0  0
   -0.9310    5.9236  -13.6645 C   0  0  0  0  0  0  0  0  0  0  0  0
   -2.2861    6.1027  -13.8824 O   0  0  0  0  0  0  0  0  0  0  0  0
   -2.5674    7.2199  -14.6327 C   0  0  0  0  0  0  0  0  0  0  0  0
   -2.1795    8.4716  -13.8450 C   0  0  0  0  0  0  0  0  0  0  0  0
    3.3009    9.6605  -15.4389 N   0  0  0  0  0  0  0  0  0  0  0  0
    3.5777   10.2479  -16.2718 H   0  0  0  0  0  0  0  0  0  0  0  0
    4.7195    8.3592  -14.0697 C   0  0  0  0  0  0  0  0  0  0  0  0
    4.1006    8.5477  -15.1735 N   0  0  0  0  0  0  0  0  0  0  0  0
    9.5548    6.1048  -14.1413 Br  0  0  0  0  0  0  0  0  0  0  0  0
    7.6791    6.0897  -13.8033 C   0  0  0  0  0  0  0  0  0  0  0  0
    6.9036    7.2003  -14.0523 C   0  0  0  0  0  0  0  0  0  0  0  0
    5.5514    7.1896  -13.8097 C   0  0  0  0  0  0  0  0  0  0  0  0
    4.9912    6.0344  -13.3095 C   0  0  0  0  0  0  0  0  0  0  0  0
    5.7664    4.9010  -13.0518 C   0  0  0  0  0  0  0  0  0  0  0  0
    7.1295    4.9178  -13.2990 C   0  0  0  0  0  0  0  0  0  0  0  0
    3.6216    6.0511  -13.0726 O   0  0  0  0  0  0  0  0  0  0  0  0
    2.9271    5.0172  -12.4147 C   0  0  0  0  0  0  0  0  0  0  0  0
 23 24  1  0  0  0
 24 25  2  0  0  0
 24 29  1  0  0  0
 25 26  1  0  0  0
 26 27  2  0  0  0
 26 21  1  0  0  0
 27 28  1  0  0  0
 27 30  1  0  0  0
 28 29  2  0  0  0
 30 31  1  0  0  0
 21 22  2  0  0  0
 22 19  1  0  0  0
 19  1  1  0  0  0
  1  2  2  0  0  0
  1  6  1  0  0  0
  2  3  1  0  0  0
  3  4  2  0  0  0
  3  7  1  0  0  0
  4  5  1  0  0  0
  5  6  2  0  0  0
  5 13  1  0  0  0
 13 14  1  0  0  0
 13 18  1  0  0  0
 14 15  1  0  0  0
 15 16  1  0  0  0
 16 17  1  0  0  0
 17 18  1  0  0  0
  7  8  1  0  0  0
  7 12  1  0  0  0
  8  9  1  0  0  0
  9 10  1  0  0  0
 10 11  1  0  0  0
 11 12  1  0  0  0
 19 20  1  0  0  0
M  END
> <minimizedAffinity>
-8.51554

$$$$
111


 29 32  0  0  0  0  0  0  0  0999 V2000
   -0.1338   10.5698  -13.5908 C   0  0  0  0  0  0  0  0  0  0  0  0
   -0.5489    9.3240  -13.5145 N   0  0  0  0  0  0  0  0  0  0  0  0
   -1.8520    9.2259  -13.9278 C   0  0  0  0  0  0  0  0  0  0  0  0
   -2.2407   10.4774  -14.2623 N   0  0  0  0  0  0  0  0  0  0  0  0
   -1.2463   11.2755  -14.0695 N   0  0  0  0  0  0  0  0  0  0  0  0
   -2.2569    7.9567  -13.8434 N   0  0  0  0  0  0  0  0  0  0  0  0
   -1.2202    7.2442  -13.3734 C   0  0  0  0  0  0  0  0  0  0  0  0
   -0.1332    8.0829  -13.1543 C   0  0  0  0  0  0  0  0  0  0  0  0
    1.0154    7.6504  -12.6704 N   0  0  0  0  0  0  0  0  0  0  0  0
    1.1026    6.3117  -12.3927 C   0  0  0  0  0  0  0  0  0  0  0  0
    2.1502    5.7926  -11.9310 O   0  0  0  0  0  0  0  0  0  0  0  0
    0.0698    5.4670  -12.5967 N   0  0  0  0  0  0  0  0  0  0  0  0
   -1.0887    5.9004  -13.0791 C   0  0  0  0  0  0  0  0  0  0  0  0
   -2.0863    5.1652  -13.2906 O   0  0  0  0  0  0  0  0  0  0  0  0
    2.1850    8.3983  -12.3206 C   0  0  0  0  0  0  0  0  0  0  0  0
    0.1526    4.4512  -12.3817 H   0  0  0  0  0  0  0  0  0  0  0  0
    2.4350   14.4779  -10.9852 Br  0  0  0  0  0  0  0  0  0  0  0  0
    2.3886   13.0710  -12.2721 C   0  0  0  0  0  0  0  0  0  0  0  0
    1.2366   12.3639  -12.4597 C   0  0  0  0  0  0  0  0  0  0  0  0
    1.0511   11.3386  -13.3366 C   0  0  0  0  0  0  0  0  0  0  0  0
    2.2118   11.0398  -14.0869 C   0  0  0  0  0  0  0  0  0  0  0  0
    3.3929   11.7253  -13.9320 C   0  0  0  0  0  0  0  0  0  0  0  0
    3.4899   12.7581  -13.0126 C   0  0  0  0  0  0  0  0  0  0  0  0
    2.1572   10.0159  -15.0166 O   0  0  0  0  0  0  0  0  0  0  0  0
    3.2530    9.2521  -15.4139 C   0  0  0  0  0  0  0  0  0  0  0  0
   -3.5448    7.4267  -14.1828 C   0  0  0  0  0  0  0  0  0  0  0  0
   -3.5749    7.0804  -15.6569 C   0  0  0  0  0  0  0  0  0  0  0  0
   -4.8154    7.4240  -16.1569 O   0  0  0  0  0  0  0  0  0  0  0  0
   -5.5918    8.0979  -15.1985 C   0  0  0  0  0  0  0  0  0  0  0  0
 17 18  1  0  0  0
 18 19  2  0  0  0
 18 23  1  0  0  0
 19 20  1  0  0  0
 20 21  2  0  0  0
 20  1  1  0  0  0
 21 22  1  0  0  0
 21 24  1  0  0  0
 22 23  2  0  0  0
 24 25  1  0  0  0
  1  2  1  0  0  0
  1  5  2  0  0  0
  2  3  1  0  0  0
  2  8  1  0  0  0
  3  4  2  0  0  0
  3  6  1  0  0  0
  4  5  1  0  0  0
  6  7  1  0  0  0
  6 26  1  0  0  0
  7  8  2  0  0  0
  7 13  1  0  0  0
  8  9  1  0  0  0
  9 10  1  0  0  0
  9 15  1  0  0  0
 10 11  2  0  0  0
 10 12  1  0  0  0
 12 13  1  0  0  0
 13 14  2  0  0  0
 26 27  1  0  0  0
 27 28  1  0  0  0
 28 29  1  0  0  0
 12 16  1  0  0  0
M  END
> <minimizedAffinity>
-7.38985

$$$$
127


 29 32  0  0  0  0  0  0  0  0999 V2000
    2.2451    6.3377  -12.8480 N   0  0  0  0  0  0  0  0  0  0  0  0
    2.2764    7.4506  -13.7223 C   0  0  0  0  0  0  0  0  0  0  0  0
    0.9884    7.8214  -14.3511 C   0  0  0  0  0  0  0  0  0  0  0  0
   -0.0403    7.9719  -13.3724 N   0  0  0  0  0  0  0  0  0  0  0  0
    0.1247    7.3276  -12.1012 C   0  0  0  0  0  0  0  0  0  0  0  0
    1.0327    6.1202  -12.1388 C   0  0  0  0  0  0  0  0  0  0  0  0
   -1.2261    8.7113  -13.6245 C   0  0  0  0  0  0  0  0  0  0  0  0
   -2.2829    8.0545  -14.0986 C   0  0  0  0  0  0  0  0  0  0  0  0
   -2.5565    6.7086  -14.4454 N   0  0  0  0  0  0  0  0  0  0  0  0
   -3.8988    6.7061  -14.8884 N   0  0  0  0  0  0  0  0  0  0  0  0
   -4.4118    8.0220  -14.8078 C   0  0  0  0  0  0  0  0  0  0  0  0
   -3.4979    8.8616  -14.3459 C   0  0  0  0  0  0  0  0  0  0  0  0
   -3.4895   10.2594  -14.0770 N   0  0  0  0  0  0  0  0  0  0  0  0
   -2.4402   10.8465  -13.6179 C   0  0  0  0  0  0  0  0  0  0  0  0
   -1.2553   10.1298  -13.3632 N   0  0  0  0  0  0  0  0  0  0  0  0
   -5.7828    8.4661  -15.1752 C   0  0  0  0  0  0  0  0  0  0  0  0
   -1.6545    5.5856  -14.3624 C   0  0  0  0  0  0  0  0  0  0  0  0
   -4.3688    5.8341  -15.2096 H   0  0  0  0  0  0  0  0  0  0  0  0
   -0.3879   10.5568  -12.9954 H   0  0  0  0  0  0  0  0  0  0  0  0
    3.4390    6.0377  -12.1597 C   0  0  0  0  0  0  0  0  0  0  0  0
    4.3044    5.0788  -12.8489 C   0  0  0  0  0  0  0  0  0  0  0  0
    3.8643    3.9269  -13.0976 O   0  0  0  0  0  0  0  0  0  0  0  0
    9.4029    3.6748  -13.5921 Br  0  0  0  0  0  0  0  0  0  0  0  0
    7.9774    4.9348  -13.5857 C   0  0  0  0  0  0  0  0  0  0  0  0
    6.6817    4.5808  -13.2317 C   0  0  0  0  0  0  0  0  0  0  0  0
    5.6534    5.4864  -13.2273 C   0  0  0  0  0  0  0  0  0  0  0  0
    5.9111    6.7896  -13.5848 C   0  0  0  0  0  0  0  0  0  0  0  0
    7.1888    7.1456  -13.9355 C   0  0  0  0  0  0  0  0  0  0  0  0
    8.2407    6.2388  -13.9441 C   0  0  0  0  0  0  0  0  0  0  0  0
 23 24  1  0  0  0
 24 25  2  0  0  0
 24 29  1  0  0  0
 25 26  1  0  0  0
 26 27  2  0  0  0
 26 21  1  0  0  0
 27 28  1  0  0  0
 28 29  2  0  0  0
 21 22  2  0  0  0
 21 20  1  0  0  0
 20  1  1  0  0  0
  1  2  1  0  0  0
  1  6  1  0  0  0
  2  3  1  0  0  0
  3  4  1  0  0  0
  4  5  1  0  0  0
  4  7  1  0  0  0
  5  6  1  0  0  0
  7  8  2  0  0  0
  7 15  1  0  0  0
  8  9  1  0  0  0
  8 12  1  0  0  0
  9 10  1  0  0  0
  9 17  1  0  0  0
 10 11  1  0  0  0
 11 12  2  0  0  0
 11 16  1  0  0  0
 12 13  1  0  0  0
 13 14  2  0  0  0
 14 15  1  0  0  0
 10 18  1  0  0  0
 15 19  1  0  0  0
M  END
> <minimizedAffinity>
-8.08208

$$$$
129


 31 34  0  0  0  0  0  0  0  0999 V2000
   -4.7110    8.3008  -14.4530 C   0  0  0  0  0  0  0  0  0  0  0  0
   -5.5381    7.3776  -14.7332 O   0  0  0  0  0  0  0  0  0  0  0  0
   -3.3088    8.0716  -14.5572 N   0  0  0  0  0  0  0  0  0  0  0  0
   -2.3304    9.0234  -14.0961 C   0  0  0  0  0  0  0  0  0  0  0  0
   -1.6499    8.2767  -12.9239 C   0  0  0  0  0  0  0  0  0  0  0  0
   -0.7866    7.2365  -13.5857 C   0  0  0  0  0  0  0  0  0  0  0  0
   -0.4198    6.2798  -12.5430 N   0  0  0  0  0  0  0  0  0  0  0  0
    0.2342    6.8768  -11.4392 C   0  0  0  0  0  0  0  0  0  0  0  0
    1.5711    7.4972  -11.8016 C   0  0  0  0  0  0  0  0  0  0  0  0
    1.5642    8.0564  -13.1664 C   0  0  0  0  0  0  0  0  0  0  0  0
    2.5275    8.7351  -13.8117 N   0  0  0  0  0  0  0  0  0  0  0  0
    2.0554    9.0302  -15.0430 C   0  0  0  0  0  0  0  0  0  0  0  0
    0.7983    8.5286  -15.1437 N   0  0  0  0  0  0  0  0  0  0  0  0
    0.4635    7.9191  -13.9899 C   0  0  0  0  0  0  0  0  0  0  0  0
   -1.4304    6.4853  -14.6972 C   0  0  0  0  0  0  0  0  0  0  0  0
   -2.8097    6.8662  -15.1154 C   0  0  0  0  0  0  0  0  0  0  0  0
    0.1035    5.4538  -12.9310 H   0  0  0  0  0  0  0  0  0  0  0  0
    0.2742    8.6587  -16.0321 H   0  0  0  0  0  0  0  0  0  0  0  0
   -5.2724    9.5700  -14.0139 C   0  0  0  0  0  0  0  0  0  0  0  0
   -5.5481    9.5199  -12.5195 C   0  0  0  0  0  0  0  0  0  0  0  0
   -7.2642   11.0141  -14.4189 C   0  0  0  0  0  0  0  0  0  0  0  0
   -7.3249   11.6852  -13.4034 O   0  0  0  0  0  0  0  0  0  0  0  0
   -6.3521   10.0364  -14.8046 N   0  0  0  0  0  0  0  0  0  0  0  0
   -6.4147    9.6242  -15.7839 H   0  0  0  0  0  0  0  0  0  0  0  0
  -11.2008   14.2338  -15.9776 Br  0  0  0  0  0  0  0  0  0  0  0  0
  -10.1430   12.6349  -16.1689 C   0  0  0  0  0  0  0  0  0  0  0  0
   -9.1139   12.3932  -15.2900 C   0  0  0  0  0  0  0  0  0  0  0  0
   -8.3539   11.2531  -15.4377 C   0  0  0  0  0  0  0  0  0  0  0  0
   -8.6150   10.3706  -16.4364 C   0  0  0  0  0  0  0  0  0  0  0  0
   -9.6452   10.6278  -17.2988 C   0  0  0  0  0  0  0  0  0  0  0  0
  -10.4452   11.7680  -17.1985 C   0  0  0  0  0  0  0  0  0  0  0  0
 25 26  1  0  0  0
 26 27  2  0  0  0
 26 31  1  0  0  0
 27 28  1  0  0  0
 28 29  2  0  0  0
 28 21  1  0  0  0
 29 30  1  0  0  0
 30 31  2  0  0  0
 21 22  2  0  0  0
 21 23  1  0  0  0
 23 19  1  0  0  0
 19 20  1  0  0  0
 19  1  1  0  0  0
  1  2  2  0  0  0
  1  3  1  0  0  0
  3  4  1  0  0  0
  3 16  1  0  0  0
  4  5  1  0  0  0
  5  6  1  0  0  0
  6  7  1  0  0  0
  6 14  1  0  0  0
  6 15  1  0  0  0
  7  8  1  0  0  0
  8  9  1  0  0  0
  9 10  1  0  0  0
 10 11  1  0  0  0
 10 14  2  0  0  0
 11 12  2  0  0  0
 12 13  1  0  0  0
 13 14  1  0  0  0
 15 16  1  0  0  0
 23 24  1  0  0  0
  7 17  1  0  0  0
 13 18  1  0  0  0
M  END
> <minimizedAffinity>
-10.44790

$$$$
130


 30 33  0  0  0  0  0  0  0  0999 V2000
    0.3818    7.6794  -13.2020 C   0  0  0  0  0  0  0  0  0  0  0  0
    0.2517    7.2720  -11.9940 O   0  0  0  0  0  0  0  0  0  0  0  0
    1.5857    8.2299  -13.6616 N   0  0  0  0  0  0  0  0  0  0  0  0
    1.7656    8.6979  -14.9986 C   0  0  0  0  0  0  0  0  0  0  0  0
    2.6471    9.9122  -15.0751 C   0  0  0  0  0  0  0  0  0  0  0  0
    2.7513   10.7038  -13.7900 C   0  0  0  0  0  0  0  0  0  0  0  0
    3.8591   11.6172  -14.0350 N   0  0  0  0  0  0  0  0  0  0  0  0
    4.0542   12.6323  -13.0718 C   0  0  0  0  0  0  0  0  0  0  0  0
    2.9317   12.9431  -12.1513 C   0  0  0  0  0  0  0  0  0  0  0  0
    1.6058   12.6267  -12.7680 C   0  0  0  0  0  0  0  0  0  0  0  0
    0.4212   13.2313  -12.6882 N   0  0  0  0  0  0  0  0  0  0  0  0
   -0.4163   12.5018  -13.4547 C   0  0  0  0  0  0  0  0  0  0  0  0
    0.2411   11.4563  -14.0026 N   0  0  0  0  0  0  0  0  0  0  0  0
    1.5350   11.5191  -13.5742 C   0  0  0  0  0  0  0  0  0  0  0  0
    3.0264    9.8589  -12.5727 C   0  0  0  0  0  0  0  0  0  0  0  0
    2.7410    8.3833  -12.7847 C   0  0  0  0  0  0  0  0  0  0  0  0
    4.7023   10.9781  -14.1078 H   0  0  0  0  0  0  0  0  0  0  0  0
   -0.1717   10.7452  -14.6291 H   0  0  0  0  0  0  0  0  0  0  0  0
   -0.8509    7.5137  -14.0535 C   0  0  0  0  0  0  0  0  0  0  0  0
   -2.7000    9.4166  -13.5081 C   0  0  0  0  0  0  0  0  0  0  0  0
   -2.5689   10.4807  -12.8063 O   0  0  0  0  0  0  0  0  0  0  0  0
   -1.7972    8.4872  -13.7744 N   0  0  0  0  0  0  0  0  0  0  0  0
   -0.8568    9.1651  -13.0191 H   0  0  0  0  0  0  0  0  0  0  0  0
   -7.7088   11.2195  -13.9099 Br  0  0  0  0  0  0  0  0  0  0  0  0
   -6.3615    9.9606  -14.3106 C   0  0  0  0  0  0  0  0  0  0  0  0
   -5.0837   10.1428  -13.8044 C   0  0  0  0  0  0  0  0  0  0  0  0
   -4.0827    9.2498  -14.0807 C   0  0  0  0  0  0  0  0  0  0  0  0
   -4.2835    8.1482  -14.8572 C   0  0  0  0  0  0  0  0  0  0  0  0
   -5.5698    7.9565  -15.3710 C   0  0  0  0  0  0  0  0  0  0  0  0
   -6.5831    8.8550  -15.0939 C   0  0  0  0  0  0  0  0  0  0  0  0
 24 25  1  0  0  0
 25 26  2  0  0  0
 25 30  1  0  0  0
 26 27  1  0  0  0
 27 28  2  0  0  0
 27 20  1  0  0  0
 28 29  1  0  0  0
 29 30  2  0  0  0
 20 21  2  0  0  0
 20 22  1  0  0  0
 22 19  1  0  0  0
 19  1  1  0  0  0
  1  2  2  0  0  0
  1  3  1  0  0  0
  3  4  1  0  0  0
  3 16  1  0  0  0
  4  5  1  0  0  0
  5  6  1  0  0  0
  6  7  1  0  0  0
  6 14  1  0  0  0
  6 15  1  0  0  0
  7  8  1  0  0  0
  8  9  1  0  0  0
  9 10  1  0  0  0
 10 11  1  0  0  0
 10 14  2  0  0  0
 11 12  2  0  0  0
 12 13  1  0  0  0
 13 14  1  0  0  0
 15 16  1  0  0  0
 22 23  1  0  0  0
  7 17  1  0  0  0
 13 18  1  0  0  0
M  END
> <minimizedAffinity>
-8.76232

$$$$
131


 30 33  0  0  0  0  0  0  0  0999 V2000
   -1.6007    6.4424  -13.9999 C   0  0  0  0  0  0  0  0  0  0  0  0
   -1.2430    5.2497  -13.8379 O   0  0  0  0  0  0  0  0  0  0  0  0
   -0.9021    7.4650  -13.3396 N   0  0  0  0  0  0  0  0  0  0  0  0
   -1.2538    8.8567  -13.4762 C   0  0  0  0  0  0  0  0  0  0  0  0
   -0.0836    9.5409  -14.1486 C   0  0  0  0  0  0  0  0  0  0  0  0
    1.1939    9.1970  -13.4205 C   0  0  0  0  0  0  0  0  0  0  0  0
    2.0503    8.4742  -14.3368 N   0  0  0  0  0  0  0  0  0  0  0  0
    3.3501    8.1852  -13.8404 C   0  0  0  0  0  0  0  0  0  0  0  0
    4.0174    9.2391  -13.0353 C   0  0  0  0  0  0  0  0  0  0  0  0
    3.2681   10.5093  -12.9384 C   0  0  0  0  0  0  0  0  0  0  0  0
    3.6597   11.7958  -12.6851 N   0  0  0  0  0  0  0  0  0  0  0  0
    2.5516   12.5461  -12.7133 C   0  0  0  0  0  0  0  0  0  0  0  0
    1.4936   11.7619  -12.9766 N   0  0  0  0  0  0  0  0  0  0  0  0
    1.9043   10.4772  -13.1235 C   0  0  0  0  0  0  0  0  0  0  0  0
    0.9962    8.4209  -12.1585 C   0  0  0  0  0  0  0  0  0  0  0  0
    0.2127    7.1459  -12.4855 C   0  0  0  0  0  0  0  0  0  0  0  0
    1.5810    7.5610  -14.5748 H   0  0  0  0  0  0  0  0  0  0  0  0
    4.6638   12.0906  -12.5057 H   0  0  0  0  0  0  0  0  0  0  0  0
   -2.7608    6.6821  -14.8985 C   0  0  0  0  0  0  0  0  0  0  0  0
   -4.7973    8.1260  -15.0594 C   0  0  0  0  0  0  0  0  0  0  0  0
   -4.9722    7.6763  -16.2209 O   0  0  0  0  0  0  0  0  0  0  0  0
   -3.6794    7.6496  -14.3377 N   0  0  0  0  0  0  0  0  0  0  0  0
   -3.5140    8.0067  -13.3761 H   0  0  0  0  0  0  0  0  0  0  0  0
   -8.8344   11.5043  -15.8748 Br  0  0  0  0  0  0  0  0  0  0  0  0
   -7.5647   10.6661  -14.7471 C   0  0  0  0  0  0  0  0  0  0  0  0
   -6.6850    9.7458  -15.2880 C   0  0  0  0  0  0  0  0  0  0  0  0
   -5.7358    9.0990  -14.5190 C   0  0  0  0  0  0  0  0  0  0  0  0
   -5.6830    9.4008  -13.1657 C   0  0  0  0  0  0  0  0  0  0  0  0
   -6.5603   10.3165  -12.6347 C   0  0  0  0  0  0  0  0  0  0  0  0
   -7.5122   10.9696  -13.3857 C   0  0  0  0  0  0  0  0  0  0  0  0
 24 25  1  0  0  0
 25 26  2  0  0  0
 25 30  1  0  0  0
 26 27  1  0  0  0
 27 28  2  0  0  0
 27 20  1  0  0  0
 28 29  1  0  0  0
 29 30  2  0  0  0
 20 21  2  0  0  0
 20 22  1  0  0  0
 22 19  1  0  0  0
 19  1  1  0  0  0
  1  2  2  0  0  0
  1  3  1  0  0  0
  3  4  1  0  0  0
  3 16  1  0  0  0
  4  5  1  0  0  0
  5  6  1  0  0  0
  6  7  1  0  0  0
  6 14  1  0  0  0
  6 15  1  0  0  0
  7  8  1  0  0  0
  8  9  1  0  0  0
  9 10  1  0  0  0
 10 11  1  0  0  0
 10 14  2  0  0  0
 11 12  1  0  0  0
 12 13  2  0  0  0
 13 14  1  0  0  0
 15 16  1  0  0  0
 22 23  1  0  0  0
  7 17  1  0  0  0
 11 18  1  0  0  0
M  END
> <minimizedAffinity>
-8.72071

$$$$
136


 30 33  0  0  0  0  0  0  0  0999 V2000
   -4.2801    9.5339  -13.8558 C   0  0  0  0  0  0  0  0  0  0  0  0
   -2.9263   10.2033  -13.9937 C   0  0  0  0  0  0  0  0  0  0  0  0
   -2.0057    9.0842  -13.9439 N   0  0  0  0  0  0  0  0  0  0  0  0
   -2.7175    7.8235  -13.9959 C   0  0  0  0  0  0  0  0  0  0  0  0
   -4.0615    8.2486  -14.6025 C   0  0  0  0  0  0  0  0  0  0  0  0
   -1.9888    6.9127  -14.8774 C   0  0  0  0  0  0  0  0  0  0  0  0
   -2.5486    6.3386  -15.8228 O   0  0  0  0  0  0  0  0  0  0  0  0
   -0.6102    6.7009  -14.6183 N   0  0  0  0  0  0  0  0  0  0  0  0
    0.1558    7.7322  -13.9556 C   0  0  0  0  0  0  0  0  0  0  0  0
   -0.5752    9.0153  -13.8548 C   0  0  0  0  0  0  0  0  0  0  0  0
    0.0652   10.0862  -13.6862 O   0  0  0  0  0  0  0  0  0  0  0  0
   -0.1158    5.8213  -14.8900 H   0  0  0  0  0  0  0  0  0  0  0  0
   -6.5254   10.4896  -13.6885 C   0  0  0  0  0  0  0  0  0  0  0  0
   -6.6322    9.9055  -12.5479 O   0  0  0  0  0  0  0  0  0  0  0  0
   -5.3364   10.3467  -14.4318 N   0  0  0  0  0  0  0  0  0  0  0  0
   -5.2466   10.8073  -15.3478 H   0  0  0  0  0  0  0  0  0  0  0  0
  -10.1991   11.2320  -17.4581 Br  0  0  0  0  0  0  0  0  0  0  0  0
   -9.3382   11.6910  -15.8120 C   0  0  0  0  0  0  0  0  0  0  0  0
   -8.2789   10.9535  -15.3606 C   0  0  0  0  0  0  0  0  0  0  0  0
   -7.6474   11.2796  -14.1665 C   0  0  0  0  0  0  0  0  0  0  0  0
   -8.1150   12.3470  -13.4658 C   0  0  0  0  0  0  0  0  0  0  0  0
   -9.1897   13.0880  -13.9318 C   0  0  0  0  0  0  0  0  0  0  0  0
   -9.8112   12.7643  -15.1126 C   0  0  0  0  0  0  0  0  0  0  0  0
    0.7006    7.2812  -12.6170 C   0  0  0  0  0  0  0  0  0  0  0  0
    1.9905    6.5795  -12.7212 C   0  0  0  0  0  0  0  0  0  0  0  0
    3.0831    7.2265  -13.2696 C   0  0  0  0  0  0  0  0  0  0  0  0
    4.2921    6.5775  -13.3705 C   0  0  0  0  0  0  0  0  0  0  0  0
    4.4785    5.2769  -12.9418 C   0  0  0  0  0  0  0  0  0  0  0  0
    3.3914    4.6293  -12.3948 C   0  0  0  0  0  0  0  0  0  0  0  0
    2.1699    5.2651  -12.2854 C   0  0  0  0  0  0  0  0  0  0  0  0
 17 18  1  0  0  0
 18 19  2  0  0  0
 18 23  1  0  0  0
 19 20  1  0  0  0
 20 21  2  0  0  0
 20 13  1  0  0  0
 21 22  1  0  0  0
 22 23  2  0  0  0
 13 14  2  0  0  0
 13 15  1  0  0  0
 15  1  1  0  0  0
  1  2  1  0  0  0
  1  5  1  0  0  0
  2  3  1  0  0  0
  3  4  1  0  0  0
  3 10  1  0  0  0
  4  5  1  0  0  0
  4  6  1  0  0  0
  6  7  2  0  0  0
  6  8  1  0  0  0
  8  9  1  0  0  0
  9 10  1  0  0  0
  9 24  1  0  0  0
 10 11  2  0  0  0
 24 25  1  0  0  0
 25 26  2  0  0  0
 25 30  1  0  0  0
 26 27  1  0  0  0
 27 28  2  0  0  0
 28 29  1  0  0  0
 29 30  2  0  0  0
 15 16  1  0  0  0
  8 12  1  0  0  0
M  END
> <minimizedAffinity>
-10.64440

$$$$
137


 25 28  0  0  0  0  0  0  0  0999 V2000
   -1.0826   16.3876  -13.4562 C   0  0  0  0  0  0  0  0  0  0  0  0
   -1.4131   14.8638  -13.2463 C   0  0  0  0  0  0  0  0  0  0  0  0
   -0.1304   14.2533  -13.1591 N   0  0  0  0  0  0  0  0  0  0  0  0
    0.8563   15.2635  -12.8055 C   0  0  0  0  0  0  0  0  0  0  0  0
    0.0628   16.4368  -12.3989 C   0  0  0  0  0  0  0  0  0  0  0  0
    1.8132   14.7205  -11.8282 C   0  0  0  0  0  0  0  0  0  0  0  0
    2.2042   15.4388  -10.8915 O   0  0  0  0  0  0  0  0  0  0  0  0
    2.2852   13.3945  -11.9523 N   0  0  0  0  0  0  0  0  0  0  0  0
    1.4234   12.3782  -12.5141 C   0  0  0  0  0  0  0  0  0  0  0  0
    2.3446   11.4200  -13.2417 C   0  0  0  0  0  0  0  0  0  0  0  0
    3.7193   11.9058  -12.9418 C   0  0  0  0  0  0  0  0  0  0  0  0
    3.5328   12.7037  -11.6425 C   0  0  0  0  0  0  0  0  0  0  0  0
    0.3496   12.9254  -13.3365 C   0  0  0  0  0  0  0  0  0  0  0  0
   -0.1872   12.2043  -14.2485 O   0  0  0  0  0  0  0  0  0  0  0  0
   -3.2139   18.0020  -13.0741 C   0  0  0  0  0  0  0  0  0  0  0  0
   -4.2477   18.1673  -13.7925 O   0  0  0  0  0  0  0  0  0  0  0  0
   -2.1296   17.1819  -13.2653 N   0  0  0  0  0  0  0  0  0  0  0  0
   -2.6964   16.7406  -14.4405 H   0  0  0  0  0  0  0  0  0  0  0  0
   -6.0242   21.4161  -10.0009 Br  0  0  0  0  0  0  0  0  0  0  0  0
   -4.4651   20.4181  -10.4312 C   0  0  0  0  0  0  0  0  0  0  0  0
   -4.3858   19.6159  -11.5430 C   0  0  0  0  0  0  0  0  0  0  0  0
   -3.2662   18.8786  -11.8420 C   0  0  0  0  0  0  0  0  0  0  0  0
   -2.1830   18.9413  -11.0034 C   0  0  0  0  0  0  0  0  0  0  0  0
   -2.2206   19.7401   -9.8673 C   0  0  0  0  0  0  0  0  0  0  0  0
   -3.3499   20.4617   -9.5993 C   0  0  0  0  0  0  0  0  0  0  0  0
 19 20  1  0  0  0
 20 21  2  0  0  0
 20 25  1  0  0  0
 21 22  1  0  0  0
 22 23  2  0  0  0
 22 15  1  0  0  0
 23 24  1  0  0  0
 24 25  2  0  0  0
 15 16  2  0  0  0
 15 17  1  0  0  0
 17  1  1  0  0  0
  1  2  1  0  0  0
  1  5  1  0  0  0
  2  3  1  0  0  0
  3  4  1  0  0  0
  3 13  1  0  0  0
  4  5  1  0  0  0
  4  6  1  0  0  0
  6  7  2  0  0  0
  6  8  1  0  0  0
  8  9  1  0  0  0
  8 12  1  0  0  0
  9 10  1  0  0  0
  9 13  1  0  0  0
 10 11  1  0  0  0
 11 12  1  0  0  0
 13 14  2  0  0  0
 17 18  1  0  0  0
M  END
> <minimizedAffinity>
-9.89896

$$$$
138


 25 28  0  0  0  0  0  0  0  0999 V2000
    0.1264   15.4921  -12.5882 C   0  0  0  0  0  0  0  0  0  0  0  0
   -0.6661   14.2296  -12.6611 C   0  0  0  0  0  0  0  0  0  0  0  0
    0.3364   13.2378  -13.0876 N   0  0  0  0  0  0  0  0  0  0  0  0
    1.6668   13.8108  -12.9445 C   0  0  0  0  0  0  0  0  0  0  0  0
    1.4509   14.9658  -12.0153 C   0  0  0  0  0  0  0  0  0  0  0  0
    2.5502   12.7724  -12.4214 C   0  0  0  0  0  0  0  0  0  0  0  0
    3.4569   13.0456  -11.6259 O   0  0  0  0  0  0  0  0  0  0  0  0
    2.3657   11.4112  -12.8348 N   0  0  0  0  0  0  0  0  0  0  0  0
    1.4725   11.2013  -13.9481 C   0  0  0  0  0  0  0  0  0  0  0  0
    1.2969    9.7609  -14.2025 C   0  0  0  0  0  0  0  0  0  0  0  0
    2.4709    9.1545  -13.4594 C   0  0  0  0  0  0  0  0  0  0  0  0
    2.8621   10.1387  -12.4099 C   0  0  0  0  0  0  0  0  0  0  0  0
    0.1973   11.9074  -13.5776 C   0  0  0  0  0  0  0  0  0  0  0  0
   -0.9198   11.3555  -13.6943 O   0  0  0  0  0  0  0  0  0  0  0  0
   -1.5643   17.2393  -12.2639 C   0  0  0  0  0  0  0  0  0  0  0  0
   -2.0625   16.9518  -13.4082 O   0  0  0  0  0  0  0  0  0  0  0  0
   -0.4417   16.5205  -11.7982 N   0  0  0  0  0  0  0  0  0  0  0  0
   -0.0417   16.7553  -10.8719 H   0  0  0  0  0  0  0  0  0  0  0  0
   -5.8954   20.3203  -11.6356 Br  0  0  0  0  0  0  0  0  0  0  0  0
   -4.1396   19.7508  -11.1814 C   0  0  0  0  0  0  0  0  0  0  0  0
   -3.4980   18.7408  -11.8513 C   0  0  0  0  0  0  0  0  0  0  0  0
   -2.2317   18.3103  -11.5446 C   0  0  0  0  0  0  0  0  0  0  0  0
   -1.5952   18.9437  -10.5043 C   0  0  0  0  0  0  0  0  0  0  0  0
   -2.2156   19.9813   -9.7924 C   0  0  0  0  0  0  0  0  0  0  0  0
   -3.4959   20.3821  -10.1395 C   0  0  0  0  0  0  0  0  0  0  0  0
 19 20  1  0  0  0
 20 21  2  0  0  0
 20 25  1  0  0  0
 21 22  1  0  0  0
 22 23  2  0  0  0
 22 15  1  0  0  0
 23 24  1  0  0  0
 24 25  2  0  0  0
 15 16  2  0  0  0
 15 17  1  0  0  0
 17  1  1  0  0  0
  1  2  1  0  0  0
  1  5  1  0  0  0
  2  3  1  0  0  0
  3  4  1  0  0  0
  3 13  1  0  0  0
  4  5  1  0  0  0
  4  6  1  0  0  0
  6  7  2  0  0  0
  6  8  1  0  0  0
  8  9  1  0  0  0
  8 12  1  0  0  0
  9 10  1  0  0  0
  9 13  1  0  0  0
 10 11  1  0  0  0
 11 12  1  0  0  0
 13 14  2  0  0  0
 17 18  1  0  0  0
M  END
> <minimizedAffinity>
-9.94744

$$$$
141


 23 26  0  0  0  0  0  0  0  0999 V2000
    0.6908   14.4611  -12.6478 N   0  0  0  0  0  0  0  0  0  0  0  0
    0.3479   13.0823  -12.8856 C   0  0  0  0  0  0  0  0  0  0  0  0
   -0.8092   12.5551  -12.8974 O   0  0  0  0  0  0  0  0  0  0  0  0
    1.5723   12.3416  -13.1221 C   0  0  0  0  0  0  0  0  0  0  0  0
    2.6436   13.3862  -13.4924 C   0  0  0  0  0  0  0  0  0  0  0  0
    3.8993   12.9389  -12.8176 C   0  0  0  0  0  0  0  0  0  0  0  0
    3.5912   11.4575  -12.5213 C   0  0  0  0  0  0  0  0  0  0  0  0
    2.2312   11.7850  -11.8682 C   0  0  0  0  0  0  0  0  0  0  0  0
    2.6659   12.8909  -10.9675 C   0  0  0  0  0  0  0  0  0  0  0  0
    3.8198   13.4236  -11.3915 C   0  0  0  0  0  0  0  0  0  0  0  0
    2.0849   14.5708  -12.7295 C   0  0  0  0  0  0  0  0  0  0  0  0
    2.7886   15.4907  -12.2551 O   0  0  0  0  0  0  0  0  0  0  0  0
   -0.8876   16.2767  -13.3384 C   0  0  0  0  0  0  0  0  0  0  0  0
   -0.5445   16.2378  -14.5329 O   0  0  0  0  0  0  0  0  0  0  0  0
   -0.3058   15.4220  -12.3864 N   0  0  0  0  0  0  0  0  0  0  0  0
   -0.6714   15.5380  -11.3883 H   0  0  0  0  0  0  0  0  0  0  0  0
   -2.3848   19.8847   -9.8071 Br  0  0  0  0  0  0  0  0  0  0  0  0
   -2.6764   18.9062  -11.4139 C   0  0  0  0  0  0  0  0  0  0  0  0
   -1.7384   17.9818  -11.8016 C   0  0  0  0  0  0  0  0  0  0  0  0
   -1.9073   17.2375  -12.9666 C   0  0  0  0  0  0  0  0  0  0  0  0
   -3.0263   17.4524  -13.7096 C   0  0  0  0  0  0  0  0  0  0  0  0
   -3.9638   18.3813  -13.3156 C   0  0  0  0  0  0  0  0  0  0  0  0
   -3.8202   19.1275  -12.1715 C   0  0  0  0  0  0  0  0  0  0  0  0
 17 18  1  0  0  0
 18 19  2  0  0  0
 18 23  1  0  0  0
 19 20  1  0  0  0
 20 21  2  0  0  0
 20 13  1  0  0  0
 21 22  1  0  0  0
 22 23  2  0  0  0
 13 14  2  0  0  0
 13 15  1  0  0  0
 15  1  1  0  0  0
  1  2  1  0  0  0
  1 11  1  0  0  0
  2  3  2  0  0  0
  2  4  1  0  0  0
  4  5  1  0  0  0
  4  8  1  0  0  0
  5  6  1  0  0  0
  5 11  1  0  0  0
  6  7  1  0  0  0
  6 10  1  0  0  0
  7  8  1  0  0  0
  8  9  1  0  0  0
  9 10  2  0  0  0
 11 12  2  0  0  0
 15 16  1  0  0  0
M  END
> <minimizedAffinity>
-8.21561

$$$$
152


 27 30  0  0  0  0  0  0  0  0999 V2000
   -1.6800   11.9076  -13.3812 C   0  0  0  0  0  0  0  0  0  0  0  0
   -1.8677   10.6161  -13.6758 C   0  0  0  0  0  0  0  0  0  0  0  0
   -0.9575    9.6466  -13.5907 O   0  0  0  0  0  0  0  0  0  0  0  0
   -1.5384    8.4058  -13.9558 C   0  0  0  0  0  0  0  0  0  0  0  0
   -2.8437    8.5596  -14.2811 C   0  0  0  0  0  0  0  0  0  0  0  0
   -3.5801    7.4189  -14.5913 C   0  0  0  0  0  0  0  0  0  0  0  0
   -2.9906    6.1936  -14.5883 C   0  0  0  0  0  0  0  0  0  0  0  0
   -1.6496    6.0737  -14.2826 C   0  0  0  0  0  0  0  0  0  0  0  0
   -0.8635    7.1539  -13.9603 C   0  0  0  0  0  0  0  0  0  0  0  0
   -1.0862    4.7956  -14.3034 O   0  0  0  0  0  0  0  0  0  0  0  0
   -3.1256   10.0064  -14.1274 C   0  0  0  0  0  0  0  0  0  0  0  0
   -4.2074   10.5830  -14.3436 O   0  0  0  0  0  0  0  0  0  0  0  0
    1.1168   16.1358  -11.8176 Br  0  0  0  0  0  0  0  0  0  0  0  0
    1.0510   14.3079  -12.3624 C   0  0  0  0  0  0  0  0  0  0  0  0
   -0.2094   13.7073  -12.4823 C   0  0  0  0  0  0  0  0  0  0  0  0
   -0.3534   12.3740  -12.8945 C   0  0  0  0  0  0  0  0  0  0  0  0
    0.7919   11.6816  -13.1650 C   0  0  0  0  0  0  0  0  0  0  0  0
    2.0735   12.2627  -13.0529 C   0  0  0  0  0  0  0  0  0  0  0  0
    2.1736   13.6163  -12.6366 C   0  0  0  0  0  0  0  0  0  0  0  0
    0.5758    7.2779  -14.0720 C   0  0  0  0  0  0  0  0  0  0  0  0
    1.5956    8.1044  -13.7674 N   0  0  0  0  0  0  0  0  0  0  0  0
    2.8216    7.7623  -13.1917 C   0  0  0  0  0  0  0  0  0  0  0  0
    3.9560    7.5440  -14.2171 C   0  0  0  0  0  0  0  0  0  0  0  0
    4.3060    8.6868  -14.8956 O   0  0  0  0  0  0  0  0  0  0  0  0
    3.1558    9.4281  -15.1887 C   0  0  0  0  0  0  0  0  0  0  0  0
    1.9535    8.6406  -15.1830 C   0  0  0  0  0  0  0  0  0  0  0  0
    1.2065    8.9924  -13.2716 H   0  0  0  0  0  0  0  0  0  0  0  0
 13 14  1  0  0  0
 14 15  2  0  0  0
 14 19  1  0  0  0
 15 16  1  0  0  0
 16 17  2  0  0  0
 16  1  1  0  0  0
 17 18  1  0  0  0
 18 19  2  0  0  0
  1  2  2  0  0  0
  2  3  1  0  0  0
  2 11  1  0  0  0
  3  4  1  0  0  0
  4  5  2  0  0  0
  4  9  1  0  0  0
  5  6  1  0  0  0
  5 11  1  0  0  0
  6  7  2  0  0  0
  7  8  1  0  0  0
  8  9  2  0  0  0
  8 10  1  0  0  0
  9 20  1  0  0  0
 20 21  1  0  0  0
 21 22  1  0  0  0
 21 26  1  0  0  0
 22 23  1  0  0  0
 23 24  1  0  0  0
 24 25  1  0  0  0
 25 26  1  0  0  0
 11 12  2  0  0  0
 21 27  1  0  0  0
M  CHG 1  10  -1
M  CHG 1  21   1
M  END
> <minimizedAffinity>
-8.79156

$$$$
153


 34 37  0  0  0  0  0  0  0  0999 V2000
   -0.1545    6.3315  -13.0836 C   0  0  0  0  0  0  0  0  0  0  0  0
   -0.8511    5.3945  -13.6297 N   0  0  0  0  0  0  0  0  0  0  0  0
   -1.8948    5.9165  -14.2662 N   0  0  0  0  0  0  0  0  0  0  0  0
   -1.8685    7.2661  -14.1093 N   0  0  0  0  0  0  0  0  0  0  0  0
   -0.8180    7.5751  -13.4237 C   0  0  0  0  0  0  0  0  0  0  0  0
   -3.1272    7.9710  -14.3015 C   0  0  0  0  0  0  0  0  0  0  0  0
   -4.2372    7.0959  -14.5933 N   0  0  0  0  0  0  0  0  0  0  0  0
   -5.2898    7.7457  -14.7555 O   0  0  0  0  0  0  0  0  0  0  0  0
   -5.0356    9.0104  -14.6128 N   0  0  0  0  0  0  0  0  0  0  0  0
   -3.6767    9.1353  -14.3262 C   0  0  0  0  0  0  0  0  0  0  0  0
   -3.1310   10.4179  -14.1163 N   0  0  0  0  0  0  0  0  0  0  0  0
   -3.6400   10.9630  -13.3350 H   0  0  0  0  0  0  0  0  0  0  0  0
   -2.3731   10.9079  -14.5505 H   0  0  0  0  0  0  0  0  0  0  0  0
    2.1574    5.7418  -12.5917 N   0  0  0  0  0  0  0  0  0  0  0  0
    1.0054    6.2835  -12.0994 C   0  0  0  0  0  0  0  0  0  0  0  0
    0.7956    6.7527  -10.9594 O   0  0  0  0  0  0  0  0  0  0  0  0
    1.8975    5.5760  -13.7758 H   0  0  0  0  0  0  0  0  0  0  0  0
    4.4145    5.7328  -13.2595 C   0  0  0  0  0  0  0  0  0  0  0  0
    3.4093    5.3457  -12.5254 N   0  0  0  0  0  0  0  0  0  0  0  0
    9.6565    6.2172  -11.9100 Br  0  0  0  0  0  0  0  0  0  0  0  0
    8.0888    5.2667  -12.4720 C   0  0  0  0  0  0  0  0  0  0  0  0
    6.8864    5.9253  -12.7256 C   0  0  0  0  0  0  0  0  0  0  0  0
    5.7770    5.1900  -13.0954 C   0  0  0  0  0  0  0  0  0  0  0  0
    5.9139    3.8180  -13.2065 C   0  0  0  0  0  0  0  0  0  0  0  0
    7.1112    3.2153  -12.9518 C   0  0  0  0  0  0  0  0  0  0  0  0
    8.2420    3.8881  -12.5696 C   0  0  0  0  0  0  0  0  0  0  0  0
   -0.1874    8.8121  -12.9747 C   0  0  0  0  0  0  0  0  0  0  0  0
    0.2667    9.8006  -13.8420 N   0  0  0  0  0  0  0  0  0  0  0  0
    0.2290   11.1418  -13.8856 C   0  0  0  0  0  0  0  0  0  0  0  0
    1.6599   11.6818  -13.6150 C   0  0  0  0  0  0  0  0  0  0  0  0
    2.3497   10.6916  -12.8681 N   0  0  0  0  0  0  0  0  0  0  0  0
    2.6461    9.5491  -13.6787 C   0  0  0  0  0  0  0  0  0  0  0  0
    1.4518    9.3207  -14.6139 C   0  0  0  0  0  0  0  0  0  0  0  0
    3.3267   11.0759  -11.9395 C   0  0  0  0  0  0  0  0  0  0  0  0
 20 21  1  0  0  0
 21 22  2  0  0  0
 21 26  1  0  0  0
 22 23  1  0  0  0
 23 24  2  0  0  0
 23 18  1  0  0  0
 24 25  1  0  0  0
 25 26  2  0  0  0
 18 19  2  0  0  0
 19 14  1  0  0  0
 14 15  1  0  0  0
 15 16  2  0  0  0
 15  1  1  0  0  0
  1  2  1  0  0  0
  1  5  2  0  0  0
  2  3  2  0  0  0
  3  4  1  0  0  0
  4  5  1  0  0  0
  4  6  1  0  0  0
  5 27  1  0  0  0
 27 28  1  0  0  0
 28 29  1  0  0  0
 28 33  1  0  0  0
 29 30  1  0  0  0
 30 31  1  0  0  0
 31 32  1  0  0  0
 31 34  1  0  0  0
 32 33  1  0  0  0
  6  7  2  0  0  0
  6 10  1  0  0  0
  7  8  1  0  0  0
  8  9  1  0  0  0
  9 10  2  0  0  0
 10 11  1  0  0  0
 14 17  1  0  0  0
 11 12  1  0  0  0
 11 13  1  0  0  0
M  END
> <minimizedAffinity>
-8.82374

$$$$
156


 29 32  0  0  0  0  0  0  0  0999 V2000
    2.1189    9.9418  -14.5344 C   0  0  0  0  0  0  0  0  0  0  0  0
    1.9779   11.1616  -14.0060 N   0  0  0  0  0  0  0  0  0  0  0  0
    0.8664   11.5507  -13.3211 C   0  0  0  0  0  0  0  0  0  0  0  0
   -0.1026   10.6173  -13.2044 N   0  0  0  0  0  0  0  0  0  0  0  0
   -0.0198    9.3760  -13.7128 C   0  0  0  0  0  0  0  0  0  0  0  0
    1.1218    9.0733  -14.3788 N   0  0  0  0  0  0  0  0  0  0  0  0
   -1.0433    8.4232  -13.5771 N   0  0  0  0  0  0  0  0  0  0  0  0
   -2.3959    8.6910  -13.9860 C   0  0  0  0  0  0  0  0  0  0  0  0
   -2.9195    7.3790  -14.5860 C   0  0  0  0  0  0  0  0  0  0  0  0
   -1.8635    6.6218  -15.0872 O   0  0  0  0  0  0  0  0  0  0  0  0
   -1.0326    6.1092  -14.1234 C   0  0  0  0  0  0  0  0  0  0  0  0
   -0.7555    7.1344  -13.0150 C   0  0  0  0  0  0  0  0  0  0  0  0
    0.7403   12.8453  -12.7722 N   0  0  0  0  0  0  0  0  0  0  0  0
    1.8537   13.4796  -12.1229 C   0  0  0  0  0  0  0  0  0  0  0  0
    2.0436   14.8354  -12.7939 C   0  0  0  0  0  0  0  0  0  0  0  0
    0.8554   15.5355  -12.6011 O   0  0  0  0  0  0  0  0  0  0  0  0
   -0.1991   14.9862  -13.3078 C   0  0  0  0  0  0  0  0  0  0  0  0
   -0.5020   13.5643  -12.8461 C   0  0  0  0  0  0  0  0  0  0  0  0
    3.3080    9.6012  -15.2375 N   0  0  0  0  0  0  0  0  0  0  0  0
    3.6853   10.2341  -15.9729 H   0  0  0  0  0  0  0  0  0  0  0  0
    4.8093    8.2511  -13.9979 C   0  0  0  0  0  0  0  0  0  0  0  0
    4.0004    8.4174  -14.9688 N   0  0  0  0  0  0  0  0  0  0  0  0
    4.5142    2.9922  -13.0434 Br  0  0  0  0  0  0  0  0  0  0  0  0
    5.4954    4.6162  -13.3045 C   0  0  0  0  0  0  0  0  0  0  0  0
    4.8544    5.8067  -13.5474 C   0  0  0  0  0  0  0  0  0  0  0  0
    5.5196    7.0045  -13.7430 C   0  0  0  0  0  0  0  0  0  0  0  0
    6.8956    6.9595  -13.6820 C   0  0  0  0  0  0  0  0  0  0  0  0
    7.5824    5.7726  -13.4379 C   0  0  0  0  0  0  0  0  0  0  0  0
    6.8740    4.6045  -13.2505 C   0  0  0  0  0  0  0  0  0  0  0  0
 23 24  1  0  0  0
 24 25  2  0  0  0
 24 29  1  0  0  0
 25 26  1  0  0  0
 26 27  2  0  0  0
 26 21  1  0  0  0
 27 28  1  0  0  0
 28 29  2  0  0  0
 21 22  2  0  0  0
 22 19  1  0  0  0
 19  1  1  0  0  0
  1  2  2  0  0  0
  1  6  1  0  0  0
  2  3  1  0  0  0
  3  4  2  0  0  0
  3 13  1  0  0  0
  4  5  1  0  0  0
  5  6  2  0  0  0
  5  7  1  0  0  0
  7  8  1  0  0  0
  7 12  1  0  0  0
  8  9  1  0  0  0
  9 10  1  0  0  0
 10 11  1  0  0  0
 11 12  1  0  0  0
 13 14  1  0  0  0
 13 18  1  0  0  0
 14 15  1  0  0  0
 15 16  1  0  0  0
 16 17  1  0  0  0
 17 18  1  0  0  0
 19 20  1  0  0  0
M  END
> <minimizedAffinity>
-8.53928

$$$$
167


 35 38  0  0  0  0  0  0  0  0999 V2000
    5.3563    6.0813  -13.9549 C   0  0  0  0  0  0  0  0  0  0  0  0
    4.7370    5.0344  -13.2320 N   0  0  0  0  0  0  0  0  0  0  0  0
    3.5354    5.5048  -12.6439 C   0  0  0  0  0  0  0  0  0  0  0  0
    2.7984    4.8335  -11.8565 O   0  0  0  0  0  0  0  0  0  0  0  0
    3.2998    6.8581  -13.0984 C   0  0  0  0  0  0  0  0  0  0  0  0
    2.2937    7.5178  -12.7215 O   0  0  0  0  0  0  0  0  0  0  0  0
    4.3926    7.2125  -13.9837 C   0  0  0  0  0  0  0  0  0  0  0  0
    4.4930    8.3550  -14.6243 C   0  0  0  0  0  0  0  0  0  0  0  0
    5.6134    8.6008  -15.3841 O   0  0  0  0  0  0  0  0  0  0  0  0
   10.6463    5.9572  -14.5382 Br  0  0  0  0  0  0  0  0  0  0  0  0
    9.0635    6.4303  -13.5811 C   0  0  0  0  0  0  0  0  0  0  0  0
    7.8038    6.1347  -14.0044 C   0  0  0  0  0  0  0  0  0  0  0  0
    6.6332    6.4603  -13.3411 C   0  0  0  0  0  0  0  0  0  0  0  0
    6.7543    7.1488  -12.1371 C   0  0  0  0  0  0  0  0  0  0  0  0
    8.0184    7.4641  -11.6770 C   0  0  0  0  0  0  0  0  0  0  0  0
    9.1703    7.1246  -12.3650 C   0  0  0  0  0  0  0  0  0  0  0  0
    3.4503    9.3479  -14.5510 C   0  0  0  0  0  0  0  0  0  0  0  0
    3.4384   10.4073  -13.6267 C   0  0  0  0  0  0  0  0  0  0  0  0
    2.3587   11.1676  -13.8456 N   0  0  0  0  0  0  0  0  0  0  0  0
    1.7051   10.6290  -14.8585 N   0  0  0  0  0  0  0  0  0  0  0  0
    2.3302    9.5328  -15.3131 C   0  0  0  0  0  0  0  0  0  0  0  0
    4.4872   10.6128  -12.5858 C   0  0  0  0  0  0  0  0  0  0  0  0
    1.9772   12.3427  -13.1444 C   0  0  0  0  0  0  0  0  0  0  0  0
    0.6354   12.6987  -13.1175 C   0  0  0  0  0  0  0  0  0  0  0  0
    0.1922   13.8212  -12.4468 C   0  0  0  0  0  0  0  0  0  0  0  0
    1.0844   14.6483  -11.7633 C   0  0  0  0  0  0  0  0  0  0  0  0
    2.4214   14.2937  -11.7902 C   0  0  0  0  0  0  0  0  0  0  0  0
    2.8362   13.1739  -12.4638 C   0  0  0  0  0  0  0  0  0  0  0  0
    5.2197    3.6308  -13.1013 C   0  0  0  0  0  0  0  0  0  0  0  0
    5.6072    3.1010  -14.4578 C   0  0  0  0  0  0  0  0  0  0  0  0
    6.7178    2.0998  -14.4124 C   0  0  0  0  0  0  0  0  0  0  0  0
    7.9825    2.5801  -13.9633 N   0  0  0  0  0  0  0  0  0  0  0  0
    8.4772    2.0246  -12.7467 C   0  0  0  0  0  0  0  0  0  0  0  0
    9.0045    2.3616  -14.9998 C   0  0  0  0  0  0  0  0  0  0  0  0
    7.9434    3.6390  -13.8570 H   0  0  0  0  0  0  0  0  0  0  0  0
 10 11  1  0  0  0
 11 12  2  0  0  0
 11 16  1  0  0  0
 12 13  1  0  0  0
 13 14  2  0  0  0
 13  1  1  0  0  0
 14 15  1  0  0  0
 15 16  2  0  0  0
  1  2  1  0  0  0
  1  7  1  0  0  0
  2  3  1  0  0  0
  2 29  1  0  0  0
  3  4  2  0  0  0
  3  5  1  0  0  0
  5  6  2  0  0  0
  5  7  1  0  0  0
  7  8  2  0  0  0
  8  9  1  0  0  0
  8 17  1  0  0  0
 17 18  2  0  0  0
 17 21  1  0  0  0
 18 19  1  0  0  0
 18 22  1  0  0  0
 19 20  1  0  0  0
 19 23  1  0  0  0
 20 21  2  0  0  0
 23 24  2  0  0  0
 23 28  1  0  0  0
 24 25  1  0  0  0
 25 26  2  0  0  0
 26 27  1  0  0  0
 27 28  2  0  0  0
 29 30  1  0  0  0
 30 31  1  0  0  0
 31 32  1  0  0  0
 32 33  1  0  0  0
 32 34  1  0  0  0
 32 35  1  0  0  0
M  CHG 1   9  -1
M  CHG 1  32   1
M  END
> <minimizedAffinity>
-7.51687

$$$$
169


 37 40  0  0  0  0  0  0  0  0999 V2000
    2.6065    9.0204  -12.6724 C   0  0  0  0  0  0  0  0  0  0  0  0
    3.5962    8.5577  -13.6259 N   0  0  0  0  0  0  0  0  0  0  0  0
    3.0160    8.7219  -14.9117 C   0  0  0  0  0  0  0  0  0  0  0  0
    3.6116    8.8733  -16.0014 O   0  0  0  0  0  0  0  0  0  0  0  0
    1.5484    8.6839  -14.7266 C   0  0  0  0  0  0  0  0  0  0  0  0
    0.6691    8.7861  -15.6098 O   0  0  0  0  0  0  0  0  0  0  0  0
    1.3413    8.4963  -13.2970 C   0  0  0  0  0  0  0  0  0  0  0  0
    0.3018    7.9507  -12.7439 C   0  0  0  0  0  0  0  0  0  0  0  0
    0.3019    7.7939  -11.3421 O   0  0  0  0  0  0  0  0  0  0  0  0
   -0.8854    7.4814  -13.4439 C   0  0  0  0  0  0  0  0  0  0  0  0
   -1.2688    6.2761  -13.9274 C   0  0  0  0  0  0  0  0  0  0  0  0
   -2.5084    6.4041  -14.4445 N   0  0  0  0  0  0  0  0  0  0  0  0
   -2.9588    7.6588  -14.3210 C   0  0  0  0  0  0  0  0  0  0  0  0
   -1.9604    8.3574  -13.6962 C   0  0  0  0  0  0  0  0  0  0  0  0
   -2.0112    9.8086  -13.3446 C   0  0  0  0  0  0  0  0  0  0  0  0
   -0.4767    5.0008  -13.9585 C   0  0  0  0  0  0  0  0  0  0  0  0
   -3.0482    5.6071  -14.8915 H   0  0  0  0  0  0  0  0  0  0  0  0
   -4.2651    8.1836  -14.7669 C   0  0  0  0  0  0  0  0  0  0  0  0
   -4.5488    8.1548  -15.9735 O   0  0  0  0  0  0  0  0  0  0  0  0
   -5.1654    8.7020  -13.8556 O   0  0  0  0  0  0  0  0  0  0  0  0
   -5.7267    9.9906  -13.9553 C   0  0  0  0  0  0  0  0  0  0  0  0
   -0.2218   13.5511  -12.9972 Br  0  0  0  0  0  0  0  0  0  0  0  0
    1.4286   12.6113  -12.8216 C   0  0  0  0  0  0  0  0  0  0  0  0
    1.4333   11.2327  -12.8054 C   0  0  0  0  0  0  0  0  0  0  0  0
    2.6081   10.5030  -12.6797 C   0  0  0  0  0  0  0  0  0  0  0  0
    3.7707   11.2513  -12.5725 C   0  0  0  0  0  0  0  0  0  0  0  0
    3.7764   12.6299  -12.5881 C   0  0  0  0  0  0  0  0  0  0  0  0
    2.5978   13.3318  -12.7133 C   0  0  0  0  0  0  0  0  0  0  0  0
    4.9290    8.0227  -13.3355 C   0  0  0  0  0  0  0  0  0  0  0  0
    4.9845    6.5317  -13.5855 C   0  0  0  0  0  0  0  0  0  0  0  0
    6.1795    5.9096  -13.1167 N   0  0  0  0  0  0  0  0  0  0  0  0
    7.3997    6.4809  -13.6743 C   0  0  0  0  0  0  0  0  0  0  0  0
    8.5403    6.0700  -12.7831 C   0  0  0  0  0  0  0  0  0  0  0  0
    8.1965    4.9307  -12.0992 O   0  0  0  0  0  0  0  0  0  0  0  0
    7.5523    3.9758  -12.8663 C   0  0  0  0  0  0  0  0  0  0  0  0
    6.2352    4.4905  -13.4448 C   0  0  0  0  0  0  0  0  0  0  0  0
    6.2076    5.9559  -12.0822 H   0  0  0  0  0  0  0  0  0  0  0  0
 22 23  1  0  0  0
 23 24  2  0  0  0
 23 28  1  0  0  0
 24 25  1  0  0  0
 25 26  2  0  0  0
 25  1  1  0  0  0
 26 27  1  0  0  0
 27 28  2  0  0  0
  1  2  1  0  0  0
  1  7  1  0  0  0
  2  3  1  0  0  0
  2 29  1  0  0  0
  3  4  2  0  0  0
  3  5  1  0  0  0
  5  6  2  0  0  0
  5  7  1  0  0  0
  7  8  2  0  0  0
  8  9  1  0  0  0
  8 10  1  0  0  0
 10 11  2  0  0  0
 10 14  1  0  0  0
 11 12  1  0  0  0
 11 16  1  0  0  0
 12 13  1  0  0  0
 13 14  2  0  0  0
 13 18  1  0  0  0
 14 15  1  0  0  0
 18 19  2  0  0  0
 18 20  1  0  0  0
 20 21  1  0  0  0
 29 30  1  0  0  0
 30 31  1  0  0  0
 31 32  1  0  0  0
 31 36  1  0  0  0
 32 33  1  0  0  0
 33 34  1  0  0  0
 34 35  1  0  0  0
 35 36  1  0  0  0
 12 17  1  0  0  0
 31 37  1  0  0  0
M  CHG 1   9  -1
M  CHG 1  31   1
M  END
> <minimizedAffinity>
-7.77245

$$$$
170


 35 38  0  0  0  0  0  0  0  0999 V2000
    2.6490    7.9516  -12.7768 C   0  0  0  0  0  0  0  0  0  0  0  0
    3.2940    8.9438  -13.6141 N   0  0  0  0  0  0  0  0  0  0  0  0
    2.7250    8.9552  -14.9052 C   0  0  0  0  0  0  0  0  0  0  0  0
    3.1558    9.4130  -15.9947 O   0  0  0  0  0  0  0  0  0  0  0  0
    1.4112    8.2773  -14.7703 C   0  0  0  0  0  0  0  0  0  0  0  0
    0.6215    8.1080  -15.7208 O   0  0  0  0  0  0  0  0  0  0  0  0
    1.2718    7.8898  -13.3784 C   0  0  0  0  0  0  0  0  0  0  0  0
    0.1497    7.6002  -12.7715 C   0  0  0  0  0  0  0  0  0  0  0  0
    0.1688    7.3110  -11.3959 O   0  0  0  0  0  0  0  0  0  0  0  0
    7.1373    5.1121  -13.4845 Br  0  0  0  0  0  0  0  0  0  0  0  0
    5.2763    5.2649  -13.1069 C   0  0  0  0  0  0  0  0  0  0  0  0
    4.6631    6.5123  -13.0800 C   0  0  0  0  0  0  0  0  0  0  0  0
    3.3192    6.6396  -12.8105 C   0  0  0  0  0  0  0  0  0  0  0  0
    2.5819    5.5032  -12.5634 C   0  0  0  0  0  0  0  0  0  0  0  0
    3.1854    4.2618  -12.5891 C   0  0  0  0  0  0  0  0  0  0  0  0
    4.5302    4.1239  -12.8587 C   0  0  0  0  0  0  0  0  0  0  0  0
   -1.1114    7.5590  -13.4619 C   0  0  0  0  0  0  0  0  0  0  0  0
   -1.8221    8.7651  -13.5506 C   0  0  0  0  0  0  0  0  0  0  0  0
   -3.0483    8.8106  -14.1534 C   0  0  0  0  0  0  0  0  0  0  0  0
   -3.6412    7.6790  -14.6995 C   0  0  0  0  0  0  0  0  0  0  0  0
   -2.9348    6.5209  -14.6014 C   0  0  0  0  0  0  0  0  0  0  0  0
   -1.6965    6.4566  -13.9956 C   0  0  0  0  0  0  0  0  0  0  0  0
   -3.7939   10.1071  -14.2390 C   0  0  0  0  0  0  0  0  0  0  0  0
   -4.8810    7.8088  -15.2912 O   0  0  0  0  0  0  0  0  0  0  0  0
   -6.0351    7.2329  -14.6981 C   0  0  0  0  0  0  0  0  0  0  0  0
    4.3878    9.8387  -13.2039 C   0  0  0  0  0  0  0  0  0  0  0  0
    3.8302   11.0142  -12.4500 C   0  0  0  0  0  0  0  0  0  0  0  0
    2.9500   11.9158  -13.2465 C   0  0  0  0  0  0  0  0  0  0  0  0
    1.6615   12.1594  -12.6353 N   0  0  0  0  0  0  0  0  0  0  0  0
    1.5247   13.5342  -12.1970 C   0  0  0  0  0  0  0  0  0  0  0  0
    0.4388   14.2359  -12.9671 C   0  0  0  0  0  0  0  0  0  0  0  0
   -0.7723   13.5614  -12.7102 O   0  0  0  0  0  0  0  0  0  0  0  0
   -0.7224   12.2615  -13.2087 C   0  0  0  0  0  0  0  0  0  0  0  0
    0.6432   11.8289  -13.6367 C   0  0  0  0  0  0  0  0  0  0  0  0
    1.4605   11.5316  -11.8289 H   0  0  0  0  0  0  0  0  0  0  0  0
 10 11  1  0  0  0
 11 12  2  0  0  0
 11 16  1  0  0  0
 12 13  1  0  0  0
 13 14  2  0  0  0
 13  1  1  0  0  0
 14 15  1  0  0  0
 15 16  2  0  0  0
  1  2  1  0  0  0
  1  7  1  0  0  0
  2  3  1  0  0  0
  2 26  1  0  0  0
  3  4  2  0  0  0
  3  5  1  0  0  0
  5  6  2  0  0  0
  5  7  1  0  0  0
  7  8  2  0  0  0
  8  9  1  0  0  0
  8 17  1  0  0  0
 17 18  2  0  0  0
 17 22  1  0  0  0
 18 19  1  0  0  0
 19 20  2  0  0  0
 19 23  1  0  0  0
 20 21  1  0  0  0
 20 24  1  0  0  0
 21 22  2  0  0  0
 24 25  1  0  0  0
 26 27  1  0  0  0
 27 28  1  0  0  0
 28 29  1  0  0  0
 29 30  1  0  0  0
 29 34  1  0  0  0
 30 31  1  0  0  0
 31 32  1  0  0  0
 32 33  1  0  0  0
 33 34  1  0  0  0
 29 35  1  0  0  0
M  CHG 1   9  -1
M  CHG 1  29   1
M  END
> <minimizedAffinity>
-8.32579

$$$$
175


 32 35  0  0  0  0  0  0  0  0999 V2000
    0.5528    8.8755  -12.9515 C   0  0  0  0  0  0  0  0  0  0  0  0
    0.9880   10.0929  -13.5683 N   0  0  0  0  0  0  0  0  0  0  0  0
    1.8638    9.7162  -14.6199 C   0  0  0  0  0  0  0  0  0  0  0  0
    2.1919   10.4352  -15.5963 O   0  0  0  0  0  0  0  0  0  0  0  0
    2.3387    8.3318  -14.3866 C   0  0  0  0  0  0  0  0  0  0  0  0
    3.1165    7.6649  -15.0895 O   0  0  0  0  0  0  0  0  0  0  0  0
    1.6975    7.9168  -13.1533 C   0  0  0  0  0  0  0  0  0  0  0  0
    2.0557    6.9466  -12.3414 C   0  0  0  0  0  0  0  0  0  0  0  0
    1.3590    6.7397  -11.1699 O   0  0  0  0  0  0  0  0  0  0  0  0
   -4.6765    9.5002  -14.1043 Br  0  0  0  0  0  0  0  0  0  0  0  0
   -3.0441    8.5090  -14.1332 C   0  0  0  0  0  0  0  0  0  0  0  0
   -1.8829    9.0184  -13.5612 C   0  0  0  0  0  0  0  0  0  0  0  0
   -0.6892    8.3274  -13.5655 C   0  0  0  0  0  0  0  0  0  0  0  0
   -0.6996    7.0819  -14.1775 C   0  0  0  0  0  0  0  0  0  0  0  0
   -1.8390    6.5589  -14.7508 C   0  0  0  0  0  0  0  0  0  0  0  0
   -3.0030    7.2838  -14.7211 C   0  0  0  0  0  0  0  0  0  0  0  0
    3.1634    6.0765  -12.6435 C   0  0  0  0  0  0  0  0  0  0  0  0
    4.4561    6.4527  -12.8670 C   0  0  0  0  0  0  0  0  0  0  0  0
    5.4304    5.5016  -13.1070 C   0  0  0  0  0  0  0  0  0  0  0  0
    5.1802    4.1486  -13.1391 C   0  0  0  0  0  0  0  0  0  0  0  0
    3.8735    3.7699  -12.9139 C   0  0  0  0  0  0  0  0  0  0  0  0
    2.8909    4.6987  -12.6741 C   0  0  0  0  0  0  0  0  0  0  0  0
    6.2487    3.1441  -13.4005 C   0  0  0  0  0  0  0  0  0  0  0  0
    0.6205   11.4786  -13.2155 C   0  0  0  0  0  0  0  0  0  0  0  0
    1.8987   12.2314  -12.9733 C   0  0  0  0  0  0  0  0  0  0  0  0
    1.8318   13.2315  -11.9702 N   0  0  0  0  0  0  0  0  0  0  0  0
    2.9443   14.1336  -11.9039 C   0  0  0  0  0  0  0  0  0  0  0  0
    2.7817   15.3793  -12.7312 C   0  0  0  0  0  0  0  0  0  0  0  0
    1.5196   15.9269  -12.6691 O   0  0  0  0  0  0  0  0  0  0  0  0
    0.5426   15.0310  -13.0354 C   0  0  0  0  0  0  0  0  0  0  0  0
    0.5576   13.9009  -12.0411 C   0  0  0  0  0  0  0  0  0  0  0  0
    1.8078   12.7202  -11.0372 H   0  0  0  0  0  0  0  0  0  0  0  0
 10 11  1  0  0  0
 11 12  2  0  0  0
 11 16  1  0  0  0
 12 13  1  0  0  0
 13 14  2  0  0  0
 13  1  1  0  0  0
 14 15  1  0  0  0
 15 16  2  0  0  0
  1  2  1  0  0  0
  1  7  1  0  0  0
  2  3  1  0  0  0
  2 24  1  0  0  0
  3  4  2  0  0  0
  3  5  1  0  0  0
  5  6  2  0  0  0
  5  7  1  0  0  0
  7  8  2  0  0  0
  8  9  1  0  0  0
  8 17  1  0  0  0
 17 18  2  0  0  0
 17 22  1  0  0  0
 18 19  1  0  0  0
 19 20  2  0  0  0
 20 21  1  0  0  0
 20 23  1  0  0  0
 21 22  2  0  0  0
 24 25  1  0  0  0
 25 26  1  0  0  0
 26 27  1  0  0  0
 26 31  1  0  0  0
 27 28  1  0  0  0
 28 29  1  0  0  0
 29 30  1  0  0  0
 30 31  1  0  0  0
 26 32  1  0  0  0
M  CHG 1   9  -1
M  CHG 1  26   1
M  END
> <minimizedAffinity>
-8.83047

$$$$
176


 33 36  0  0  0  0  0  0  0  0999 V2000
    2.2258    7.7949  -13.8542 C   0  0  0  0  0  0  0  0  0  0  0  0
    1.3360    7.0374  -12.9893 N   0  0  0  0  0  0  0  0  0  0  0  0
    1.3218    7.7080  -11.7120 C   0  0  0  0  0  0  0  0  0  0  0  0
    0.9425    7.1867  -10.6345 O   0  0  0  0  0  0  0  0  0  0  0  0
    1.8164    9.0505  -11.9330 C   0  0  0  0  0  0  0  0  0  0  0  0
    1.9733    9.9801  -11.0807 O   0  0  0  0  0  0  0  0  0  0  0  0
    2.1235    9.1775  -13.3511 C   0  0  0  0  0  0  0  0  0  0  0  0
    2.3033   10.3199  -13.9979 C   0  0  0  0  0  0  0  0  0  0  0  0
    2.6461   10.1639  -15.3575 O   0  0  0  0  0  0  0  0  0  0  0  0
    5.3862    3.5334  -13.0489 Br  0  0  0  0  0  0  0  0  0  0  0  0
    5.0862    5.3696  -13.4344 C   0  0  0  0  0  0  0  0  0  0  0  0
    3.8149    5.9221  -13.5072 C   0  0  0  0  0  0  0  0  0  0  0  0
    3.6064    7.2527  -13.7907 C   0  0  0  0  0  0  0  0  0  0  0  0
    4.6982    8.0395  -14.0058 C   0  0  0  0  0  0  0  0  0  0  0  0
    5.9871    7.4934  -13.9337 C   0  0  0  0  0  0  0  0  0  0  0  0
    6.1935    6.1625  -13.6504 C   0  0  0  0  0  0  0  0  0  0  0  0
    2.1671   11.6404  -13.4056 C   0  0  0  0  0  0  0  0  0  0  0  0
    3.2026   12.4127  -12.9357 C   0  0  0  0  0  0  0  0  0  0  0  0
    3.0157   13.6767  -12.4133 C   0  0  0  0  0  0  0  0  0  0  0  0
    1.7550   14.2243  -12.3398 C   0  0  0  0  0  0  0  0  0  0  0  0
    0.7023   13.4626  -12.8067 C   0  0  0  0  0  0  0  0  0  0  0  0
    0.8996   12.1989  -13.3280 C   0  0  0  0  0  0  0  0  0  0  0  0
    1.4899   15.8400  -11.6761 Cl  0  0  0  0  0  0  0  0  0  0  0  0
    0.6952    5.8072  -13.3255 C   0  0  0  0  0  0  0  0  0  0  0  0
   -0.7744    5.7183  -13.2645 C   0  0  0  0  0  0  0  0  0  0  0  0
   -1.5708    5.6623  -14.5145 C   0  0  0  0  0  0  0  0  0  0  0  0
   -2.0760    6.8815  -15.0491 N   0  0  0  0  0  0  0  0  0  0  0  0
   -3.3650    6.6796  -15.6607 C   0  0  0  0  0  0  0  0  0  0  0  0
   -4.5223    6.9391  -14.7191 C   0  0  0  0  0  0  0  0  0  0  0  0
   -4.5568    8.2894  -14.3634 O   0  0  0  0  0  0  0  0  0  0  0  0
   -3.2893    8.8645  -14.4706 C   0  0  0  0  0  0  0  0  0  0  0  0
   -2.3022    7.8613  -13.9418 C   0  0  0  0  0  0  0  0  0  0  0  0
   -1.4096    7.3606  -15.6494 H   0  0  0  0  0  0  0  0  0  0  0  0
 10 11  1  0  0  0
 11 12  2  0  0  0
 11 16  1  0  0  0
 12 13  1  0  0  0
 13 14  2  0  0  0
 13  1  1  0  0  0
 14 15  1  0  0  0
 15 16  2  0  0  0
  1  2  1  0  0  0
  1  7  1  0  0  0
  2  3  1  0  0  0
  2 24  1  0  0  0
  3  4  2  0  0  0
  3  5  1  0  0  0
  5  6  2  0  0  0
  5  7  1  0  0  0
  7  8  2  0  0  0
  8  9  1  0  0  0
  8 17  1  0  0  0
 17 18  2  0  0  0
 17 22  1  0  0  0
 18 19  1  0  0  0
 19 20  2  0  0  0
 20 21  1  0  0  0
 20 23  1  0  0  0
 21 22  2  0  0  0
 24 25  1  0  0  0
 25 26  1  0  0  0
 26 27  1  0  0  0
 27 28  1  0  0  0
 27 32  1  0  0  0
 28 29  1  0  0  0
 29 30  1  0  0  0
 30 31  1  0  0  0
 31 32  1  0  0  0
 27 33  1  0  0  0
M  CHG 1   9  -1
M  CHG 1  27   1
M  END
> <minimizedAffinity>
-8.48479

$$$$
182


 36 40  0  0  0  0  0  0  0  0999 V2000
    1.8610    7.8829  -14.2631 C   0  0  0  0  0  0  0  0  0  0  0  0
    3.2103    7.6220  -13.9007 N   0  0  0  0  0  0  0  0  0  0  0  0
    3.9343    8.7767  -14.4410 C   0  0  0  0  0  0  0  0  0  0  0  0
    5.1230    8.7954  -14.7982 O   0  0  0  0  0  0  0  0  0  0  0  0
    2.9704    9.8892  -14.4688 C   0  0  0  0  0  0  0  0  0  0  0  0
    3.1593   11.0665  -14.8508 O   0  0  0  0  0  0  0  0  0  0  0  0
    1.7234    9.3351  -13.9470 C   0  0  0  0  0  0  0  0  0  0  0  0
    0.7748    9.9848  -13.3234 C   0  0  0  0  0  0  0  0  0  0  0  0
   -0.3173    9.2266  -12.8482 O   0  0  0  0  0  0  0  0  0  0  0  0
    0.8026   11.4250  -13.1164 C   0  0  0  0  0  0  0  0  0  0  0  0
    1.6958   12.2253  -12.5169 N   0  0  0  0  0  0  0  0  0  0  0  0
    1.2561   13.4865  -12.5397 C   0  0  0  0  0  0  0  0  0  0  0  0
    0.0529   13.4828  -13.1717 N   0  0  0  0  0  0  0  0  0  0  0  0
   -0.2617   12.2349  -13.5432 C   0  0  0  0  0  0  0  0  0  0  0  0
   -1.4911   11.7947  -14.2613 C   0  0  0  0  0  0  0  0  0  0  0  0
    1.9996   14.5312  -11.9952 C   0  0  0  0  0  0  0  0  0  0  0  0
    3.2183   14.2097  -11.4302 C   0  0  0  0  0  0  0  0  0  0  0  0
    3.6447   12.8945  -11.4244 C   0  0  0  0  0  0  0  0  0  0  0  0
    2.8931   11.8806  -11.9664 C   0  0  0  0  0  0  0  0  0  0  0  0
    1.4605   15.9124  -12.0473 C   0  0  0  0  0  0  0  0  0  0  0  0
   -3.0699    6.1972  -15.2705 Br  0  0  0  0  0  0  0  0  0  0  0  0
   -1.4681    6.1989  -14.2194 C   0  0  0  0  0  0  0  0  0  0  0  0
   -0.3997    6.9833  -14.5672 C   0  0  0  0  0  0  0  0  0  0  0  0
    0.8015    7.0220  -13.8308 C   0  0  0  0  0  0  0  0  0  0  0  0
    0.7912    6.1954  -12.7290 C   0  0  0  0  0  0  0  0  0  0  0  0
   -0.2711    5.3980  -12.3609 C   0  0  0  0  0  0  0  0  0  0  0  0
   -1.4237    5.3943  -13.1129 C   0  0  0  0  0  0  0  0  0  0  0  0
    3.8932    6.5311  -13.2276 C   0  0  0  0  0  0  0  0  0  0  0  0
    5.2474    6.2065  -13.7565 C   0  0  0  0  0  0  0  0  0  0  0  0
    6.2438    6.0691  -12.7127 N   0  0  0  0  0  0  0  0  0  0  0  0
    6.8143    4.7405  -12.6967 C   0  0  0  0  0  0  0  0  0  0  0  0
    7.7468    4.5668  -13.8997 C   0  0  0  0  0  0  0  0  0  0  0  0
    8.8077    5.4544  -13.6886 O   0  0  0  0  0  0  0  0  0  0  0  0
    8.2695    6.7424  -13.8878 C   0  0  0  0  0  0  0  0  0  0  0  0
    7.2659    7.0920  -12.8143 C   0  0  0  0  0  0  0  0  0  0  0  0
    5.7800    6.2040  -11.7809 H   0  0  0  0  0  0  0  0  0  0  0  0
 21 22  1  0  0  0
 22 23  2  0  0  0
 22 27  1  0  0  0
 23 24  1  0  0  0
 24 25  2  0  0  0
 24  1  1  0  0  0
 25 26  1  0  0  0
 26 27  2  0  0  0
  1  2  1  0  0  0
  1  7  1  0  0  0
  2  3  1  0  0  0
  2 28  1  0  0  0
  3  4  2  0  0  0
  3  5  1  0  0  0
  5  6  2  0  0  0
  5  7  1  0  0  0
  7  8  2  0  0  0
  8  9  1  0  0  0
  8 10  1  0  0  0
 10 11  1  0  0  0
 10 14  2  0  0  0
 11 12  1  0  0  0
 11 19  1  0  0  0
 12 13  2  0  0  0
 12 16  1  0  0  0
 13 14  1  0  0  0
 14 15  1  0  0  0
 16 17  2  0  0  0
 16 20  1  0  0  0
 17 18  1  0  0  0
 18 19  2  0  0  0
 28 29  1  0  0  0
 29 30  1  0  0  0
 30 31  1  0  0  0
 30 35  1  0  0  0
 31 32  1  0  0  0
 32 33  1  0  0  0
 33 34  1  0  0  0
 34 35  1  0  0  0
 30 36  1  0  0  0
M  CHG 1   9  -1
M  CHG 1  30   1
M  END
> <minimizedAffinity>
-8.91916

$$$$
184


 33 36  0  0  0  0  0  0  0  0999 V2000
    2.4197    8.4431  -14.5182 C   0  0  0  0  0  0  0  0  0  0  0  0
    3.7748    7.9378  -14.4152 N   0  0  0  0  0  0  0  0  0  0  0  0
    4.6140    9.0429  -14.7768 C   0  0  0  0  0  0  0  0  0  0  0  0
    5.7669    9.0005  -15.2416 O   0  0  0  0  0  0  0  0  0  0  0  0
    3.8593   10.2581  -14.4956 C   0  0  0  0  0  0  0  0  0  0  0  0
    4.1730   11.4762  -14.6497 O   0  0  0  0  0  0  0  0  0  0  0  0
    2.5753    9.8249  -13.9656 C   0  0  0  0  0  0  0  0  0  0  0  0
    1.7633   10.5457  -13.2179 C   0  0  0  0  0  0  0  0  0  0  0  0
    0.5448    9.9424  -12.8756 O   0  0  0  0  0  0  0  0  0  0  0  0
    2.0413   11.8883  -12.7301 C   0  0  0  0  0  0  0  0  0  0  0  0
    1.2645   12.9760  -12.8395 N   0  0  0  0  0  0  0  0  0  0  0  0
    1.8365   14.0427  -12.2240 C   0  0  0  0  0  0  0  0  0  0  0  0
    3.0122   13.5709  -11.7240 N   0  0  0  0  0  0  0  0  0  0  0  0
    3.1733   12.2891  -12.0041 C   0  0  0  0  0  0  0  0  0  0  0  0
    4.2691   11.3482  -11.6823 C   0  0  0  0  0  0  0  0  0  0  0  0
    1.2516   15.2989  -12.1962 C   0  0  0  0  0  0  0  0  0  0  0  0
    0.0352   15.5020  -12.8145 C   0  0  0  0  0  0  0  0  0  0  0  0
   -0.5426   14.4054  -13.4436 C   0  0  0  0  0  0  0  0  0  0  0  0
    0.0608   13.1860  -13.4506 C   0  0  0  0  0  0  0  0  0  0  0  0
   -2.3425    6.0304  -14.2364 Br  0  0  0  0  0  0  0  0  0  0  0  0
   -0.6772    6.5604  -13.4915 C   0  0  0  0  0  0  0  0  0  0  0  0
    0.2232    7.2835  -14.2746 C   0  0  0  0  0  0  0  0  0  0  0  0
    1.4176    7.6747  -13.7699 C   0  0  0  0  0  0  0  0  0  0  0  0
    1.7177    7.3316  -12.4472 C   0  0  0  0  0  0  0  0  0  0  0  0
    0.8352    6.6253  -11.6854 C   0  0  0  0  0  0  0  0  0  0  0  0
   -0.3851    6.2181  -12.1790 C   0  0  0  0  0  0  0  0  0  0  0  0
    4.2200    6.5929  -14.0425 C   0  0  0  0  0  0  0  0  0  0  0  0
    5.3637    6.5861  -13.0960 C   0  0  0  0  0  0  0  0  0  0  0  0
    6.6630    6.0747  -13.5649 C   0  0  0  0  0  0  0  0  0  0  0  0
    7.6939    7.0333  -13.7600 N   0  0  0  0  0  0  0  0  0  0  0  0
    8.7714    6.4542  -14.5258 C   0  0  0  0  0  0  0  0  0  0  0  0
    8.2785    7.3904  -12.4537 C   0  0  0  0  0  0  0  0  0  0  0  0
    7.3683    7.9467  -14.1449 H   0  0  0  0  0  0  0  0  0  0  0  0
 20 21  1  0  0  0
 21 22  2  0  0  0
 21 26  1  0  0  0
 22 23  1  0  0  0
 23 24  2  0  0  0
 23  1  1  0  0  0
 24 25  1  0  0  0
 25 26  2  0  0  0
  1  2  1  0  0  0
  1  7  1  0  0  0
  2  3  1  0  0  0
  2 27  1  0  0  0
  3  4  2  0  0  0
  3  5  1  0  0  0
  5  6  2  0  0  0
  5  7  1  0  0  0
  7  8  2  0  0  0
  8  9  1  0  0  0
  8 10  1  0  0  0
 10 11  1  0  0  0
 10 14  2  0  0  0
 11 12  1  0  0  0
 11 19  1  0  0  0
 12 13  2  0  0  0
 12 16  1  0  0  0
 13 14  1  0  0  0
 14 15  1  0  0  0
 16 17  2  0  0  0
 17 18  1  0  0  0
 18 19  2  0  0  0
 27 28  1  0  0  0
 28 29  1  0  0  0
 29 30  1  0  0  0
 30 31  1  0  0  0
 30 32  1  0  0  0
 30 33  1  0  0  0
M  CHG 1   9  -1
M  CHG 1  30   1
M  END
> <minimizedAffinity>
-7.75866

$$$$
188


 31 34  0  0  0  0  0  0  0  0999 V2000
    2.9076    8.8144  -12.7191 C   0  0  0  0  0  0  0  0  0  0  0  0
    3.8614    8.4131  -13.7424 N   0  0  0  0  0  0  0  0  0  0  0  0
    3.1053    8.5538  -14.9685 C   0  0  0  0  0  0  0  0  0  0  0  0
    3.5708    8.7423  -16.1127 O   0  0  0  0  0  0  0  0  0  0  0  0
    1.6863    8.4414  -14.6585 C   0  0  0  0  0  0  0  0  0  0  0  0
    0.6703    8.5031  -15.3975 O   0  0  0  0  0  0  0  0  0  0  0  0
    1.6091    8.2277  -13.2139 C   0  0  0  0  0  0  0  0  0  0  0  0
    0.6577    7.6916  -12.5049 C   0  0  0  0  0  0  0  0  0  0  0  0
    0.8233    7.6396  -11.1044 O   0  0  0  0  0  0  0  0  0  0  0  0
   -0.5338   12.9066  -13.2445 Br  0  0  0  0  0  0  0  0  0  0  0  0
    1.2225   12.1995  -12.9384 C   0  0  0  0  0  0  0  0  0  0  0  0
    1.4617   10.8339  -12.9322 C   0  0  0  0  0  0  0  0  0  0  0  0
    2.7099   10.2941  -12.7137 C   0  0  0  0  0  0  0  0  0  0  0  0
    3.7533   11.1726  -12.4932 C   0  0  0  0  0  0  0  0  0  0  0  0
    3.5299   12.5515  -12.4955 C   0  0  0  0  0  0  0  0  0  0  0  0
    2.2685   13.0718  -12.7170 C   0  0  0  0  0  0  0  0  0  0  0  0
   -0.5339    7.1623  -13.1424 C   0  0  0  0  0  0  0  0  0  0  0  0
   -1.5574    7.9006  -13.4797 O   0  0  0  0  0  0  0  0  0  0  0  0
   -2.4972    7.1830  -14.0312 C   0  0  0  0  0  0  0  0  0  0  0  0
   -2.0772    5.8881  -14.0649 C   0  0  0  0  0  0  0  0  0  0  0  0
   -0.8024    5.8664  -13.4873 C   0  0  0  0  0  0  0  0  0  0  0  0
    5.2337    7.9896  -13.6541 C   0  0  0  0  0  0  0  0  0  0  0  0
    5.4181    6.4916  -13.7306 C   0  0  0  0  0  0  0  0  0  0  0  0
    6.6649    6.1089  -13.0369 C   0  0  0  0  0  0  0  0  0  0  0  0
    7.8266    6.8964  -13.3824 N   0  0  0  0  0  0  0  0  0  0  0  0
    8.6362    7.2233  -12.2322 C   0  0  0  0  0  0  0  0  0  0  0  0
    9.7858    6.3103  -11.9954 C   0  0  0  0  0  0  0  0  0  0  0  0
   10.4801    5.9232  -13.1221 O   0  0  0  0  0  0  0  0  0  0  0  0
    9.6672    5.4509  -14.1438 C   0  0  0  0  0  0  0  0  0  0  0  0
    8.5767    6.4288  -14.4983 C   0  0  0  0  0  0  0  0  0  0  0  0
    7.4155    7.8356  -13.6867 H   0  0  0  0  0  0  0  0  0  0  0  0
 10 11  1  0  0  0
 11 12  2  0  0  0
 11 16  1  0  0  0
 12 13  1  0  0  0
 13 14  2  0  0  0
 13  1  1  0  0  0
 14 15  1  0  0  0
 15 16  2  0  0  0
  1  2  1  0  0  0
  1  7  1  0  0  0
  2  3  1  0  0  0
  2 22  1  0  0  0
  3  4  2  0  0  0
  3  5  1  0  0  0
  5  6  2  0  0  0
  5  7  1  0  0  0
  7  8  2  0  0  0
  8  9  1  0  0  0
  8 17  1  0  0  0
 17 18  1  0  0  0
 17 21  2  0  0  0
 18 19  1  0  0  0
 19 20  2  0  0  0
 20 21  1  0  0  0
 22 23  1  0  0  0
 23 24  1  0  0  0
 24 25  1  0  0  0
 25 26  1  0  0  0
 25 30  1  0  0  0
 26 27  1  0  0  0
 27 28  1  0  0  0
 28 29  1  0  0  0
 29 30  1  0  0  0
 25 31  1  0  0  0
M  CHG 1   9  -1
M  CHG 1  25   1
M  END
> <minimizedAffinity>
-7.45596

$$$$
191


 34 37  0  0  0  0  0  0  0  0999 V2000
    0.5032    9.5536  -14.2458 C   0  0  0  0  0  0  0  0  0  0  0  0
   -0.4966    8.7229  -13.6060 N   0  0  0  0  0  0  0  0  0  0  0  0
    0.1421    8.1782  -12.4308 C   0  0  0  0  0  0  0  0  0  0  0  0
   -0.4516    7.7494  -11.4119 O   0  0  0  0  0  0  0  0  0  0  0  0
    1.5865    8.2306  -12.6760 C   0  0  0  0  0  0  0  0  0  0  0  0
    2.5219    7.8599  -11.9210 O   0  0  0  0  0  0  0  0  0  0  0  0
    1.7938    8.8089  -13.9985 C   0  0  0  0  0  0  0  0  0  0  0  0
    2.8637    8.7060  -14.7684 C   0  0  0  0  0  0  0  0  0  0  0  0
    2.8806    9.3424  -15.9839 O   0  0  0  0  0  0  0  0  0  0  0  0
    4.0387    7.9191  -14.3494 C   0  0  0  0  0  0  0  0  0  0  0  0
    4.0239    6.6612  -14.0007 O   0  0  0  0  0  0  0  0  0  0  0  0
    5.1849    6.2001  -13.6749 C   0  0  0  0  0  0  0  0  0  0  0  0
    6.0758    7.2370  -13.8129 C   0  0  0  0  0  0  0  0  0  0  0  0
    5.3469    8.3267  -14.2405 C   0  0  0  0  0  0  0  0  0  0  0  0
    7.4012    7.0006  -13.5201 C   0  0  0  0  0  0  0  0  0  0  0  0
    7.8423    5.7628  -13.0977 C   0  0  0  0  0  0  0  0  0  0  0  0
    6.9007    4.7363  -12.9722 C   0  0  0  0  0  0  0  0  0  0  0  0
    5.5730    4.9346  -13.2547 C   0  0  0  0  0  0  0  0  0  0  0  0
    4.6823    3.9004  -13.1204 O   0  0  0  0  0  0  0  0  0  0  0  0
    4.5537    2.7950  -13.9560 C   0  0  0  0  0  0  0  0  0  0  0  0
    3.5168   13.2560  -11.7978 Br  0  0  0  0  0  0  0  0  0  0  0  0
    1.8569   12.6691  -12.5764 C   0  0  0  0  0  0  0  0  0  0  0  0
    1.7478   11.4160  -13.1060 C   0  0  0  0  0  0  0  0  0  0  0  0
    0.5753   10.9273  -13.6863 C   0  0  0  0  0  0  0  0  0  0  0  0
   -0.4852   11.8062  -13.6927 C   0  0  0  0  0  0  0  0  0  0  0  0
   -0.3859   13.0872  -13.1557 C   0  0  0  0  0  0  0  0  0  0  0  0
    0.7866   13.5133  -12.5999 C   0  0  0  0  0  0  0  0  0  0  0  0
   -1.8604    8.4832  -14.0107 C   0  0  0  0  0  0  0  0  0  0  0  0
   -2.7987    9.5181  -13.4386 C   0  0  0  0  0  0  0  0  0  0  0  0
   -3.9356    9.8953  -14.3178 C   0  0  0  0  0  0  0  0  0  0  0  0
   -5.1751    9.2506  -14.0150 N   0  0  0  0  0  0  0  0  0  0  0  0
   -5.4689    8.2052  -14.9993 C   0  0  0  0  0  0  0  0  0  0  0  0
   -6.2747   10.1628  -13.9454 C   0  0  0  0  0  0  0  0  0  0  0  0
   -5.1440    8.7298  -13.0919 H   0  0  0  0  0  0  0  0  0  0  0  0
 21 22  1  0  0  0
 22 23  2  0  0  0
 22 27  1  0  0  0
 23 24  1  0  0  0
 24 25  2  0  0  0
 24  1  1  0  0  0
 25 26  1  0  0  0
 26 27  2  0  0  0
  1  2  1  0  0  0
  1  7  1  0  0  0
  2  3  1  0  0  0
  2 28  1  0  0  0
  3  4  2  0  0  0
  3  5  1  0  0  0
  5  6  2  0  0  0
  5  7  1  0  0  0
  7  8  2  0  0  0
  8  9  1  0  0  0
  8 10  1  0  0  0
 10 11  1  0  0  0
 10 14  2  0  0  0
 11 12  1  0  0  0
 12 13  2  0  0  0
 12 18  1  0  0  0
 13 14  1  0  0  0
 13 15  1  0  0  0
 15 16  2  0  0  0
 16 17  1  0  0  0
 17 18  2  0  0  0
 18 19  1  0  0  0
 19 20  1  0  0  0
 28 29  1  0  0  0
 29 30  1  0  0  0
 30 31  1  0  0  0
 31 32  1  0  0  0
 31 33  1  0  0  0
 31 34  1  0  0  0
M  CHG 1   9  -1
M  CHG 1  31   1
M  END
> <minimizedAffinity>
-9.28533

$$$$
199


 25 28  0  0  0  0  0  0  0  0999 V2000
   -4.7938    8.8661  -13.8809 C   0  0  0  0  0  0  0  0  0  0  0  0
   -5.8968    9.0872  -14.8830 C   0  0  0  0  0  0  0  0  0  0  0  0
   -6.5423   10.0694  -13.9992 N   0  0  0  0  0  0  0  0  0  0  0  0
   -5.7581    9.4978  -12.9201 C   0  0  0  0  0  0  0  0  0  0  0  0
   -7.5063   11.0939  -14.2059 C   0  0  0  0  0  0  0  0  0  0  0  0
   -7.6775   12.1131  -13.3244 N   0  0  0  0  0  0  0  0  0  0  0  0
   -8.6102   13.0852  -13.5466 C   0  0  0  0  0  0  0  0  0  0  0  0
   -9.3839   13.0665  -14.6362 N   0  0  0  0  0  0  0  0  0  0  0  0
   -9.2695   12.0950  -15.5434 C   0  0  0  0  0  0  0  0  0  0  0  0
   -9.9178   11.8550  -16.7006 N   0  0  0  0  0  0  0  0  0  0  0  0
   -9.3994   10.7514  -17.1942 N   0  0  0  0  0  0  0  0  0  0  0  0
   -8.4416   10.2817  -16.3869 N   0  0  0  0  0  0  0  0  0  0  0  0
   -8.3263   11.1133  -15.3168 C   0  0  0  0  0  0  0  0  0  0  0  0
  -10.9853   12.6401  -17.3150 C   0  0  0  0  0  0  0  0  0  0  0  0
   -2.5294    9.6936  -13.1911 N   0  0  0  0  0  0  0  0  0  0  0  0
   -3.5559    9.6784  -14.1480 C   0  0  0  0  0  0  0  0  0  0  0  0
   -3.5493   10.2871  -15.2279 O   0  0  0  0  0  0  0  0  0  0  0  0
   -2.6589    9.1152  -12.2818 H   0  0  0  0  0  0  0  0  0  0  0  0
   -0.2653   14.4681  -13.0613 Br  0  0  0  0  0  0  0  0  0  0  0  0
   -0.2000   12.5741  -13.2602 C   0  0  0  0  0  0  0  0  0  0  0  0
   -1.3339   11.8019  -13.1635 C   0  0  0  0  0  0  0  0  0  0  0  0
   -1.3200   10.4062  -13.3052 C   0  0  0  0  0  0  0  0  0  0  0  0
   -0.1013    9.8374  -13.5483 C   0  0  0  0  0  0  0  0  0  0  0  0
    1.0448   10.6303  -13.6454 C   0  0  0  0  0  0  0  0  0  0  0  0
    1.0027   11.9805  -13.5040 C   0  0  0  0  0  0  0  0  0  0  0  0
 19 20  1  0  0  0
 20 21  2  0  0  0
 20 25  1  0  0  0
 21 22  1  0  0  0
 22 23  2  0  0  0
 22 15  1  0  0  0
 23 24  1  0  0  0
 24 25  2  0  0  0
 15 16  1  0  0  0
 16 17  2  0  0  0
 16  1  1  0  0  0
  1  2  1  0  0  0
  1  4  1  0  0  0
  2  3  1  0  0  0
  3  4  1  0  0  0
  3  5  1  0  0  0
  5  6  2  0  0  0
  5 13  1  0  0  0
  6  7  1  0  0  0
  7  8  2  0  0  0
  8  9  1  0  0  0
  9 10  1  0  0  0
  9 13  2  0  0  0
 10 11  1  0  0  0
 10 14  1  0  0  0
 11 12  2  0  0  0
 12 13  1  0  0  0
 15 18  1  0  0  0
M  END
> <minimizedAffinity>
-9.24994

$$$$
200


 21 24  0  0  0  0  0  0  0  0999 V2000
   -4.7335    9.2518  -14.5003 C   0  0  0  0  0  0  0  0  0  0  0  0
   -4.0676   10.3053  -14.0399 N   0  0  0  0  0  0  0  0  0  0  0  0
   -2.7568   10.3257  -13.7459 C   0  0  0  0  0  0  0  0  0  0  0  0
   -1.8770   11.2313  -13.2840 N   0  0  0  0  0  0  0  0  0  0  0  0
   -0.6905   10.7219  -13.1743 O   0  0  0  0  0  0  0  0  0  0  0  0
   -0.7594    9.4954  -13.5539 N   0  0  0  0  0  0  0  0  0  0  0  0
   -2.0086    9.1706  -13.9252 C   0  0  0  0  0  0  0  0  0  0  0  0
   -2.6376    8.0798  -14.3875 N   0  0  0  0  0  0  0  0  0  0  0  0
   -2.1436    6.8699  -14.6381 N   0  0  0  0  0  0  0  0  0  0  0  0
   -3.1579    6.1137  -15.0849 N   0  0  0  0  0  0  0  0  0  0  0  0
   -4.2579    6.8690  -15.1029 N   0  0  0  0  0  0  0  0  0  0  0  0
   -3.9491    8.0945  -14.6714 C   0  0  0  0  0  0  0  0  0  0  0  0
   -6.1094    9.1835  -14.8224 N   0  0  0  0  0  0  0  0  0  0  0  0
   -6.5108    8.2850  -15.2161 H   0  0  0  0  0  0  0  0  0  0  0  0
  -10.0854   12.2478  -16.7117 Br  0  0  0  0  0  0  0  0  0  0  0  0
   -8.8331   11.7239  -15.3727 C   0  0  0  0  0  0  0  0  0  0  0  0
   -7.9500   10.6754  -15.5723 C   0  0  0  0  0  0  0  0  0  0  0  0
   -7.0254   10.2439  -14.6600 C   0  0  0  0  0  0  0  0  0  0  0  0
   -7.0283   10.9670  -13.4482 C   0  0  0  0  0  0  0  0  0  0  0  0
   -7.8892   12.0111  -13.2164 C   0  0  0  0  0  0  0  0  0  0  0  0
   -8.7963   12.3957  -14.1784 C   0  0  0  0  0  0  0  0  0  0  0  0
 15 16  1  0  0  0
 16 17  2  0  0  0
 16 21  1  0  0  0
 17 18  1  0  0  0
 18 19  2  0  0  0
 18 13  1  0  0  0
 19 20  1  0  0  0
 20 21  2  0  0  0
 13  1  1  0  0  0
  1  2  2  0  0  0
  1 12  1  0  0  0
  2  3  1  0  0  0
  3  4  2  0  0  0
  3  7  1  0  0  0
  4  5  1  0  0  0
  5  6  1  0  0  0
  6  7  2  0  0  0
  7  8  1  0  0  0
  8  9  1  0  0  0
  8 12  1  0  0  0
  9 10  2  0  0  0
 10 11  1  0  0  0
 11 12  2  0  0  0
 13 14  1  0  0  0
M  END
> <minimizedAffinity>
-8.33897

$$$$
201


 25 28  0  0  0  0  0  0  0  0999 V2000
   -4.9252    8.8817  -14.7004 C   0  0  0  0  0  0  0  0  0  0  0  0
   -5.2684    7.7364  -15.0854 O   0  0  0  0  0  0  0  0  0  0  0  0
   -5.8900    9.9093  -14.6751 N   0  0  0  0  0  0  0  0  0  0  0  0
   -5.5859   10.8551  -14.3521 H   0  0  0  0  0  0  0  0  0  0  0  0
   -1.6376   10.0574  -13.7291 N   0  0  0  0  0  0  0  0  0  0  0  0
   -1.4762    8.7609  -13.7089 N   0  0  0  0  0  0  0  0  0  0  0  0
   -2.5980    8.1451  -14.0453 N   0  0  0  0  0  0  0  0  0  0  0  0
   -3.5395    9.0867  -14.2972 C   0  0  0  0  0  0  0  0  0  0  0  0
   -2.9097   10.2929  -14.0905 C   0  0  0  0  0  0  0  0  0  0  0  0
    3.4327   11.6851  -13.2316 Br  0  0  0  0  0  0  0  0  0  0  0  0
    1.5456   11.9501  -13.1800 C   0  0  0  0  0  0  0  0  0  0  0  0
    0.6655   10.9034  -13.4740 C   0  0  0  0  0  0  0  0  0  0  0  0
   -0.6939   11.0968  -13.4357 C   0  0  0  0  0  0  0  0  0  0  0  0
   -1.1597   12.3494  -13.1001 C   0  0  0  0  0  0  0  0  0  0  0  0
   -0.2898   13.4044  -12.8036 C   0  0  0  0  0  0  0  0  0  0  0  0
    1.0704   13.1991  -12.8446 C   0  0  0  0  0  0  0  0  0  0  0  0
   -7.2714    9.7446  -15.0669 C   0  0  0  0  0  0  0  0  0  0  0  0
   -8.0594   11.0011  -14.8155 C   0  0  0  0  0  0  0  0  0  0  0  0
   -9.0130   11.5629  -15.5967 N   0  0  0  0  0  0  0  0  0  0  0  0
   -9.4708   12.6749  -15.0121 C   0  0  0  0  0  0  0  0  0  0  0  0
   -8.7823   12.7953  -13.8516 N   0  0  0  0  0  0  0  0  0  0  0  0
   -7.9366   11.7912  -13.7338 N   0  0  0  0  0  0  0  0  0  0  0  0
  -10.5360   13.3311  -15.8541 C   0  0  0  0  0  0  0  0  0  0  0  0
  -10.2853   12.6735  -17.1948 C   0  0  0  0  0  0  0  0  0  0  0  0
   -9.6762   11.3235  -16.8670 C   0  0  0  0  0  0  0  0  0  0  0  0
 10 11  1  0  0  0
 11 12  2  0  0  0
 11 16  1  0  0  0
 12 13  1  0  0  0
 13 14  2  0  0  0
 13  5  1  0  0  0
 14 15  1  0  0  0
 15 16  2  0  0  0
  5  6  1  0  0  0
  5  9  1  0  0  0
  6  7  2  0  0  0
  7  8  1  0  0  0
  8  9  2  0  0  0
  8  1  1  0  0  0
  1  2  2  0  0  0
  1  3  1  0  0  0
  3 17  1  0  0  0
 17 18  1  0  0  0
 18 19  1  0  0  0
 18 22  2  0  0  0
 19 20  1  0  0  0
 19 25  1  0  0  0
 20 21  2  0  0  0
 20 23  1  0  0  0
 21 22  1  0  0  0
 23 24  1  0  0  0
 24 25  1  0  0  0
  3  4  1  0  0  0
M  END
> <minimizedAffinity>
-9.57670

$$$$
205


 25 28  0  0  0  0  0  0  0  0999 V2000
   -4.7196    8.6910  -14.3148 N   0  0  0  0  0  0  0  0  0  0  0  0
   -4.6384    7.3450  -14.8252 C   0  0  0  0  0  0  0  0  0  0  0  0
   -5.6152    6.5439  -14.8457 O   0  0  0  0  0  0  0  0  0  0  0  0
   -3.2780    7.0910  -15.2954 C   0  0  0  0  0  0  0  0  0  0  0  0
   -2.7584    5.8393  -15.1160 O   0  0  0  0  0  0  0  0  0  0  0  0
   -1.4120    6.1113  -14.8840 N   0  0  0  0  0  0  0  0  0  0  0  0
   -1.3305    7.2666  -14.0840 C   0  0  0  0  0  0  0  0  0  0  0  0
   -2.4852    7.9107  -14.3046 C   0  0  0  0  0  0  0  0  0  0  0  0
   -3.3606    9.0345  -13.9923 C   0  0  0  0  0  0  0  0  0  0  0  0
   -2.9873   10.1271  -13.5160 O   0  0  0  0  0  0  0  0  0  0  0  0
   -0.6170    5.5626  -15.2350 H   0  0  0  0  0  0  0  0  0  0  0  0
   -8.9222   11.0866  -16.5608 Br  0  0  0  0  0  0  0  0  0  0  0  0
   -7.8003   10.6483  -15.0823 C   0  0  0  0  0  0  0  0  0  0  0  0
   -6.6905    9.8510  -15.2050 C   0  0  0  0  0  0  0  0  0  0  0  0
   -5.8528    9.5173  -14.1429 C   0  0  0  0  0  0  0  0  0  0  0  0
   -6.2103   10.0503  -12.9142 C   0  0  0  0  0  0  0  0  0  0  0  0
   -7.3201   10.8493  -12.7798 C   0  0  0  0  0  0  0  0  0  0  0  0
   -8.1449   11.1725  -13.8533 C   0  0  0  0  0  0  0  0  0  0  0  0
   -0.2396    7.7274  -13.2393 C   0  0  0  0  0  0  0  0  0  0  0  0
    0.9227    8.3455  -13.7101 C   0  0  0  0  0  0  0  0  0  0  0  0
    1.6784    8.6537  -12.6749 N   0  0  0  0  0  0  0  0  0  0  0  0
    1.0545    8.2611  -11.5669 N   0  0  0  0  0  0  0  0  0  0  0  0
   -0.1009    7.6994  -11.8799 C   0  0  0  0  0  0  0  0  0  0  0  0
    2.9854    9.3078  -12.7078 C   0  0  0  0  0  0  0  0  0  0  0  0
    1.2683    8.5902  -15.1301 C   0  0  0  0  0  0  0  0  0  0  0  0
 12 13  1  0  0  0
 13 14  2  0  0  0
 13 18  1  0  0  0
 14 15  1  0  0  0
 15 16  2  0  0  0
 15  1  1  0  0  0
 16 17  1  0  0  0
 17 18  2  0  0  0
  1  2  1  0  0  0
  1  9  1  0  0  0
  2  3  2  0  0  0
  2  4  1  0  0  0
  4  5  1  0  0  0
  4  8  1  0  0  0
  5  6  1  0  0  0
  6  7  1  0  0  0
  7  8  2  0  0  0
  7 19  1  0  0  0
  8  9  1  0  0  0
  9 10  2  0  0  0
 19 20  2  0  0  0
 19 23  1  0  0  0
 20 21  1  0  0  0
 20 25  1  0  0  0
 21 22  1  0  0  0
 21 24  1  0  0  0
 22 23  2  0  0  0
  6 11  1  0  0  0
M  END
> <minimizedAffinity>
-8.47236

$$$$
211


 22 25  0  0  0  0  0  0  0  0999 V2000
   -0.3432    9.1154  -13.2434 N   0  0  0  0  0  0  0  0  0  0  0  0
    0.5506    8.5101  -12.3201 C   0  0  0  0  0  0  0  0  0  0  0  0
    0.2143    7.6269  -11.4474 O   0  0  0  0  0  0  0  0  0  0  0  0
    1.8988    9.0562  -12.5317 C   0  0  0  0  0  0  0  0  0  0  0  0
    2.6287    8.1554  -13.4795 C   0  0  0  0  0  0  0  0  0  0  0  0
    1.9219    8.4447  -14.6748 O   0  0  0  0  0  0  0  0  0  0  0  0
    2.2433    9.8275  -14.7140 C   0  0  0  0  0  0  0  0  0  0  0  0
    1.6688   10.2740  -13.3823 C   0  0  0  0  0  0  0  0  0  0  0  0
    0.2079   10.3799  -13.5697 C   0  0  0  0  0  0  0  0  0  0  0  0
   -0.4133   11.4070  -13.9492 O   0  0  0  0  0  0  0  0  0  0  0  0
    3.7203    9.7463  -14.6476 C   0  0  0  0  0  0  0  0  0  0  0  0
    3.9672    8.6690  -13.8787 C   0  0  0  0  0  0  0  0  0  0  0  0
   -5.5356    9.8403  -14.0183 Br  0  0  0  0  0  0  0  0  0  0  0  0
   -3.9618    8.7678  -14.1564 C   0  0  0  0  0  0  0  0  0  0  0  0
   -2.7754    9.2443  -13.6982 C   0  0  0  0  0  0  0  0  0  0  0  0
   -1.5756    8.5512  -13.7481 C   0  0  0  0  0  0  0  0  0  0  0  0
   -1.6231    7.2949  -14.3079 C   0  0  0  0  0  0  0  0  0  0  0  0
   -2.8272    6.7753  -14.7895 C   0  0  0  0  0  0  0  0  0  0  0  0
   -3.9951    7.5053  -14.7158 C   0  0  0  0  0  0  0  0  0  0  0  0
    2.6182    6.7168  -13.1264 C   0  0  0  0  0  0  0  0  0  0  0  0
    3.9339    6.2507  -13.1080 O   0  0  0  0  0  0  0  0  0  0  0  0
    4.0045    5.4025  -13.6131 H   0  0  0  0  0  0  0  0  0  0  0  0
 13 14  1  0  0  0
 14 15  2  0  0  0
 14 19  1  0  0  0
 15 16  1  0  0  0
 16 17  2  0  0  0
 16  1  1  0  0  0
 17 18  1  0  0  0
 18 19  2  0  0  0
  1  2  1  0  0  0
  1  9  1  0  0  0
  2  3  2  0  0  0
  2  4  1  0  0  0
  4  5  1  0  0  0
  4  8  1  0  0  0
  5  6  1  0  0  0
  5 12  1  0  0  0
  5 20  1  0  0  0
  6  7  1  0  0  0
  7  8  1  0  0  0
  7 11  1  0  0  0
  8  9  1  0  0  0
  9 10  2  0  0  0
 11 12  2  0  0  0
 20 21  1  0  0  0
 21 22  1  0  0  0
M  END
> <minimizedAffinity>
-8.04645

$$$$
213


 25 28  0  0  0  0  0  0  0  0999 V2000
    1.9654   11.9457  -13.0154 N   0  0  0  0  0  0  0  0  0  0  0  0
    3.2946   11.4014  -13.1686 C   0  0  0  0  0  0  0  0  0  0  0  0
    4.3285   11.7366  -12.5803 O   0  0  0  0  0  0  0  0  0  0  0  0
    3.2208   10.3205  -14.1939 C   0  0  0  0  0  0  0  0  0  0  0  0
    4.0556    9.2456  -13.9493 O   0  0  0  0  0  0  0  0  0  0  0  0
    3.3425    8.2098  -14.5051 N   0  0  0  0  0  0  0  0  0  0  0  0
    1.9923    8.4260  -14.0573 C   0  0  0  0  0  0  0  0  0  0  0  0
    1.8738    9.7157  -13.8525 C   0  0  0  0  0  0  0  0  0  0  0  0
    1.0842   10.8845  -13.4462 C   0  0  0  0  0  0  0  0  0  0  0  0
   -0.1506   10.9011  -13.4870 O   0  0  0  0  0  0  0  0  0  0  0  0
    3.6694    7.4443  -15.1043 H   0  0  0  0  0  0  0  0  0  0  0  0
   -1.0555   16.2485  -13.5719 Br  0  0  0  0  0  0  0  0  0  0  0  0
    0.3218   15.2575  -12.7105 C   0  0  0  0  0  0  0  0  0  0  0  0
    0.6529   13.9727  -13.1529 C   0  0  0  0  0  0  0  0  0  0  0  0
    1.6465   13.2398  -12.5444 C   0  0  0  0  0  0  0  0  0  0  0  0
    2.3019   13.8160  -11.4847 C   0  0  0  0  0  0  0  0  0  0  0  0
    1.9730   15.1038  -11.0380 C   0  0  0  0  0  0  0  0  0  0  0  0
    0.9776   15.8359  -11.6490 C   0  0  0  0  0  0  0  0  0  0  0  0
    0.9501    7.4574  -13.8494 C   0  0  0  0  0  0  0  0  0  0  0  0
   -0.2267    7.4523  -14.5952 C   0  0  0  0  0  0  0  0  0  0  0  0
   -1.0072    6.4318  -14.1961 N   0  0  0  0  0  0  0  0  0  0  0  0
   -0.3370    5.8223  -13.2333 N   0  0  0  0  0  0  0  0  0  0  0  0
    0.8400    6.3927  -12.9848 C   0  0  0  0  0  0  0  0  0  0  0  0
    1.8758    5.9829  -11.9773 C   0  0  0  0  0  0  0  0  0  0  0  0
   -2.3333    6.0803  -14.7297 C   0  0  0  0  0  0  0  0  0  0  0  0
 12 13  1  0  0  0
 13 14  2  0  0  0
 13 18  1  0  0  0
 14 15  1  0  0  0
 15 16  2  0  0  0
 15  1  1  0  0  0
 16 17  1  0  0  0
 17 18  2  0  0  0
  1  2  1  0  0  0
  1  9  1  0  0  0
  2  3  2  0  0  0
  2  4  1  0  0  0
  4  5  1  0  0  0
  4  8  1  0  0  0
  5  6  1  0  0  0
  6  7  1  0  0  0
  7  8  2  0  0  0
  7 19  1  0  0  0
  8  9  1  0  0  0
  9 10  2  0  0  0
 19 20  2  0  0  0
 19 23  1  0  0  0
 20 21  1  0  0  0
 21 22  1  0  0  0
 21 25  1  0  0  0
 22 23  2  0  0  0
 23 24  1  0  0  0
  6 11  1  0  0  0
M  END
> <minimizedAffinity>
-8.70165

$$$$
216


 28 31  0  0  0  0  0  0  0  0999 V2000
    2.6189   11.7552  -12.3301 C   0  0  0  0  0  0  0  0  0  0  0  0
    2.8438   11.6094  -11.1026 O   0  0  0  0  0  0  0  0  0  0  0  0
    2.6367   10.6639  -13.2243 N   0  0  0  0  0  0  0  0  0  0  0  0
    2.3789   10.7950  -14.6516 C   0  0  0  0  0  0  0  0  0  0  0  0
    1.8021    9.4833  -15.1686 C   0  0  0  0  0  0  0  0  0  0  0  0
    1.0930    8.7398  -14.1459 N   0  0  0  0  0  0  0  0  0  0  0  0
    2.0226    8.2698  -13.1798 C   0  0  0  0  0  0  0  0  0  0  0  0
    2.9298    9.3368  -12.6685 C   0  0  0  0  0  0  0  0  0  0  0  0
    1.4908   15.1547  -12.5903 N   0  0  0  0  0  0  0  0  0  0  0  0
    1.5218   13.9258  -11.8113 C   0  0  0  0  0  0  0  0  0  0  0  0
    2.3333   13.0884  -12.8218 C   0  0  0  0  0  0  0  0  0  0  0  0
    3.5591   14.0066  -12.8852 C   0  0  0  0  0  0  0  0  0  0  0  0
    2.8426   15.3064  -13.0089 C   0  0  0  0  0  0  0  0  0  0  0  0
    3.3522   16.3742  -13.4196 O   0  0  0  0  0  0  0  0  0  0  0  0
   -1.8214   18.6973  -10.5910 Br  0  0  0  0  0  0  0  0  0  0  0  0
   -1.2685   17.5677  -12.0002 C   0  0  0  0  0  0  0  0  0  0  0  0
   -0.1326   16.7828  -11.8363 C   0  0  0  0  0  0  0  0  0  0  0  0
    0.3335   15.9323  -12.8216 C   0  0  0  0  0  0  0  0  0  0  0  0
   -0.4002   15.9059  -13.9872 C   0  0  0  0  0  0  0  0  0  0  0  0
   -1.5350   16.6559  -14.2170 C   0  0  0  0  0  0  0  0  0  0  0  0
   -1.9625   17.4900  -13.2068 C   0  0  0  0  0  0  0  0  0  0  0  0
   -0.0513    9.4300  -13.6669 C   0  0  0  0  0  0  0  0  0  0  0  0
   -1.0804    8.5396  -13.0184 C   0  0  0  0  0  0  0  0  0  0  0  0
   -1.9864    7.9219  -13.9437 N   0  0  0  0  0  0  0  0  0  0  0  0
   -3.1472    8.3887  -14.4071 C   0  0  0  0  0  0  0  0  0  0  0  0
   -3.6892    7.4883  -15.2551 N   0  0  0  0  0  0  0  0  0  0  0  0
   -2.8639    6.4378  -15.3315 C   0  0  0  0  0  0  0  0  0  0  0  0
   -1.8007    6.7196  -14.5058 C   0  0  0  0  0  0  0  0  0  0  0  0
 15 16  1  0  0  0
 16 17  2  0  0  0
 16 21  1  0  0  0
 17 18  1  0  0  0
 18 19  2  0  0  0
 18  9  1  0  0  0
 19 20  1  0  0  0
 20 21  2  0  0  0
  9 10  1  0  0  0
  9 13  1  0  0  0
 10 11  1  0  0  0
 11 12  1  0  0  0
 11  1  1  0  0  0
 12 13  1  0  0  0
 13 14  2  0  0  0
  1  2  2  0  0  0
  1  3  1  0  0  0
  3  4  1  0  0  0
  3  8  1  0  0  0
  4  5  1  0  0  0
  5  6  1  0  0  0
  6  7  1  0  0  0
  6 22  1  0  0  0
  7  8  1  0  0  0
 22 23  1  0  0  0
 23 24  1  0  0  0
 24 25  1  0  0  0
 24 28  1  0  0  0
 25 26  2  0  0  0
 26 27  1  0  0  0
 27 28  2  0  0  0
M  END
> <minimizedAffinity>
-7.74540

$$$$
219


 27 30  0  0  0  0  0  0  0  0999 V2000
   -2.8893    9.6928  -13.5284 N   0  0  0  0  0  0  0  0  0  0  0  0
   -2.0932    8.5145  -13.5247 C   0  0  0  0  0  0  0  0  0  0  0  0
   -2.4512    7.6175  -14.3654 O   0  0  0  0  0  0  0  0  0  0  0  0
   -2.6404   10.4585  -12.8675 H   0  0  0  0  0  0  0  0  0  0  0  0
   -0.9304    8.2790  -12.6443 C   0  0  0  0  0  0  0  0  0  0  0  0
    0.3375    8.6487  -13.2117 N   0  0  0  0  0  0  0  0  0  0  0  0
    1.5048    7.8211  -13.0742 C   0  0  0  0  0  0  0  0  0  0  0  0
    1.6944    6.8875  -12.2551 O   0  0  0  0  0  0  0  0  0  0  0  0
    2.4763    8.2555  -14.0778 C   0  0  0  0  0  0  0  0  0  0  0  0
    1.8258    9.4145  -14.8593 C   0  0  0  0  0  0  0  0  0  0  0  0
    2.8247   10.5172  -14.8734 C   0  0  0  0  0  0  0  0  0  0  0  0
    4.1408    9.7158  -14.7872 C   0  0  0  0  0  0  0  0  0  0  0  0
    3.6903    8.9515  -13.5262 C   0  0  0  0  0  0  0  0  0  0  0  0
    3.2276   10.1235  -12.7084 C   0  0  0  0  0  0  0  0  0  0  0  0
    2.8512   11.1114  -13.5136 C   0  0  0  0  0  0  0  0  0  0  0  0
    0.6894    9.8042  -13.9845 C   0  0  0  0  0  0  0  0  0  0  0  0
    0.1285   10.9112  -13.9101 O   0  0  0  0  0  0  0  0  0  0  0  0
   -4.0120    9.8663  -14.3993 C   0  0  0  0  0  0  0  0  0  0  0  0
   -5.3122    9.4631  -13.6860 C   0  0  0  0  0  0  0  0  0  0  0  0
   -6.2802   10.2794  -13.9486 O   0  0  0  0  0  0  0  0  0  0  0  0
  -10.1205   11.2310  -17.3276 Br  0  0  0  0  0  0  0  0  0  0  0  0
   -9.1371   11.5476  -15.7218 C   0  0  0  0  0  0  0  0  0  0  0  0
   -8.0411   10.8019  -15.3837 C   0  0  0  0  0  0  0  0  0  0  0  0
   -7.2987   11.0132  -14.2077 C   0  0  0  0  0  0  0  0  0  0  0  0
   -7.7711   12.0624  -13.3935 C   0  0  0  0  0  0  0  0  0  0  0  0
   -8.8707   12.8128  -13.7305 C   0  0  0  0  0  0  0  0  0  0  0  0
   -9.5593   12.5567  -14.8994 C   0  0  0  0  0  0  0  0  0  0  0  0
 21 22  1  0  0  0
 22 23  2  0  0  0
 22 27  1  0  0  0
 23 24  1  0  0  0
 24 25  2  0  0  0
 24 20  1  0  0  0
 25 26  1  0  0  0
 26 27  2  0  0  0
 20 19  1  0  0  0
 19 18  1  0  0  0
 18  1  1  0  0  0
  1  2  1  0  0  0
  2  3  2  0  0  0
  2  5  1  0  0  0
  5  6  1  0  0  0
  6  7  1  0  0  0
  6 16  1  0  0  0
  7  8  2  0  0  0
  7  9  1  0  0  0
  9 10  1  0  0  0
  9 13  1  0  0  0
 10 11  1  0  0  0
 10 16  1  0  0  0
 11 12  1  0  0  0
 11 15  1  0  0  0
 12 13  1  0  0  0
 13 14  1  0  0  0
 14 15  2  0  0  0
 16 17  2  0  0  0
  1  4  1  0  0  0
M  END
> <minimizedAffinity>
-8.98409

$$$$
226


 30 33  0  0  0  0  0  0  0  0999 V2000
    0.4369    8.6598  -13.7480 N   0  0  0  0  0  0  0  0  0  0  0  0
   -0.7705    8.1249  -13.9948 C   0  0  0  0  0  0  0  0  0  0  0  0
   -1.7493    9.0856  -13.8269 C   0  0  0  0  0  0  0  0  0  0  0  0
   -1.0884   10.1960  -13.4775 N   0  0  0  0  0  0  0  0  0  0  0  0
    0.2359    9.9681  -13.4219 C   0  0  0  0  0  0  0  0  0  0  0  0
   -3.0431    8.7741  -14.0248 N   0  0  0  0  0  0  0  0  0  0  0  0
   -3.4016    7.5294  -14.3857 C   0  0  0  0  0  0  0  0  0  0  0  0
   -4.5968    7.1961  -14.5805 O   0  0  0  0  0  0  0  0  0  0  0  0
   -2.4473    6.5732  -14.5552 N   0  0  0  0  0  0  0  0  0  0  0  0
   -1.1413    6.8356  -14.3692 C   0  0  0  0  0  0  0  0  0  0  0  0
   -0.2786    5.9131  -14.5355 O   0  0  0  0  0  0  0  0  0  0  0  0
   -4.0925    9.7581  -13.8559 C   0  0  0  0  0  0  0  0  0  0  0  0
   -2.7684    5.6180  -14.8374 H   0  0  0  0  0  0  0  0  0  0  0  0
    1.2800   10.8685  -13.1006 N   0  0  0  0  0  0  0  0  0  0  0  0
    1.0446   12.2716  -13.2142 C   0  0  0  0  0  0  0  0  0  0  0  0
    2.0110   13.1771  -12.5463 C   0  0  0  0  0  0  0  0  0  0  0  0
    3.3262   12.6455  -12.3422 N   0  0  0  0  0  0  0  0  0  0  0  0
    3.1925   11.3573  -11.6903 C   0  0  0  0  0  0  0  0  0  0  0  0
    2.5478   10.3695  -12.6643 C   0  0  0  0  0  0  0  0  0  0  0  0
    4.1163   12.5864  -13.5387 C   0  0  0  0  0  0  0  0  0  0  0  0
    1.7111    8.0021  -13.8178 C   0  0  0  0  0  0  0  0  0  0  0  0
    1.9699    7.0970  -12.6549 C   0  0  0  0  0  0  0  0  0  0  0  0
    1.3715    7.2595  -11.5790 O   0  0  0  0  0  0  0  0  0  0  0  0
    6.0338    2.4452  -13.0826 Br  0  0  0  0  0  0  0  0  0  0  0  0
    4.8084    3.8945  -12.9631 C   0  0  0  0  0  0  0  0  0  0  0  0
    3.5207    3.6837  -12.4918 C   0  0  0  0  0  0  0  0  0  0  0  0
    2.6059    4.7189  -12.3935 C   0  0  0  0  0  0  0  0  0  0  0  0
    2.9316    6.0017  -12.7598 C   0  0  0  0  0  0  0  0  0  0  0  0
    4.2184    6.1992  -13.2281 C   0  0  0  0  0  0  0  0  0  0  0  0
    5.1379    5.1803  -13.3304 C   0  0  0  0  0  0  0  0  0  0  0  0
 24 25  1  0  0  0
 25 26  2  0  0  0
 25 30  1  0  0  0
 26 27  1  0  0  0
 27 28  2  0  0  0
 28 29  1  0  0  0
 28 22  1  0  0  0
 29 30  2  0  0  0
 22 23  2  0  0  0
 22 21  1  0  0  0
 21  1  1  0  0  0
  1  2  1  0  0  0
  1  5  1  0  0  0
  2  3  2  0  0  0
  2 10  1  0  0  0
  3  4  1  0  0  0
  3  6  1  0  0  0
  4  5  2  0  0  0
  5 14  1  0  0  0
 14 15  1  0  0  0
 14 19  1  0  0  0
 15 16  1  0  0  0
 16 17  1  0  0  0
 17 18  1  0  0  0
 17 20  1  0  0  0
 18 19  1  0  0  0
  6  7  1  0  0  0
  6 12  1  0  0  0
  7  8  2  0  0  0
  7  9  1  0  0  0
  9 10  1  0  0  0
 10 11  2  0  0  0
  9 13  1  0  0  0
M  END
> <minimizedAffinity>
-8.19146

$$$$
231


 34 37  0  0  0  0  0  0  0  0999 V2000
    1.7961    8.5370  -12.6501 C   0  0  0  0  0  0  0  0  0  0  0  0
    0.4835    9.2446  -12.8830 C   0  0  0  0  0  0  0  0  0  0  0  0
    0.8928   10.4021  -13.6450 N   0  0  0  0  0  0  0  0  0  0  0  0
    1.9851    9.9812  -14.4559 C   0  0  0  0  0  0  0  0  0  0  0  0
    2.5357   10.6652  -15.3732 O   0  0  0  0  0  0  0  0  0  0  0  0
    2.3628    8.6148  -14.0467 C   0  0  0  0  0  0  0  0  0  0  0  0
    2.9889    7.7736  -14.7110 O   0  0  0  0  0  0  0  0  0  0  0  0
   -0.5344    8.4299  -13.5283 C   0  0  0  0  0  0  0  0  0  0  0  0
   -1.8729    8.8396  -13.6108 C   0  0  0  0  0  0  0  0  0  0  0  0
   -2.8320    8.0635  -14.2280 C   0  0  0  0  0  0  0  0  0  0  0  0
   -2.5071    6.8447  -14.7943 C   0  0  0  0  0  0  0  0  0  0  0  0
   -1.1964    6.4231  -14.7255 C   0  0  0  0  0  0  0  0  0  0  0  0
   -0.2445    7.2137  -14.1012 C   0  0  0  0  0  0  0  0  0  0  0  0
   -3.4533    6.0437  -15.4213 O   0  0  0  0  0  0  0  0  0  0  0  0
   -4.1546    8.4617  -14.3124 O   0  0  0  0  0  0  0  0  0  0  0  0
   -4.6104    9.7341  -13.9295 C   0  0  0  0  0  0  0  0  0  0  0  0
    1.6855    7.1694  -12.1774 C   0  0  0  0  0  0  0  0  0  0  0  0
    0.7057    6.7960  -11.5000 O   0  0  0  0  0  0  0  0  0  0  0  0
    6.0136    3.0218  -13.4769 Br  0  0  0  0  0  0  0  0  0  0  0  0
    4.6909    4.3230  -13.0787 C   0  0  0  0  0  0  0  0  0  0  0  0
    3.3984    3.9102  -12.8607 C   0  0  0  0  0  0  0  0  0  0  0  0
    2.4331    4.8395  -12.5724 C   0  0  0  0  0  0  0  0  0  0  0  0
    2.7249    6.2060  -12.4909 C   0  0  0  0  0  0  0  0  0  0  0  0
    4.0405    6.5540  -12.7200 C   0  0  0  0  0  0  0  0  0  0  0  0
    5.0406    5.6455  -13.0136 C   0  0  0  0  0  0  0  0  0  0  0  0
    0.3641   11.7432  -13.6473 C   0  0  0  0  0  0  0  0  0  0  0  0
    1.2782   12.7486  -13.0154 C   0  0  0  0  0  0  0  0  0  0  0  0
    0.7094   13.5264  -11.9835 N   0  0  0  0  0  0  0  0  0  0  0  0
   -0.3737   14.3280  -12.5626 C   0  0  0  0  0  0  0  0  0  0  0  0
    0.1308   15.4139  -13.4541 C   0  0  0  0  0  0  0  0  0  0  0  0
    1.4742   15.6757  -13.3402 O   0  0  0  0  0  0  0  0  0  0  0  0
    1.8688   15.6972  -12.0253 C   0  0  0  0  0  0  0  0  0  0  0  0
    1.5796   14.4129  -11.2963 C   0  0  0  0  0  0  0  0  0  0  0  0
    0.2314   12.9148  -11.2647 H   0  0  0  0  0  0  0  0  0  0  0  0
 19 20  1  0  0  0
 20 21  2  0  0  0
 20 25  1  0  0  0
 21 22  1  0  0  0
 22 23  2  0  0  0
 23 24  1  0  0  0
 23 17  1  0  0  0
 24 25  2  0  0  0
 17 18  2  0  0  0
 17  1  1  0  0  0
  1  2  1  0  0  0
  1  6  1  0  0  0
  2  3  1  0  0  0
  2  8  1  0  0  0
  3  4  1  0  0  0
  3 26  1  0  0  0
  4  5  2  0  0  0
  4  6  1  0  0  0
  6  7  2  0  0  0
 26 27  1  0  0  0
 27 28  1  0  0  0
 28 29  1  0  0  0
 28 33  1  0  0  0
 29 30  1  0  0  0
 30 31  1  0  0  0
 31 32  1  0  0  0
 32 33  1  0  0  0
  8  9  2  0  0  0
  8 13  1  0  0  0
  9 10  1  0  0  0
 10 11  2  0  0  0
 10 15  1  0  0  0
 11 12  1  0  0  0
 11 14  1  0  0  0
 12 13  2  0  0  0
 15 16  1  0  0  0
 28 34  1  0  0  0
M  CHG 1  14  -1
M  CHG 1  28   1
M  END
> <minimizedAffinity>
-8.20073

$$$$
235


 25 28  0  0  0  0  0  0  0  0999 V2000
    0.7480    8.9944  -12.5563 C   0  0  0  0  0  0  0  0  0  0  0  0
    0.0851    7.8748  -13.2063 N   0  0  0  0  0  0  0  0  0  0  0  0
   -0.4611    7.6035  -14.4439 N   0  0  0  0  0  0  0  0  0  0  0  0
   -0.8981    6.4444  -14.7911 C   0  0  0  0  0  0  0  0  0  0  0  0
   -0.8384    5.3476  -13.8526 C   0  0  0  0  0  0  0  0  0  0  0  0
   -0.3575    5.5335  -12.6453 C   0  0  0  0  0  0  0  0  0  0  0  0
    0.1197    6.8260  -12.1902 C   0  0  0  0  0  0  0  0  0  0  0  0
    1.5416    6.8899  -11.7573 C   0  0  0  0  0  0  0  0  0  0  0  0
    2.0078    8.3182  -12.0619 C   0  0  0  0  0  0  0  0  0  0  0  0
    3.0133    8.1457  -13.1081 C   0  0  0  0  0  0  0  0  0  0  0  0
    3.4719    9.0636  -13.8429 O   0  0  0  0  0  0  0  0  0  0  0  0
    3.3871    6.7829  -13.1642 N   0  0  0  0  0  0  0  0  0  0  0  0
    2.4282    5.9781  -12.4903 C   0  0  0  0  0  0  0  0  0  0  0  0
    2.3470    4.7260  -12.5119 O   0  0  0  0  0  0  0  0  0  0  0  0
    1.0177   10.0829  -13.5057 C   0  0  0  0  0  0  0  0  0  0  0  0
    1.1751    9.7464  -14.7243 O   0  0  0  0  0  0  0  0  0  0  0  0
    1.5286   16.0552  -12.0264 Br  0  0  0  0  0  0  0  0  0  0  0  0
    1.3885   14.2063  -12.4812 C   0  0  0  0  0  0  0  0  0  0  0  0
    0.2000   13.6682  -12.9242 C   0  0  0  0  0  0  0  0  0  0  0  0
    0.0502   12.3427  -13.2634 C   0  0  0  0  0  0  0  0  0  0  0  0
    1.1156   11.4851  -13.1683 C   0  0  0  0  0  0  0  0  0  0  0  0
    2.3165   12.0149  -12.7239 C   0  0  0  0  0  0  0  0  0  0  0  0
    2.4568   13.3415  -12.3871 C   0  0  0  0  0  0  0  0  0  0  0  0
    4.5692    6.2577  -13.8065 C   0  0  0  0  0  0  0  0  0  0  0  0
    5.5985    5.7490  -12.8435 C   0  0  0  0  0  0  0  0  0  0  0  0
 17 18  1  0  0  0
 18 19  2  0  0  0
 18 23  1  0  0  0
 19 20  1  0  0  0
 20 21  2  0  0  0
 21 22  1  0  0  0
 21 15  1  0  0  0
 22 23  2  0  0  0
 15 16  2  0  0  0
 15  1  1  0  0  0
  1  2  1  0  0  0
  1  9  1  0  0  0
  2  3  1  0  0  0
  2  7  1  0  0  0
  3  4  2  0  0  0
  4  5  1  0  0  0
  5  6  2  0  0  0
  6  7  1  0  0  0
  7  8  1  0  0  0
  8  9  1  0  0  0
  8 13  1  0  0  0
  9 10  1  0  0  0
 10 11  2  0  0  0
 10 12  1  0  0  0
 12 13  1  0  0  0
 12 24  1  0  0  0
 13 14  2  0  0  0
 24 25  1  0  0  0
M  END
> <minimizedAffinity>
-7.58631

$$$$
243


 30 33  0  0  0  0  0  0  0  0999 V2000
    0.5458   15.2127  -12.8061 C   0  0  0  0  0  0  0  0  0  0  0  0
    0.1611   15.9841  -11.5675 C   0  0  0  0  0  0  0  0  0  0  0  0
   -0.7433   17.0058  -12.0498 N   0  0  0  0  0  0  0  0  0  0  0  0
   -0.5824   17.1744  -13.4845 C   0  0  0  0  0  0  0  0  0  0  0  0
    0.3769   16.1462  -13.9727 C   0  0  0  0  0  0  0  0  0  0  0  0
   -1.9376   17.0427  -14.0660 C   0  0  0  0  0  0  0  0  0  0  0  0
   -2.1137   16.2880  -15.0483 O   0  0  0  0  0  0  0  0  0  0  0  0
   -2.9908   17.7850  -13.4791 N   0  0  0  0  0  0  0  0  0  0  0  0
   -2.9309   18.3502  -12.1509 C   0  0  0  0  0  0  0  0  0  0  0  0
   -1.7170   17.8475  -11.4460 C   0  0  0  0  0  0  0  0  0  0  0  0
   -1.5133   18.1750  -10.2221 O   0  0  0  0  0  0  0  0  0  0  0  0
   -3.8533   17.9136  -14.0713 H   0  0  0  0  0  0  0  0  0  0  0  0
    0.2450   12.7905  -13.1784 C   0  0  0  0  0  0  0  0  0  0  0  0
    1.5084   12.6084  -13.1263 O   0  0  0  0  0  0  0  0  0  0  0  0
   -0.3002   14.0679  -13.0258 N   0  0  0  0  0  0  0  0  0  0  0  0
   -1.3229   14.2118  -13.0682 H   0  0  0  0  0  0  0  0  0  0  0  0
   -3.2092    7.7281  -14.1415 Br  0  0  0  0  0  0  0  0  0  0  0  0
   -2.1246    9.2593  -13.8421 C   0  0  0  0  0  0  0  0  0  0  0  0
   -0.7785    9.1877  -13.5470 C   0  0  0  0  0  0  0  0  0  0  0  0
   -0.0187   10.3200  -13.3349 C   0  0  0  0  0  0  0  0  0  0  0  0
   -0.5647   11.5848  -13.4050 C   0  0  0  0  0  0  0  0  0  0  0  0
   -1.9068   11.6562  -13.6989 C   0  0  0  0  0  0  0  0  0  0  0  0
   -2.6728   10.5352  -13.9123 C   0  0  0  0  0  0  0  0  0  0  0  0
   -2.9889   19.8581  -12.1937 C   0  0  0  0  0  0  0  0  0  0  0  0
   -4.0267   20.3898  -11.2660 C   0  0  0  0  0  0  0  0  0  0  0  0
   -5.3723   20.3936  -11.6355 C   0  0  0  0  0  0  0  0  0  0  0  0
   -6.2880   20.8966  -10.7380 C   0  0  0  0  0  0  0  0  0  0  0  0
   -5.9329   21.3929   -9.4958 C   0  0  0  0  0  0  0  0  0  0  0  0
   -4.5953   21.3680   -9.1767 C   0  0  0  0  0  0  0  0  0  0  0  0
   -3.6341   20.8782  -10.0330 C   0  0  0  0  0  0  0  0  0  0  0  0
 17 18  1  0  0  0
 18 19  2  0  0  0
 18 23  1  0  0  0
 19 20  1  0  0  0
 20 21  2  0  0  0
 21 22  1  0  0  0
 21 13  1  0  0  0
 22 23  2  0  0  0
 13 14  2  0  0  0
 13 15  1  0  0  0
 15  1  1  0  0  0
  1  2  1  0  0  0
  1  5  1  0  0  0
  2  3  1  0  0  0
  3  4  1  0  0  0
  3 10  1  0  0  0
  4  5  1  0  0  0
  4  6  1  0  0  0
  6  7  2  0  0  0
  6  8  1  0  0  0
  8  9  1  0  0  0
  9 10  1  0  0  0
  9 24  1  0  0  0
 10 11  2  0  0  0
 24 25  1  0  0  0
 25 26  2  0  0  0
 25 30  1  0  0  0
 26 27  1  0  0  0
 27 28  2  0  0  0
 28 29  1  0  0  0
 29 30  2  0  0  0
 15 16  1  0  0  0
  8 12  1  0  0  0
M  END
> <minimizedAffinity>
-7.97589

$$$$
244


 25 28  0  0  0  0  0  0  0  0999 V2000
    1.5296   11.0465  -13.5353 C   0  0  0  0  0  0  0  0  0  0  0  0
    2.6896   10.8127  -14.4749 C   0  0  0  0  0  0  0  0  0  0  0  0
    3.2925    9.5993  -13.9527 N   0  0  0  0  0  0  0  0  0  0  0  0
    2.9919    9.4922  -12.5385 C   0  0  0  0  0  0  0  0  0  0  0  0
    2.0081   10.5579  -12.1901 C   0  0  0  0  0  0  0  0  0  0  0  0
    2.4669    8.1203  -12.3201 C   0  0  0  0  0  0  0  0  0  0  0  0
    1.4462    7.8686  -11.6381 O   0  0  0  0  0  0  0  0  0  0  0  0
    3.1345    7.0157  -12.9013 N   0  0  0  0  0  0  0  0  0  0  0  0
    3.9260    7.1336  -14.1084 C   0  0  0  0  0  0  0  0  0  0  0  0
    5.1963    6.4709  -13.6789 C   0  0  0  0  0  0  0  0  0  0  0  0
    4.6618    5.2766  -12.8792 C   0  0  0  0  0  0  0  0  0  0  0  0
    3.2180    5.6351  -12.5141 C   0  0  0  0  0  0  0  0  0  0  0  0
    4.0760    8.5538  -14.5141 C   0  0  0  0  0  0  0  0  0  0  0  0
    4.9381    8.8722  -15.4031 O   0  0  0  0  0  0  0  0  0  0  0  0
   -0.9162   10.7923  -13.5021 C   0  0  0  0  0  0  0  0  0  0  0  0
   -1.0063   11.8598  -12.8607 O   0  0  0  0  0  0  0  0  0  0  0  0
    0.3605   10.3089  -13.8860 N   0  0  0  0  0  0  0  0  0  0  0  0
    0.4820    9.4152  -14.4256 H   0  0  0  0  0  0  0  0  0  0  0  0
   -5.9741    7.5359  -14.9422 Br  0  0  0  0  0  0  0  0  0  0  0  0
   -4.4560    8.5860  -14.4999 C   0  0  0  0  0  0  0  0  0  0  0  0
   -3.2233    7.9771  -14.3386 C   0  0  0  0  0  0  0  0  0  0  0  0
   -2.0906    8.6921  -14.0174 C   0  0  0  0  0  0  0  0  0  0  0  0
   -2.1494   10.0573  -13.8457 C   0  0  0  0  0  0  0  0  0  0  0  0
   -3.3595   10.6629  -14.0031 C   0  0  0  0  0  0  0  0  0  0  0  0
   -4.5154    9.9562  -14.3271 C   0  0  0  0  0  0  0  0  0  0  0  0
 19 20  1  0  0  0
 20 21  2  0  0  0
 20 25  1  0  0  0
 21 22  1  0  0  0
 22 23  2  0  0  0
 23 24  1  0  0  0
 23 15  1  0  0  0
 24 25  2  0  0  0
 15 16  2  0  0  0
 15 17  1  0  0  0
 17  1  1  0  0  0
  1  2  1  0  0  0
  1  5  1  0  0  0
  2  3  1  0  0  0
  3  4  1  0  0  0
  3 13  1  0  0  0
  4  5  1  0  0  0
  4  6  1  0  0  0
  6  7  2  0  0  0
  6  8  1  0  0  0
  8  9  1  0  0  0
  8 12  1  0  0  0
  9 10  1  0  0  0
  9 13  1  0  0  0
 10 11  1  0  0  0
 11 12  1  0  0  0
 13 14  2  0  0  0
 17 18  1  0  0  0
M  END
> <minimizedAffinity>
-6.19320

$$$$
247


 23 26  0  0  0  0  0  0  0  0999 V2000
   -7.0583   24.2662   -6.7253 N   0  0  0  0  0  0  0  0  0  0  0  0
   -6.9194   25.6651   -6.5047 C   0  0  0  0  0  0  0  0  0  0  0  0
   -5.9012   26.3103   -6.9298 O   0  0  0  0  0  0  0  0  0  0  0  0
   -8.0847   26.1935   -5.7490 C   0  0  0  0  0  0  0  0  0  0  0  0
   -8.9984   24.9842   -5.6955 C   0  0  0  0  0  0  0  0  0  0  0  0
   -9.9510   25.3012   -6.8283 C   0  0  0  0  0  0  0  0  0  0  0  0
  -10.2959   26.7416   -6.3956 C   0  0  0  0  0  0  0  0  0  0  0  0
   -8.8387   27.2155   -6.5521 C   0  0  0  0  0  0  0  0  0  0  0  0
   -8.6549   26.8241   -7.9947 C   0  0  0  0  0  0  0  0  0  0  0  0
   -9.2105   25.6214   -8.0802 C   0  0  0  0  0  0  0  0  0  0  0  0
   -8.1643   23.8026   -5.9774 C   0  0  0  0  0  0  0  0  0  0  0  0
   -8.4105   22.6322   -5.6139 O   0  0  0  0  0  0  0  0  0  0  0  0
   -6.8280   22.7262   -8.6405 C   0  0  0  0  0  0  0  0  0  0  0  0
   -8.0546   22.8554   -8.9588 O   0  0  0  0  0  0  0  0  0  0  0  0
   -6.2724   23.4068   -7.5363 N   0  0  0  0  0  0  0  0  0  0  0  0
   -5.2692   23.2897   -7.3061 H   0  0  0  0  0  0  0  0  0  0  0  0
   -3.5366   18.9590  -12.2074 Br  0  0  0  0  0  0  0  0  0  0  0  0
   -4.5364   20.1393  -11.0829 C   0  0  0  0  0  0  0  0  0  0  0  0
   -5.8221   20.4580  -11.4100 C   0  0  0  0  0  0  0  0  0  0  0  0
   -6.5592   21.3055  -10.6088 C   0  0  0  0  0  0  0  0  0  0  0  0
   -6.0133   21.8548   -9.4528 C   0  0  0  0  0  0  0  0  0  0  0  0
   -4.7157   21.5221   -9.1388 C   0  0  0  0  0  0  0  0  0  0  0  0
   -3.9741   20.6814   -9.9277 C   0  0  0  0  0  0  0  0  0  0  0  0
 17 18  1  0  0  0
 18 19  2  0  0  0
 18 23  1  0  0  0
 19 20  1  0  0  0
 20 21  2  0  0  0
 21 22  1  0  0  0
 21 13  1  0  0  0
 22 23  2  0  0  0
 13 14  2  0  0  0
 13 15  1  0  0  0
 15  1  1  0  0  0
  1  2  1  0  0  0
  1 11  1  0  0  0
  2  3  2  0  0  0
  2  4  1  0  0  0
  4  5  1  0  0  0
  4  8  1  0  0  0
  5  6  1  0  0  0
  5 11  1  0  0  0
  6  7  1  0  0  0
  6 10  1  0  0  0
  7  8  1  0  0  0
  8  9  1  0  0  0
  9 10  2  0  0  0
 11 12  2  0  0  0
 15 16  1  0  0  0
M  END
> <minimizedAffinity>
-8.37939

$$$$
257


 31 34  0  0  0  0  0  0  0  0999 V2000
    4.2440    6.1184  -13.2092 C   0  0  0  0  0  0  0  0  0  0  0  0
    4.0302    7.2205  -13.8805 C   0  0  0  0  0  0  0  0  0  0  0  0
    2.7223    7.8663  -14.2218 C   0  0  0  0  0  0  0  0  0  0  0  0
    3.0612    9.2746  -14.0545 N   0  0  0  0  0  0  0  0  0  0  0  0
    4.3900    9.3887  -14.6017 C   0  0  0  0  0  0  0  0  0  0  0  0
    4.8702   10.4350  -15.0674 O   0  0  0  0  0  0  0  0  0  0  0  0
    5.0351    8.0705  -14.5009 C   0  0  0  0  0  0  0  0  0  0  0  0
    6.1940    7.7448  -14.8696 O   0  0  0  0  0  0  0  0  0  0  0  0
    3.1351    5.3994  -12.7215 O   0  0  0  0  0  0  0  0  0  0  0  0
    9.9776    4.0096  -12.2045 Br  0  0  0  0  0  0  0  0  0  0  0  0
    8.2121    4.6468  -12.5323 C   0  0  0  0  0  0  0  0  0  0  0  0
    7.2897    3.9566  -13.2893 C   0  0  0  0  0  0  0  0  0  0  0  0
    6.0170    4.4330  -13.5162 C   0  0  0  0  0  0  0  0  0  0  0  0
    5.6022    5.6580  -12.9780 C   0  0  0  0  0  0  0  0  0  0  0  0
    6.5365    6.3353  -12.2238 C   0  0  0  0  0  0  0  0  0  0  0  0
    7.8241    5.8552  -11.9938 C   0  0  0  0  0  0  0  0  0  0  0  0
    1.6543    7.4133  -13.2969 C   0  0  0  0  0  0  0  0  0  0  0  0
    0.6586    6.6684  -13.8033 N   0  0  0  0  0  0  0  0  0  0  0  0
   -0.3494    6.1951  -13.0667 C   0  0  0  0  0  0  0  0  0  0  0  0
   -0.3632    6.4899  -11.7234 C   0  0  0  0  0  0  0  0  0  0  0  0
    0.6361    7.2495  -11.1620 C   0  0  0  0  0  0  0  0  0  0  0  0
    1.6492    7.7110  -11.9625 C   0  0  0  0  0  0  0  0  0  0  0  0
    2.2402   10.3028  -13.4843 C   0  0  0  0  0  0  0  0  0  0  0  0
    2.9430   11.0318  -12.3495 C   0  0  0  0  0  0  0  0  0  0  0  0
    3.2314   12.4561  -12.8235 C   0  0  0  0  0  0  0  0  0  0  0  0
    2.3054   13.4098  -12.2443 N   0  0  0  0  0  0  0  0  0  0  0  0
    1.0046   13.5951  -12.5695 C   0  0  0  0  0  0  0  0  0  0  0  0
    0.4987   14.5738  -11.8001 N   0  0  0  0  0  0  0  0  0  0  0  0
    1.4502   15.0337  -10.9742 C   0  0  0  0  0  0  0  0  0  0  0  0
    2.5753   14.2905  -11.2690 C   0  0  0  0  0  0  0  0  0  0  0  0
   -0.4940   14.9411  -11.8243 H   0  0  0  0  0  0  0  0  0  0  0  0
 10 11  1  0  0  0
 11 12  2  0  0  0
 11 16  1  0  0  0
 12 13  1  0  0  0
 13 14  2  0  0  0
 14 15  1  0  0  0
 14  1  1  0  0  0
 15 16  2  0  0  0
  1  2  2  0  0  0
  1  9  1  0  0  0
  2  3  1  0  0  0
  2  7  1  0  0  0
  3  4  1  0  0  0
  3 17  1  0  0  0
  4  5  1  0  0  0
  4 23  1  0  0  0
  5  6  2  0  0  0
  5  7  1  0  0  0
  7  8  2  0  0  0
 23 24  1  0  0  0
 24 25  1  0  0  0
 25 26  1  0  0  0
 26 27  1  0  0  0
 26 30  1  0  0  0
 27 28  2  0  0  0
 28 29  1  0  0  0
 29 30  2  0  0  0
 17 18  2  0  0  0
 17 22  1  0  0  0
 18 19  1  0  0  0
 19 20  2  0  0  0
 20 21  1  0  0  0
 21 22  2  0  0  0
 28 31  1  0  0  0
M  CHG 1   9  -1
M  END
> <minimizedAffinity>
-7.32306

$$$$
263


 34 37  0  0  0  0  0  0  0  0999 V2000
    4.2742    6.4664  -13.2118 C   0  0  0  0  0  0  0  0  0  0  0  0
    3.0780    6.3939  -12.6907 C   0  0  0  0  0  0  0  0  0  0  0  0
    2.1198    7.5312  -12.4485 C   0  0  0  0  0  0  0  0  0  0  0  0
    0.8436    6.9273  -12.6211 N   0  0  0  0  0  0  0  0  0  0  0  0
    0.9764    5.5366  -12.2396 C   0  0  0  0  0  0  0  0  0  0  0  0
    0.0589    4.7425  -11.9211 O   0  0  0  0  0  0  0  0  0  0  0  0
    2.3925    5.1889  -12.2825 C   0  0  0  0  0  0  0  0  0  0  0  0
    2.8788    4.0399  -12.0095 O   0  0  0  0  0  0  0  0  0  0  0  0
    4.7509    7.7352  -13.6103 O   0  0  0  0  0  0  0  0  0  0  0  0
    7.9887    1.6218  -13.5531 Br  0  0  0  0  0  0  0  0  0  0  0  0
    6.7787    3.1155  -13.4944 C   0  0  0  0  0  0  0  0  0  0  0  0
    7.2021    4.2572  -12.8525 C   0  0  0  0  0  0  0  0  0  0  0  0
    6.3606    5.3321  -12.7975 C   0  0  0  0  0  0  0  0  0  0  0  0
    5.0953    5.2789  -13.3799 C   0  0  0  0  0  0  0  0  0  0  0  0
    4.6888    4.1485  -14.0091 C   0  0  0  0  0  0  0  0  0  0  0  0
    5.5281    3.0561  -14.0720 C   0  0  0  0  0  0  0  0  0  0  0  0
    2.4470    8.6885  -13.2715 C   0  0  0  0  0  0  0  0  0  0  0  0
    2.9193    9.8903  -12.8168 C   0  0  0  0  0  0  0  0  0  0  0  0
    3.2131   10.9301  -13.6600 C   0  0  0  0  0  0  0  0  0  0  0  0
    3.0313   10.7766  -15.0076 C   0  0  0  0  0  0  0  0  0  0  0  0
    2.5537    9.5786  -15.5300 C   0  0  0  0  0  0  0  0  0  0  0  0
    2.2699    8.5589  -14.6585 C   0  0  0  0  0  0  0  0  0  0  0  0
    3.6966   12.1396  -13.1227 N   0  0  0  0  0  0  0  0  0  0  0  0
    4.5147   12.8692  -13.7394 O   0  0  0  0  0  0  0  0  0  0  0  0
    3.2532   12.5287  -11.8795 O   0  0  0  0  0  0  0  0  0  0  0  0
   -0.4553    7.4317  -13.0263 C   0  0  0  0  0  0  0  0  0  0  0  0
   -0.9996    6.8625  -14.2964 C   0  0  0  0  0  0  0  0  0  0  0  0
   -2.2344    7.5030  -14.7193 N   0  0  0  0  0  0  0  0  0  0  0  0
   -2.5741    8.6158  -13.8266 C   0  0  0  0  0  0  0  0  0  0  0  0
   -3.7906    9.2869  -14.4787 C   0  0  0  0  0  0  0  0  0  0  0  0
   -4.8575    8.4304  -14.5985 O   0  0  0  0  0  0  0  0  0  0  0  0
   -4.5569    7.2323  -15.2275 C   0  0  0  0  0  0  0  0  0  0  0  0
   -3.3331    6.5736  -14.6401 C   0  0  0  0  0  0  0  0  0  0  0  0
   -2.2020    7.9029  -15.6606 H   0  0  0  0  0  0  0  0  0  0  0  0
 10 11  1  0  0  0
 11 12  2  0  0  0
 11 16  1  0  0  0
 12 13  1  0  0  0
 13 14  2  0  0  0
 14 15  1  0  0  0
 14  1  1  0  0  0
 15 16  2  0  0  0
  1  2  2  0  0  0
  1  9  1  0  0  0
  2  3  1  0  0  0
  2  7  1  0  0  0
  3  4  1  0  0  0
  3 17  1  0  0  0
  4  5  1  0  0  0
  4 26  1  0  0  0
  5  6  2  0  0  0
  5  7  1  0  0  0
  7  8  2  0  0  0
 26 27  1  0  0  0
 27 28  1  0  0  0
 28 29  1  0  0  0
 28 33  1  0  0  0
 29 30  1  0  0  0
 30 31  1  0  0  0
 31 32  1  0  0  0
 32 33  1  0  0  0
 17 18  2  0  0  0
 17 22  1  0  0  0
 18 19  1  0  0  0
 19 20  2  0  0  0
 19 23  1  0  0  0
 20 21  1  0  0  0
 21 22  2  0  0  0
 23 24  2  0  0  0
 23 25  1  0  0  0
 28 34  1  0  0  0
M  CHG 1   9  -1
M  CHG 1  25  -1
M  CHG 1  28   1
M  END
> <minimizedAffinity>
-8.11061

$$$$
265


 35 38  0  0  0  0  0  0  0  0999 V2000
    2.3149    9.9187  -12.0976 C   0  0  0  0  0  0  0  0  0  0  0  0
    3.0552    9.1291  -12.8440 C   0  0  0  0  0  0  0  0  0  0  0  0
    3.0930    7.6239  -12.7708 C   0  0  0  0  0  0  0  0  0  0  0  0
    4.0881    7.2090  -13.6976 N   0  0  0  0  0  0  0  0  0  0  0  0
    4.5916    8.3281  -14.4565 C   0  0  0  0  0  0  0  0  0  0  0  0
    5.4101    8.3281  -15.3864 O   0  0  0  0  0  0  0  0  0  0  0  0
    3.9343    9.5392  -13.9144 C   0  0  0  0  0  0  0  0  0  0  0  0
    4.1276   10.7237  -14.3395 O   0  0  0  0  0  0  0  0  0  0  0  0
    1.4853    9.2682  -11.1547 O   0  0  0  0  0  0  0  0  0  0  0  0
    2.0682   16.1011  -12.5738 Br  0  0  0  0  0  0  0  0  0  0  0  0
    2.1849   14.1986  -12.4115 C   0  0  0  0  0  0  0  0  0  0  0  0
    1.2254   13.4025  -12.9994 C   0  0  0  0  0  0  0  0  0  0  0  0
    1.2945   12.0297  -12.8953 C   0  0  0  0  0  0  0  0  0  0  0  0
    2.3183   11.3702  -12.2029 C   0  0  0  0  0  0  0  0  0  0  0  0
    3.2655   12.1805  -11.6227 C   0  0  0  0  0  0  0  0  0  0  0  0
    3.2002   13.5760  -11.7258 C   0  0  0  0  0  0  0  0  0  0  0  0
    1.7268    7.1952  -13.2020 C   0  0  0  0  0  0  0  0  0  0  0  0
    1.1113    6.2078  -12.4994 C   0  0  0  0  0  0  0  0  0  0  0  0
   -0.1473    5.7695  -12.8564 C   0  0  0  0  0  0  0  0  0  0  0  0
   -0.7873    6.3315  -13.9277 C   0  0  0  0  0  0  0  0  0  0  0  0
   -0.1652    7.3278  -14.6341 C   0  0  0  0  0  0  0  0  0  0  0  0
    1.0985    7.7722  -14.2805 C   0  0  0  0  0  0  0  0  0  0  0  0
   -2.1223    5.8725  -14.3189 C   0  0  0  0  0  0  0  0  0  0  0  0
   -2.7983    5.1805  -13.5156 O   0  0  0  0  0  0  0  0  0  0  0  0
   -2.6851    6.1584  -15.5325 O   0  0  0  0  0  0  0  0  0  0  0  0
   -3.7955    7.0147  -15.6823 C   0  0  0  0  0  0  0  0  0  0  0  0
    4.5845    5.8790  -13.9278 C   0  0  0  0  0  0  0  0  0  0  0  0
    5.6440    5.4220  -12.9850 C   0  0  0  0  0  0  0  0  0  0  0  0
    6.9869    5.7419  -13.3673 N   0  0  0  0  0  0  0  0  0  0  0  0
    7.8810    4.6026  -13.3889 C   0  0  0  0  0  0  0  0  0  0  0  0
    9.1876    5.0728  -13.9944 C   0  0  0  0  0  0  0  0  0  0  0  0
    9.7442    5.9721  -13.0537 O   0  0  0  0  0  0  0  0  0  0  0  0
    8.9164    7.0980  -13.0720 C   0  0  0  0  0  0  0  0  0  0  0  0
    7.5950    6.7072  -12.4303 C   0  0  0  0  0  0  0  0  0  0  0  0
    7.0234    6.2564  -14.2873 H   0  0  0  0  0  0  0  0  0  0  0  0
 10 11  1  0  0  0
 11 12  2  0  0  0
 11 16  1  0  0  0
 12 13  1  0  0  0
 13 14  2  0  0  0
 14 15  1  0  0  0
 14  1  1  0  0  0
 15 16  2  0  0  0
  1  2  2  0  0  0
  1  9  1  0  0  0
  2  3  1  0  0  0
  2  7  1  0  0  0
  3  4  1  0  0  0
  3 17  1  0  0  0
  4  5  1  0  0  0
  4 27  1  0  0  0
  5  6  2  0  0  0
  5  7  1  0  0  0
  7  8  2  0  0  0
 27 28  1  0  0  0
 28 29  1  0  0  0
 29 30  1  0  0  0
 29 34  1  0  0  0
 30 31  1  0  0  0
 31 32  1  0  0  0
 32 33  1  0  0  0
 33 34  1  0  0  0
 17 18  2  0  0  0
 17 22  1  0  0  0
 18 19  1  0  0  0
 19 20  2  0  0  0
 20 21  1  0  0  0
 20 23  1  0  0  0
 21 22  2  0  0  0
 23 24  2  0  0  0
 23 25  1  0  0  0
 25 26  1  0  0  0
 29 35  1  0  0  0
M  CHG 1   9  -1
M  CHG 1  29   1
M  END
> <minimizedAffinity>
-6.54633

$$$$
274


 31 34  0  0  0  0  0  0  0  0999 V2000
    3.4576    7.8720  -14.4759 C   0  0  0  0  0  0  0  0  0  0  0  0
    2.2651    7.9125  -13.9137 C   0  0  0  0  0  0  0  0  0  0  0  0
    1.0101    8.5716  -14.3760 C   0  0  0  0  0  0  0  0  0  0  0  0
   -0.0377    7.6577  -13.8915 N   0  0  0  0  0  0  0  0  0  0  0  0
    0.4489    7.1718  -12.6556 C   0  0  0  0  0  0  0  0  0  0  0  0
   -0.2566    6.7029  -11.7532 O   0  0  0  0  0  0  0  0  0  0  0  0
    1.8999    7.3175  -12.6305 C   0  0  0  0  0  0  0  0  0  0  0  0
    2.7350    7.0240  -11.7388 O   0  0  0  0  0  0  0  0  0  0  0  0
    3.6185    8.5460  -15.7025 O   0  0  0  0  0  0  0  0  0  0  0  0
    8.4097    4.9268  -12.2205 Br  0  0  0  0  0  0  0  0  0  0  0  0
    6.8736    5.8438  -12.9113 C   0  0  0  0  0  0  0  0  0  0  0  0
    6.9041    7.1959  -13.1644 C   0  0  0  0  0  0  0  0  0  0  0  0
    5.7891    7.8522  -13.6630 C   0  0  0  0  0  0  0  0  0  0  0  0
    4.6132    7.1854  -13.9250 C   0  0  0  0  0  0  0  0  0  0  0  0
    4.5857    5.8331  -13.6724 C   0  0  0  0  0  0  0  0  0  0  0  0
    5.7062    5.1654  -13.1693 C   0  0  0  0  0  0  0  0  0  0  0  0
    0.8393    9.9440  -13.8942 C   0  0  0  0  0  0  0  0  0  0  0  0
    1.9482   10.7335  -13.5666 C   0  0  0  0  0  0  0  0  0  0  0  0
    1.8573   12.0141  -13.1152 C   0  0  0  0  0  0  0  0  0  0  0  0
    0.6157   12.6016  -12.9581 C   0  0  0  0  0  0  0  0  0  0  0  0
   -0.4852   11.8562  -13.2693 C   0  0  0  0  0  0  0  0  0  0  0  0
   -0.3904   10.5407  -13.7330 C   0  0  0  0  0  0  0  0  0  0  0  0
   -1.2341    7.4152  -14.6117 C   0  0  0  0  0  0  0  0  0  0  0  0
   -2.5161    7.8388  -14.0224 C   0  0  0  0  0  0  0  0  0  0  0  0
   -3.3422    8.6807  -14.8321 N   0  0  0  0  0  0  0  0  0  0  0  0
   -3.9856    9.7542  -14.1596 C   0  0  0  0  0  0  0  0  0  0  0  0
   -5.4562    9.4293  -14.0134 C   0  0  0  0  0  0  0  0  0  0  0  0
   -5.6731    8.0909  -13.6976 O   0  0  0  0  0  0  0  0  0  0  0  0
   -5.3285    7.2403  -14.7313 C   0  0  0  0  0  0  0  0  0  0  0  0
   -4.3168    7.9448  -15.6074 C   0  0  0  0  0  0  0  0  0  0  0  0
   -2.6774    9.1106  -15.5467 H   0  0  0  0  0  0  0  0  0  0  0  0
 10 11  1  0  0  0
 11 12  2  0  0  0
 11 16  1  0  0  0
 12 13  1  0  0  0
 13 14  2  0  0  0
 14 15  1  0  0  0
 14  1  1  0  0  0
 15 16  2  0  0  0
  1  2  2  0  0  0
  1  9  1  0  0  0
  2  3  1  0  0  0
  2  7  1  0  0  0
  3  4  1  0  0  0
  3 17  1  0  0  0
  4  5  1  0  0  0
  4 23  1  0  0  0
  5  6  2  0  0  0
  5  7  1  0  0  0
  7  8  2  0  0  0
 23 24  1  0  0  0
 24 25  1  0  0  0
 25 26  1  0  0  0
 25 30  1  0  0  0
 26 27  1  0  0  0
 27 28  1  0  0  0
 28 29  1  0  0  0
 29 30  1  0  0  0
 17 18  2  0  0  0
 17 22  1  0  0  0
 18 19  1  0  0  0
 19 20  2  0  0  0
 20 21  1  0  0  0
 21 22  2  0  0  0
 25 31  1  0  0  0
M  CHG 1   9  -1
M  CHG 1  25   1
M  END
> <minimizedAffinity>
-7.86098

$$$$
278


 30 33  0  0  0  0  0  0  0  0999 V2000
    0.3875   13.1250  -12.8170 N   0  0  0  0  0  0  0  0  0  0  0  0
    1.6949   12.9959  -12.4882 C   0  0  0  0  0  0  0  0  0  0  0  0
    2.1164   11.7982  -13.0431 C   0  0  0  0  0  0  0  0  0  0  0  0
    3.4282   11.4048  -12.8549 C   0  0  0  0  0  0  0  0  0  0  0  0
    4.3355   12.1812  -12.1234 C   0  0  0  0  0  0  0  0  0  0  0  0
    3.8660   13.3724  -11.5869 C   0  0  0  0  0  0  0  0  0  0  0  0
    2.5683   13.7871  -11.7582 C   0  0  0  0  0  0  0  0  0  0  0  0
    1.0809   11.2020  -13.7064 N   0  0  0  0  0  0  0  0  0  0  0  0
    0.0298   12.0494  -13.5436 C   0  0  0  0  0  0  0  0  0  0  0  0
   -1.1428   11.8225  -14.0334 N   0  0  0  0  0  0  0  0  0  0  0  0
   -1.9159   12.5340  -13.8643 H   0  0  0  0  0  0  0  0  0  0  0  0
   -1.4288   11.0075  -14.5804 H   0  0  0  0  0  0  0  0  0  0  0  0
   -0.3904   14.2593  -12.4114 C   0  0  0  0  0  0  0  0  0  0  0  0
   -0.4174   15.3587  -13.4296 C   0  0  0  0  0  0  0  0  0  0  0  0
    0.8258   15.8734  -13.7420 O   0  0  0  0  0  0  0  0  0  0  0  0
    1.3032   16.2412  -12.9730 H   0  0  0  0  0  0  0  0  0  0  0  0
   -3.8653   20.0512  -11.4392 Br  0  0  0  0  0  0  0  0  0  0  0  0
   -2.7917   18.5924  -12.0596 C   0  0  0  0  0  0  0  0  0  0  0  0
   -3.1222   17.9682  -13.2410 C   0  0  0  0  0  0  0  0  0  0  0  0
   -2.3501   16.9253  -13.6789 C   0  0  0  0  0  0  0  0  0  0  0  0
   -1.2651   16.5125  -12.9466 C   0  0  0  0  0  0  0  0  0  0  0  0
   -0.9662   17.1592  -11.7715 C   0  0  0  0  0  0  0  0  0  0  0  0
   -1.7169   18.2189  -11.2872 C   0  0  0  0  0  0  0  0  0  0  0  0
    1.1865    9.9565  -14.4053 C   0  0  0  0  0  0  0  0  0  0  0  0
    0.9899    8.7536  -13.5249 C   0  0  0  0  0  0  0  0  0  0  0  0
    2.0773    7.9451  -13.2419 C   0  0  0  0  0  0  0  0  0  0  0  0
    1.9777    6.8243  -12.4406 C   0  0  0  0  0  0  0  0  0  0  0  0
    0.7431    6.5266  -11.9194 C   0  0  0  0  0  0  0  0  0  0  0  0
   -0.3496    7.3092  -12.1842 C   0  0  0  0  0  0  0  0  0  0  0  0
   -0.2175    8.4138  -12.9822 C   0  0  0  0  0  0  0  0  0  0  0  0
 17 18  1  0  0  0
 18 19  2  0  0  0
 18 23  1  0  0  0
 19 20  1  0  0  0
 20 21  2  0  0  0
 21 22  1  0  0  0
 21 14  1  0  0  0
 22 23  2  0  0  0
 14 15  1  0  0  0
 14 13  1  0  0  0
 13  1  1  0  0  0
  1  2  1  0  0  0
  1  9  1  0  0  0
  2  3  1  0  0  0
  2  7  2  0  0  0
  3  4  2  0  0  0
  3  8  1  0  0  0
  4  5  1  0  0  0
  5  6  2  0  0  0
  6  7  1  0  0  0
  8  9  1  0  0  0
  8 24  1  0  0  0
  9 10  2  0  0  0
 24 25  1  0  0  0
 25 26  2  0  0  0
 25 30  1  0  0  0
 26 27  1  0  0  0
 27 28  2  0  0  0
 28 29  1  0  0  0
 29 30  2  0  0  0
 15 16  1  0  0  0
 10 11  1  0  0  0
 10 12  1  0  0  0
M  END
> <minimizedAffinity>
-9.43273

$$$$
289


 31 34  0  0  0  0  0  0  0  0999 V2000
    4.4643    7.9145  -13.6470 C   0  0  0  0  0  0  0  0  0  0  0  0
    3.8591    6.7649  -13.3055 N   0  0  0  0  0  0  0  0  0  0  0  0
    4.7798    5.7736  -13.2571 C   0  0  0  0  0  0  0  0  0  0  0  0
    6.0112    6.3017  -13.5782 C   0  0  0  0  0  0  0  0  0  0  0  0
    5.7925    7.5961  -13.8104 N   0  0  0  0  0  0  0  0  0  0  0  0
    7.0925    5.5004  -13.5950 N   0  0  0  0  0  0  0  0  0  0  0  0
    7.0097    4.1945  -13.3072 C   0  0  0  0  0  0  0  0  0  0  0  0
    8.0551    3.4691  -13.3316 O   0  0  0  0  0  0  0  0  0  0  0  0
    5.8179    3.6599  -12.9909 N   0  0  0  0  0  0  0  0  0  0  0  0
    4.7210    4.4293  -12.9654 C   0  0  0  0  0  0  0  0  0  0  0  0
    3.6091    3.9273  -12.6688 O   0  0  0  0  0  0  0  0  0  0  0  0
    8.3876    6.0990  -13.9361 C   0  0  0  0  0  0  0  0  0  0  0  0
    5.7450    2.6261  -12.7624 H   0  0  0  0  0  0  0  0  0  0  0  0
    1.4692    9.6924  -13.9959 N   0  0  0  0  0  0  0  0  0  0  0  0
    1.9832   10.2062  -12.7974 C   0  0  0  0  0  0  0  0  0  0  0  0
    3.4863    9.9847  -12.6622 C   0  0  0  0  0  0  0  0  0  0  0  0
    3.8946    9.1938  -13.7705 N   0  0  0  0  0  0  0  0  0  0  0  0
    3.6779    9.7617  -15.0792 C   0  0  0  0  0  0  0  0  0  0  0  0
    2.1533    9.8555  -15.2120 C   0  0  0  0  0  0  0  0  0  0  0  0
    0.5739    8.5900  -13.8759 C   0  0  0  0  0  0  0  0  0  0  0  0
   -5.4527    9.9511  -13.8801 Br  0  0  0  0  0  0  0  0  0  0  0  0
   -3.5738    9.5476  -13.8804 C   0  0  0  0  0  0  0  0  0  0  0  0
   -3.1259    8.2826  -14.2018 C   0  0  0  0  0  0  0  0  0  0  0  0
   -1.7718    7.9878  -14.2007 C   0  0  0  0  0  0  0  0  0  0  0  0
   -0.8551    8.9561  -13.8767 C   0  0  0  0  0  0  0  0  0  0  0  0
   -1.2855   10.2261  -13.5545 C   0  0  0  0  0  0  0  0  0  0  0  0
   -2.6374   10.5043  -13.5601 C   0  0  0  0  0  0  0  0  0  0  0  0
    2.4615    6.5268  -13.0630 C   0  0  0  0  0  0  0  0  0  0  0  0
    2.1153    6.6109  -11.5935 C   0  0  0  0  0  0  0  0  0  0  0  0
    0.7764    6.4173  -11.3207 O   0  0  0  0  0  0  0  0  0  0  0  0
    0.3261    5.4637  -12.2630 C   0  0  0  0  0  0  0  0  0  0  0  0
 21 22  1  0  0  0
 22 23  2  0  0  0
 22 27  1  0  0  0
 23 24  1  0  0  0
 24 25  2  0  0  0
 25 26  1  0  0  0
 25 20  1  0  0  0
 26 27  2  0  0  0
 20 14  1  0  0  0
 14 15  1  0  0  0
 14 19  1  0  0  0
 15 16  1  0  0  0
 16 17  1  0  0  0
 17 18  1  0  0  0
 17  1  1  0  0  0
 18 19  1  0  0  0
  1  2  1  0  0  0
  1  5  2  0  0  0
  2  3  1  0  0  0
  2 28  1  0  0  0
  3  4  2  0  0  0
  3 10  1  0  0  0
  4  5  1  0  0  0
  4  6  1  0  0  0
  6  7  1  0  0  0
  6 12  1  0  0  0
  7  8  2  0  0  0
  7  9  1  0  0  0
  9 10  1  0  0  0
 10 11  2  0  0  0
 28 29  1  0  0  0
 29 30  1  0  0  0
 30 31  1  0  0  0
  9 13  1  0  0  0
M  END
> <minimizedAffinity>
-7.71415

$$$$
293


 27 30  0  0  0  0  0  0  0  0999 V2000
    0.5446    5.5076  -12.4153 C   0  0  0  0  0  0  0  0  0  0  0  0
    1.8577    5.6036  -12.6544 C   0  0  0  0  0  0  0  0  0  0  0  0
    2.4443    6.6968  -13.2710 O   0  0  0  0  0  0  0  0  0  0  0  0
    3.8207    6.5383  -13.3954 C   0  0  0  0  0  0  0  0  0  0  0  0
    4.1560    5.3316  -12.8598 C   0  0  0  0  0  0  0  0  0  0  0  0
    5.4729    4.9210  -12.8532 C   0  0  0  0  0  0  0  0  0  0  0  0
    6.4029    5.7665  -13.3995 C   0  0  0  0  0  0  0  0  0  0  0  0
    6.0607    7.0082  -13.9507 C   0  0  0  0  0  0  0  0  0  0  0  0
    4.7560    7.4339  -13.9677 C   0  0  0  0  0  0  0  0  0  0  0  0
    7.0692    7.8100  -14.4872 O   0  0  0  0  0  0  0  0  0  0  0  0
    2.9293    4.6881  -12.3691 C   0  0  0  0  0  0  0  0  0  0  0  0
    2.8006    3.5702  -11.8079 O   0  0  0  0  0  0  0  0  0  0  0  0
   -3.2740   10.0648  -14.1922 Br  0  0  0  0  0  0  0  0  0  0  0  0
   -2.0841    8.6616  -13.6343 C   0  0  0  0  0  0  0  0  0  0  0  0
   -2.1904    7.3921  -14.1548 C   0  0  0  0  0  0  0  0  0  0  0  0
   -1.3373    6.3822  -13.7522 C   0  0  0  0  0  0  0  0  0  0  0  0
   -0.3414    6.5967  -12.8141 C   0  0  0  0  0  0  0  0  0  0  0  0
   -0.2382    7.8684  -12.2968 C   0  0  0  0  0  0  0  0  0  0  0  0
   -1.0979    8.8940  -12.6990 C   0  0  0  0  0  0  0  0  0  0  0  0
    4.2466    8.6999  -14.5086 C   0  0  0  0  0  0  0  0  0  0  0  0
    3.1251    9.2928  -13.8899 N   0  0  0  0  0  0  0  0  0  0  0  0
    3.4961   10.2010  -12.8248 C   0  0  0  0  0  0  0  0  0  0  0  0
    3.7645   11.5778  -13.4040 C   0  0  0  0  0  0  0  0  0  0  0  0
    2.5421   12.1848  -13.6470 O   0  0  0  0  0  0  0  0  0  0  0  0
    1.6436   11.1924  -14.0535 C   0  0  0  0  0  0  0  0  0  0  0  0
    2.3750   10.1228  -14.8487 C   0  0  0  0  0  0  0  0  0  0  0  0
    2.4336    8.5856  -13.5675 H   0  0  0  0  0  0  0  0  0  0  0  0
 13 14  1  0  0  0
 14 15  2  0  0  0
 14 19  1  0  0  0
 15 16  1  0  0  0
 16 17  2  0  0  0
 17 18  1  0  0  0
 17  1  1  0  0  0
 18 19  2  0  0  0
  1  2  2  0  0  0
  2  3  1  0  0  0
  2 11  1  0  0  0
  3  4  1  0  0  0
  4  5  2  0  0  0
  4  9  1  0  0  0
  5  6  1  0  0  0
  5 11  1  0  0  0
  6  7  2  0  0  0
  7  8  1  0  0  0
  8  9  2  0  0  0
  8 10  1  0  0  0
  9 20  1  0  0  0
 20 21  1  0  0  0
 21 22  1  0  0  0
 21 26  1  0  0  0
 22 23  1  0  0  0
 23 24  1  0  0  0
 24 25  1  0  0  0
 25 26  1  0  0  0
 11 12  2  0  0  0
 21 27  1  0  0  0
M  CHG 1  10  -1
M  CHG 1  21   1
M  END
> <minimizedAffinity>
-8.35466

$$$$
294


 35 38  0  0  0  0  0  0  0  0999 V2000
   -0.7178   10.9800  -13.8081 N   0  0  0  0  0  0  0  0  0  0  0  0
   -2.0484   11.0915  -14.1049 N   0  0  0  0  0  0  0  0  0  0  0  0
   -2.6158    9.8816  -14.0048 C   0  0  0  0  0  0  0  0  0  0  0  0
   -1.6346    9.0529  -13.6517 N   0  0  0  0  0  0  0  0  0  0  0  0
   -0.4352    9.7360  -13.5258 C   0  0  0  0  0  0  0  0  0  0  0  0
   -4.0134    9.5349  -14.2328 C   0  0  0  0  0  0  0  0  0  0  0  0
   -5.0882   10.2646  -13.9192 N   0  0  0  0  0  0  0  0  0  0  0  0
   -6.1777    9.6116  -14.2847 O   0  0  0  0  0  0  0  0  0  0  0  0
   -5.8615    8.4721  -14.8311 N   0  0  0  0  0  0  0  0  0  0  0  0
   -4.4959    8.3900  -14.8149 C   0  0  0  0  0  0  0  0  0  0  0  0
   -3.7670    7.2858  -15.3265 N   0  0  0  0  0  0  0  0  0  0  0  0
   -4.2038    6.6653  -16.0642 H   0  0  0  0  0  0  0  0  0  0  0  0
   -2.8076    7.0343  -15.0209 H   0  0  0  0  0  0  0  0  0  0  0  0
    0.7974    9.0735  -13.1519 C   0  0  0  0  0  0  0  0  0  0  0  0
    1.9887    9.2963  -13.8368 N   0  0  0  0  0  0  0  0  0  0  0  0
    2.9241    8.6117  -13.3054 O   0  0  0  0  0  0  0  0  0  0  0  0
    2.4715    7.9438  -12.3187 N   0  0  0  0  0  0  0  0  0  0  0  0
    1.1359    8.2091  -12.1921 C   0  0  0  0  0  0  0  0  0  0  0  0
    0.3861    7.6122  -11.1715 N   0  0  0  0  0  0  0  0  0  0  0  0
   -0.0573    6.6797  -11.3412 H   0  0  0  0  0  0  0  0  0  0  0  0
    0.2385    8.0292  -10.2289 H   0  0  0  0  0  0  0  0  0  0  0  0
    0.1221   12.1616  -13.8258 C   0  0  0  0  0  0  0  0  0  0  0  0
   -0.3625   14.6171  -13.4873 N   0  0  0  0  0  0  0  0  0  0  0  0
   -0.4940   13.2746  -13.0572 C   0  0  0  0  0  0  0  0  0  0  0  0
   -1.1400   13.0278  -12.0141 O   0  0  0  0  0  0  0  0  0  0  0  0
    0.1805   14.8588  -14.3713 H   0  0  0  0  0  0  0  0  0  0  0  0
   -1.4669   16.6878  -13.2279 C   0  0  0  0  0  0  0  0  0  0  0  0
   -0.9469   15.6253  -12.7522 N   0  0  0  0  0  0  0  0  0  0  0  0
   -4.0126   21.0781   -9.6906 Br  0  0  0  0  0  0  0  0  0  0  0  0
   -3.2186   19.7222  -10.7745 C   0  0  0  0  0  0  0  0  0  0  0  0
   -3.7789   19.3619  -11.9911 C   0  0  0  0  0  0  0  0  0  0  0  0
   -3.2208   18.3817  -12.7922 C   0  0  0  0  0  0  0  0  0  0  0  0
   -2.0737   17.7244  -12.4001 C   0  0  0  0  0  0  0  0  0  0  0  0
   -1.5243   18.0898  -11.1898 C   0  0  0  0  0  0  0  0  0  0  0  0
   -2.0710   19.0657  -10.3820 C   0  0  0  0  0  0  0  0  0  0  0  0
 29 30  1  0  0  0
 30 31  2  0  0  0
 30 35  1  0  0  0
 31 32  1  0  0  0
 32 33  2  0  0  0
 33 34  1  0  0  0
 33 27  1  0  0  0
 34 35  2  0  0  0
 27 28  2  0  0  0
 28 23  1  0  0  0
 23 24  1  0  0  0
 24 25  2  0  0  0
 24 22  1  0  0  0
 22  1  1  0  0  0
  1  2  1  0  0  0
  1  5  1  0  0  0
  2  3  2  0  0  0
  3  4  1  0  0  0
  3  6  1  0  0  0
  4  5  2  0  0  0
  5 14  1  0  0  0
 14 15  2  0  0  0
 14 18  1  0  0  0
 15 16  1  0  0  0
 16 17  1  0  0  0
 17 18  2  0  0  0
 18 19  1  0  0  0
  6  7  2  0  0  0
  6 10  1  0  0  0
  7  8  1  0  0  0
  8  9  1  0  0  0
  9 10  2  0  0  0
 10 11  1  0  0  0
 23 26  1  0  0  0
 19 20  1  0  0  0
 19 21  1  0  0  0
 11 12  1  0  0  0
 11 13  1  0  0  0
M  END
> <minimizedAffinity>
-9.93027

$$$$
302


 29 33  0  0  0  0  0  0  0  0999 V2000
    1.4812    7.9246  -13.6583 C   0  0  0  0  0  0  0  0  0  0  0  0
    1.0842    9.1861  -13.3924 N   0  0  0  0  0  0  0  0  0  0  0  0
   -0.2543    9.3016  -13.5776 C   0  0  0  0  0  0  0  0  0  0  0  0
   -0.7304    8.1059  -13.9653 N   0  0  0  0  0  0  0  0  0  0  0  0
    0.3256    7.2616  -14.0168 C   0  0  0  0  0  0  0  0  0  0  0  0
   -2.0563    8.2713  -14.1346 C   0  0  0  0  0  0  0  0  0  0  0  0
   -2.4127    9.5725  -13.8521 C   0  0  0  0  0  0  0  0  0  0  0  0
   -3.7263   10.0173  -13.9472 C   0  0  0  0  0  0  0  0  0  0  0  0
   -4.7141    9.1409  -14.3338 C   0  0  0  0  0  0  0  0  0  0  0  0
   -4.3485    7.8420  -14.6140 C   0  0  0  0  0  0  0  0  0  0  0  0
   -3.0546    7.3745  -14.5284 C   0  0  0  0  0  0  0  0  0  0  0  0
   -1.2547   10.1942  -13.5052 N   0  0  0  0  0  0  0  0  0  0  0  0
    1.6949    9.9721  -13.0905 H   0  0  0  0  0  0  0  0  0  0  0  0
    7.2427    5.7400  -13.3300 Br  0  0  0  0  0  0  0  0  0  0  0  0
    5.4720    6.4151  -13.4332 C   0  0  0  0  0  0  0  0  0  0  0  0
    4.4195    5.6992  -12.8965 C   0  0  0  0  0  0  0  0  0  0  0  0
    3.1213    6.1975  -12.9731 C   0  0  0  0  0  0  0  0  0  0  0  0
    2.8416    7.4024  -13.5769 C   0  0  0  0  0  0  0  0  0  0  0  0
    3.8963    8.1096  -14.1086 C   0  0  0  0  0  0  0  0  0  0  0  0
    5.2051    7.6247  -14.0413 C   0  0  0  0  0  0  0  0  0  0  0  0
   -1.2052   11.5928  -13.1323 C   0  0  0  0  0  0  0  0  0  0  0  0
    0.0330   12.2728  -13.6745 C   0  0  0  0  0  0  0  0  0  0  0  0
    0.8109   12.8228  -12.6013 N   0  0  0  0  0  0  0  0  0  0  0  0
    0.5674   14.2448  -12.4787 C   0  0  0  0  0  0  0  0  0  0  0  0
    1.8377   15.0404  -12.3008 C   0  0  0  0  0  0  0  0  0  0  0  0
    2.5794   14.4780  -11.2597 O   0  0  0  0  0  0  0  0  0  0  0  0
    2.8981   13.1583  -11.4987 C   0  0  0  0  0  0  0  0  0  0  0  0
    2.2233   12.6263  -12.7358 C   0  0  0  0  0  0  0  0  0  0  0  0
    0.5247   12.3956  -11.6844 H   0  0  0  0  0  0  0  0  0  0  0  0
 14 15  1  0  0  0
 15 16  2  0  0  0
 15 20  1  0  0  0
 16 17  1  0  0  0
 17 18  2  0  0  0
 18 19  1  0  0  0
 18  1  1  0  0  0
 19 20  2  0  0  0
  1  2  1  0  0  0
  1  5  2  0  0  0
  2  3  2  0  0  0
  3  4  1  0  0  0
  3 12  1  0  0  0
  4  5  1  0  0  0
  4  6  1  0  0  0
  6  7  2  0  0  0
  6 11  1  0  0  0
  7  8  1  0  0  0
  7 12  1  0  0  0
  8  9  2  0  0  0
  9 10  1  0  0  0
 10 11  2  0  0  0
 12 21  1  0  0  0
 21 22  1  0  0  0
 22 23  1  0  0  0
 23 24  1  0  0  0
 23 28  1  0  0  0
 24 25  1  0  0  0
 25 26  1  0  0  0
 26 27  1  0  0  0
 27 28  1  0  0  0
  2 13  1  0  0  0
 23 29  1  0  0  0
M  CHG 1  23   1
M  END
> <minimizedAffinity>
-8.89644

$$$$
305


 27 30  0  0  0  0  0  0  0  0999 V2000
   -1.2052   10.7186  -13.6557 C   0  0  0  0  0  0  0  0  0  0  0  0
   -1.1622    9.3926  -13.6461 N   0  0  0  0  0  0  0  0  0  0  0  0
   -2.3531    8.8717  -14.0321 C   0  0  0  0  0  0  0  0  0  0  0  0
   -3.1538    9.9209  -14.2965 N   0  0  0  0  0  0  0  0  0  0  0  0
   -2.5009   11.0168  -14.0855 N   0  0  0  0  0  0  0  0  0  0  0  0
   -2.3369    7.5335  -14.0362 N   0  0  0  0  0  0  0  0  0  0  0  0
   -1.1019    7.1954  -13.6505 C   0  0  0  0  0  0  0  0  0  0  0  0
   -0.3327    8.3403  -13.4016 C   0  0  0  0  0  0  0  0  0  0  0  0
    0.9377    8.2466  -13.0437 N   0  0  0  0  0  0  0  0  0  0  0  0
    1.4661    6.9907  -12.9139 C   0  0  0  0  0  0  0  0  0  0  0  0
    2.6649    6.8577  -12.5722 O   0  0  0  0  0  0  0  0  0  0  0  0
    0.7556    5.8782  -13.1358 N   0  0  0  0  0  0  0  0  0  0  0  0
   -0.5331    5.9518  -13.5080 C   0  0  0  0  0  0  0  0  0  0  0  0
   -1.2324    4.9283  -13.7269 O   0  0  0  0  0  0  0  0  0  0  0  0
    1.8742    9.3281  -12.8786 C   0  0  0  0  0  0  0  0  0  0  0  0
    1.1567    4.9234  -13.0352 H   0  0  0  0  0  0  0  0  0  0  0  0
    2.3490   15.3511  -11.7973 Br  0  0  0  0  0  0  0  0  0  0  0  0
    1.2876   13.9147  -12.4270 C   0  0  0  0  0  0  0  0  0  0  0  0
   -0.0866   14.0310  -12.4317 C   0  0  0  0  0  0  0  0  0  0  0  0
   -0.8508   13.0007  -12.8836 C   0  0  0  0  0  0  0  0  0  0  0  0
   -0.2968   11.8078  -13.3527 C   0  0  0  0  0  0  0  0  0  0  0  0
    1.0731   11.7567  -13.3191 C   0  0  0  0  0  0  0  0  0  0  0  0
    1.8943   12.7624  -12.8751 C   0  0  0  0  0  0  0  0  0  0  0  0
   -3.4215    6.6414  -14.3785 C   0  0  0  0  0  0  0  0  0  0  0  0
   -3.7590    6.6729  -15.8535 C   0  0  0  0  0  0  0  0  0  0  0  0
   -4.8562    7.4836  -16.1175 O   0  0  0  0  0  0  0  0  0  0  0  0
   -5.6606    7.4792  -14.9782 C   0  0  0  0  0  0  0  0  0  0  0  0
 17 18  1  0  0  0
 18 19  2  0  0  0
 18 23  1  0  0  0
 19 20  1  0  0  0
 20 21  2  0  0  0
 21 22  1  0  0  0
 21  1  1  0  0  0
 22 23  2  0  0  0
  1  2  1  0  0  0
  1  5  2  0  0  0
  2  3  1  0  0  0
  2  8  1  0  0  0
  3  4  2  0  0  0
  3  6  1  0  0  0
  4  5  1  0  0  0
  6  7  1  0  0  0
  6 24  1  0  0  0
  7  8  2  0  0  0
  7 13  1  0  0  0
  8  9  1  0  0  0
  9 10  1  0  0  0
  9 15  1  0  0  0
 10 11  2  0  0  0
 10 12  1  0  0  0
 12 13  1  0  0  0
 13 14  2  0  0  0
 24 25  1  0  0  0
 25 26  1  0  0  0
 26 27  1  0  0  0
 12 16  1  0  0  0
M  END
> <minimizedAffinity>
-8.46325

$$$$
309


 33 36  0  0  0  0  0  0  0  0999 V2000
    2.6483    6.5384  -13.1342 C   0  0  0  0  0  0  0  0  0  0  0  0
    3.8417    7.0812  -13.5457 C   0  0  0  0  0  0  0  0  0  0  0  0
    4.9659    6.3921  -13.5856 O   0  0  0  0  0  0  0  0  0  0  0  0
    5.0114    5.1328  -13.2329 C   0  0  0  0  0  0  0  0  0  0  0  0
    3.8711    4.5422  -12.8182 C   0  0  0  0  0  0  0  0  0  0  0  0
    3.8866    3.2168  -12.4432 C   0  0  0  0  0  0  0  0  0  0  0  0
    5.0740    2.5336  -12.5050 C   0  0  0  0  0  0  0  0  0  0  0  0
    6.2580    3.1598  -12.9394 C   0  0  0  0  0  0  0  0  0  0  0  0
    6.2673    4.4700  -13.3144 C   0  0  0  0  0  0  0  0  0  0  0  0
    7.3551    2.3149  -12.9369 O   0  0  0  0  0  0  0  0  0  0  0  0
    2.6569    5.1969  -12.7478 C   0  0  0  0  0  0  0  0  0  0  0  0
    1.6144    4.6540  -12.3678 O   0  0  0  0  0  0  0  0  0  0  0  0
   -2.5372    9.8607  -13.1386 Br  0  0  0  0  0  0  0  0  0  0  0  0
   -0.9216    8.8375  -13.1156 C   0  0  0  0  0  0  0  0  0  0  0  0
   -0.4283    8.3694  -14.2980 C   0  0  0  0  0  0  0  0  0  0  0  0
    0.7333    7.6284  -14.2950 C   0  0  0  0  0  0  0  0  0  0  0  0
    1.4435    7.3244  -13.1366 C   0  0  0  0  0  0  0  0  0  0  0  0
    0.9272    7.8071  -11.9627 C   0  0  0  0  0  0  0  0  0  0  0  0
   -0.2551    8.5649  -11.9398 C   0  0  0  0  0  0  0  0  0  0  0  0
    3.8557    8.4943  -13.9552 C   0  0  0  0  0  0  0  0  0  0  0  0
    3.9298    8.7501  -15.1833 O   0  0  0  0  0  0  0  0  0  0  0  0
    3.7929    9.5347  -13.0808 O   0  0  0  0  0  0  0  0  0  0  0  0
    3.5528   10.8429  -13.5397 C   0  0  0  0  0  0  0  0  0  0  0  0
    2.1103   11.1919  -13.2969 C   0  0  0  0  0  0  0  0  0  0  0  0
    7.3964    5.2507  -13.7584 C   0  0  0  0  0  0  0  0  0  0  0  0
    8.6624    5.1979  -13.1499 N   0  0  0  0  0  0  0  0  0  0  0  0
    9.6160    4.5005  -13.9373 C   0  0  0  0  0  0  0  0  0  0  0  0
   10.7457    3.8226  -13.2684 C   0  0  0  0  0  0  0  0  0  0  0  0
   10.5352    3.5842  -11.9062 N   0  0  0  0  0  0  0  0  0  0  0  0
    9.9864    4.6038  -11.1237 C   0  0  0  0  0  0  0  0  0  0  0  0
    8.7286    5.1357  -11.7346 C   0  0  0  0  0  0  0  0  0  0  0  0
   10.8608    2.3430  -11.3411 C   0  0  0  0  0  0  0  0  0  0  0  0
    9.0115    6.2681  -13.3154 H   0  0  0  0  0  0  0  0  0  0  0  0
 13 14  1  0  0  0
 14 15  2  0  0  0
 14 19  1  0  0  0
 15 16  1  0  0  0
 16 17  2  0  0  0
 17 18  1  0  0  0
 17  1  1  0  0  0
 18 19  2  0  0  0
  1  2  2  0  0  0
  1 11  1  0  0  0
  2  3  1  0  0  0
  2 20  1  0  0  0
  3  4  1  0  0  0
  4  5  2  0  0  0
  4  9  1  0  0  0
  5  6  1  0  0  0
  5 11  1  0  0  0
  6  7  2  0  0  0
  7  8  1  0  0  0
  8  9  2  0  0  0
  8 10  1  0  0  0
  9 25  1  0  0  0
 25 26  1  0  0  0
 26 27  1  0  0  0
 26 31  1  0  0  0
 27 28  1  0  0  0
 28 29  1  0  0  0
 29 30  1  0  0  0
 29 32  1  0  0  0
 30 31  1  0  0  0
 11 12  2  0  0  0
 20 21  2  0  0  0
 20 22  1  0  0  0
 22 23  1  0  0  0
 23 24  1  0  0  0
 26 33  1  0  0  0
M  CHG 1  10  -1
M  CHG 1  26   1
M  END
> <minimizedAffinity>
-7.22400

$$$$
320


 32 36  0  0  0  0  0  0  0  0999 V2000
    1.9230    7.7137  -13.3856 C   0  0  0  0  0  0  0  0  0  0  0  0
    0.7303    7.1480  -13.8656 C   0  0  0  0  0  0  0  0  0  0  0  0
   -0.2076    8.0793  -13.7481 N   0  0  0  0  0  0  0  0  0  0  0  0
   -1.5443    8.2397  -13.9920 C   0  0  0  0  0  0  0  0  0  0  0  0
   -1.8338    9.5200  -13.5925 C   0  0  0  0  0  0  0  0  0  0  0  0
   -0.7101   10.0574  -13.1428 N   0  0  0  0  0  0  0  0  0  0  0  0
    0.3182    9.1661  -13.2348 C   0  0  0  0  0  0  0  0  0  0  0  0
    1.6486    8.9648  -12.9998 N   0  0  0  0  0  0  0  0  0  0  0  0
   -3.1274   10.0400  -13.6951 C   0  0  0  0  0  0  0  0  0  0  0  0
   -4.1382    9.2569  -14.2092 C   0  0  0  0  0  0  0  0  0  0  0  0
   -3.8217    7.9766  -14.6031 C   0  0  0  0  0  0  0  0  0  0  0  0
   -2.5385    7.4518  -14.5034 C   0  0  0  0  0  0  0  0  0  0  0  0
   -0.6585   11.0234  -12.7679 H   0  0  0  0  0  0  0  0  0  0  0  0
    7.1174    4.3827  -13.0854 Br  0  0  0  0  0  0  0  0  0  0  0  0
    5.5085    5.4366  -13.1853 C   0  0  0  0  0  0  0  0  0  0  0  0
    4.3327    4.9957  -12.6603 C   0  0  0  0  0  0  0  0  0  0  0  0
    3.1950    5.7469  -12.7335 C   0  0  0  0  0  0  0  0  0  0  0  0
    3.1727    6.9863  -13.3405 C   0  0  0  0  0  0  0  0  0  0  0  0
    4.3411    7.4263  -13.8632 C   0  0  0  0  0  0  0  0  0  0  0  0
    5.5296    6.6594  -13.7955 C   0  0  0  0  0  0  0  0  0  0  0  0
    2.4658    9.9889  -12.4247 C   0  0  0  0  0  0  0  0  0  0  0  0
    3.3261   10.7649  -13.3380 C   0  0  0  0  0  0  0  0  0  0  0  0
    3.4481   12.2320  -13.1353 C   0  0  0  0  0  0  0  0  0  0  0  0
    2.8892   12.6527  -11.8695 N   0  0  0  0  0  0  0  0  0  0  0  0
    2.6579   11.9157  -11.2081 H   0  0  0  0  0  0  0  0  0  0  0  0
    3.6896   13.1933  -11.3755 H   0  0  0  0  0  0  0  0  0  0  0  0
    1.8340   13.6123  -12.0073 C   0  0  0  0  0  0  0  0  0  0  0  0
    2.2795   14.9996  -12.3744 C   0  0  0  0  0  0  0  0  0  0  0  0
    1.1211   15.9337  -11.9943 C   0  0  0  0  0  0  0  0  0  0  0  0
   -0.0720   15.5629  -12.8051 C   0  0  0  0  0  0  0  0  0  0  0  0
   -0.4350   14.0984  -12.7215 C   0  0  0  0  0  0  0  0  0  0  0  0
    0.7829   13.2232  -13.0388 C   0  0  0  0  0  0  0  0  0  0  0  0
 14 15  1  0  0  0
 15 16  2  0  0  0
 15 20  1  0  0  0
 16 17  1  0  0  0
 17 18  2  0  0  0
 18 19  1  0  0  0
 18  1  1  0  0  0
 19 20  2  0  0  0
  1  2  2  0  0  0
  1  8  1  0  0  0
  2  3  1  0  0  0
  3  4  1  0  0  0
  3  7  1  0  0  0
  4  5  2  0  0  0
  4 12  1  0  0  0
  5  6  1  0  0  0
  5  9  1  0  0  0
  6  7  2  0  0  0
  7  8  1  0  0  0
  8 21  1  0  0  0
 21 22  1  0  0  0
 22 23  1  0  0  0
 23 24  1  0  0  0
 24 27  1  0  0  0
 27 28  1  0  0  0
 27 32  1  0  0  0
 28 29  1  0  0  0
 29 30  1  0  0  0
 30 31  1  0  0  0
 31 32  1  0  0  0
  9 10  2  0  0  0
 10 11  1  0  0  0
 11 12  2  0  0  0
  6 13  1  0  0  0
 24 25  1  0  0  0
 24 26  1  0  0  0
M  CHG 1  24   1
M  END
> <minimizedAffinity>
-9.36617

$$$$
324


 34 38  0  0  0  0  0  0  0  0999 V2000
    1.9564    7.9177  -13.5945 C   0  0  0  0  0  0  0  0  0  0  0  0
    0.7951    7.2451  -14.0198 C   0  0  0  0  0  0  0  0  0  0  0  0
   -0.2793    8.0334  -13.9071 N   0  0  0  0  0  0  0  0  0  0  0  0
   -1.6205    8.0945  -14.0954 C   0  0  0  0  0  0  0  0  0  0  0  0
   -2.0049    9.3537  -13.7039 C   0  0  0  0  0  0  0  0  0  0  0  0
   -0.8930   10.0225  -13.2900 N   0  0  0  0  0  0  0  0  0  0  0  0
    0.1583    9.1924  -13.4234 C   0  0  0  0  0  0  0  0  0  0  0  0
    1.5241    9.1267  -13.2302 N   0  0  0  0  0  0  0  0  0  0  0  0
   -3.3414    9.6814  -13.7954 C   0  0  0  0  0  0  0  0  0  0  0  0
   -4.2855    8.7778  -14.2663 C   0  0  0  0  0  0  0  0  0  0  0  0
   -3.8999    7.5201  -14.6562 C   0  0  0  0  0  0  0  0  0  0  0  0
   -2.5429    7.1889  -14.5631 C   0  0  0  0  0  0  0  0  0  0  0  0
   -0.8912   11.0048  -12.9375 H   0  0  0  0  0  0  0  0  0  0  0  0
    7.4989    5.1148  -13.2029 Br  0  0  0  0  0  0  0  0  0  0  0  0
    5.7953    5.9844  -13.3440 C   0  0  0  0  0  0  0  0  0  0  0  0
    5.6789    7.2137  -13.9405 C   0  0  0  0  0  0  0  0  0  0  0  0
    4.4304    7.8493  -14.0426 C   0  0  0  0  0  0  0  0  0  0  0  0
    3.2823    7.3015  -13.5676 C   0  0  0  0  0  0  0  0  0  0  0  0
    3.4235    6.0502  -12.9660 C   0  0  0  0  0  0  0  0  0  0  0  0
    4.6508    5.4151  -12.8608 C   0  0  0  0  0  0  0  0  0  0  0  0
    2.2906   10.2299  -12.6905 C   0  0  0  0  0  0  0  0  0  0  0  0
    2.6594   11.2796  -13.7119 C   0  0  0  0  0  0  0  0  0  0  0  0
    2.7965   12.6390  -13.0735 C   0  0  0  0  0  0  0  0  0  0  0  0
    1.7864   12.9557  -12.1018 N   0  0  0  0  0  0  0  0  0  0  0  0
    0.5160   12.8584  -12.8028 C   0  0  0  0  0  0  0  0  0  0  0  0
   -0.4211   13.9787  -12.5487 C   0  0  0  0  0  0  0  0  0  0  0  0
    0.1470   15.2985  -12.5863 N   0  0  0  0  0  0  0  0  0  0  0  0
    1.5791   15.3183  -12.3747 C   0  0  0  0  0  0  0  0  0  0  0  0
    1.9350   14.1979  -11.4192 C   0  0  0  0  0  0  0  0  0  0  0  0
   -0.2517   15.8069  -11.7355 H   0  0  0  0  0  0  0  0  0  0  0  0
   -0.3028   16.0460  -13.7171 C   0  0  0  0  0  0  0  0  0  0  0  0
   -1.5273   16.8711  -13.5122 C   0  0  0  0  0  0  0  0  0  0  0  0
   -1.8020   17.1454  -12.1736 O   0  0  0  0  0  0  0  0  0  0  0  0
   -0.9891   17.4299  -11.7214 H   0  0  0  0  0  0  0  0  0  0  0  0
 14 15  1  0  0  0
 15 16  2  0  0  0
 15 20  1  0  0  0
 16 17  1  0  0  0
 17 18  2  0  0  0
 18 19  1  0  0  0
 18  1  1  0  0  0
 19 20  2  0  0  0
  1  2  2  0  0  0
  1  8  1  0  0  0
  2  3  1  0  0  0
  3  4  1  0  0  0
  3  7  1  0  0  0
  4  5  2  0  0  0
  4 12  1  0  0  0
  5  6  1  0  0  0
  5  9  1  0  0  0
  6  7  2  0  0  0
  7  8  1  0  0  0
  8 21  1  0  0  0
 21 22  1  0  0  0
 22 23  1  0  0  0
 23 24  1  0  0  0
 24 25  1  0  0  0
 24 29  1  0  0  0
 25 26  1  0  0  0
 26 27  1  0  0  0
 27 28  1  0  0  0
 27 31  1  0  0  0
 28 29  1  0  0  0
 31 32  1  0  0  0
 32 33  1  0  0  0
  9 10  2  0  0  0
 10 11  1  0  0  0
 11 12  2  0  0  0
  6 13  1  0  0  0
 27 30  1  0  0  0
 33 34  1  0  0  0
M  CHG 1  27   1
M  END
> <minimizedAffinity>
-9.03508

$$$$
346


 35 38  0  0  0  0  0  0  0  0999 V2000
    1.9328    7.9396  -13.7901 C   0  0  0  0  0  0  0  0  0  0  0  0
    0.8667    7.3108  -13.0590 N   0  0  0  0  0  0  0  0  0  0  0  0
    1.3278    6.1659  -12.3679 C   0  0  0  0  0  0  0  0  0  0  0  0
    0.6609    5.3614  -11.6463 O   0  0  0  0  0  0  0  0  0  0  0  0
    2.7808    6.0141  -12.6055 C   0  0  0  0  0  0  0  0  0  0  0  0
    3.4963    5.0994  -12.1387 O   0  0  0  0  0  0  0  0  0  0  0  0
    3.1468    7.1208  -13.4640 C   0  0  0  0  0  0  0  0  0  0  0  0
    4.3708    7.3062  -13.9064 C   0  0  0  0  0  0  0  0  0  0  0  0
    4.5910    8.3829  -14.7910 O   0  0  0  0  0  0  0  0  0  0  0  0
    2.6800   13.9346  -12.4057 Br  0  0  0  0  0  0  0  0  0  0  0  0
    2.4596   12.0695  -12.8099 C   0  0  0  0  0  0  0  0  0  0  0  0
    1.8261   11.6966  -13.9742 C   0  0  0  0  0  0  0  0  0  0  0  0
    1.6545   10.3458  -14.2929 C   0  0  0  0  0  0  0  0  0  0  0  0
    2.1125    9.3540  -13.4525 C   0  0  0  0  0  0  0  0  0  0  0  0
    2.7401    9.7682  -12.2996 C   0  0  0  0  0  0  0  0  0  0  0  0
    2.9169   11.0914  -11.9710 C   0  0  0  0  0  0  0  0  0  0  0  0
    5.5269    6.5155  -13.5682 C   0  0  0  0  0  0  0  0  0  0  0  0
    5.6675    5.1806  -13.7203 C   0  0  0  0  0  0  0  0  0  0  0  0
    6.8476    4.5502  -13.3860 C   0  0  0  0  0  0  0  0  0  0  0  0
    7.9444    5.2183  -12.8853 C   0  0  0  0  0  0  0  0  0  0  0  0
    7.7750    6.5810  -12.7385 C   0  0  0  0  0  0  0  0  0  0  0  0
    6.6184    7.2363  -13.0594 C   0  0  0  0  0  0  0  0  0  0  0  0
    6.9548    3.0659  -13.5745 C   0  0  0  0  0  0  0  0  0  0  0  0
    9.1306    4.5768  -12.5502 O   0  0  0  0  0  0  0  0  0  0  0  0
    9.5113    4.4526  -11.1876 C   0  0  0  0  0  0  0  0  0  0  0  0
   -0.4995    7.8018  -13.0540 C   0  0  0  0  0  0  0  0  0  0  0  0
   -1.4952    6.8017  -13.5742 C   0  0  0  0  0  0  0  0  0  0  0  0
   -2.1717    7.2874  -14.8194 C   0  0  0  0  0  0  0  0  0  0  0  0
   -3.4644    7.8587  -14.5764 N   0  0  0  0  0  0  0  0  0  0  0  0
   -4.4017    7.6400  -15.6589 C   0  0  0  0  0  0  0  0  0  0  0  0
   -5.7767    8.0826  -15.1476 C   0  0  0  0  0  0  0  0  0  0  0  0
   -5.6568    8.7677  -13.9477 O   0  0  0  0  0  0  0  0  0  0  0  0
   -4.7276    9.8233  -14.0784 C   0  0  0  0  0  0  0  0  0  0  0  0
   -3.3257    9.2499  -14.2517 C   0  0  0  0  0  0  0  0  0  0  0  0
   -3.8867    7.3817  -13.7247 H   0  0  0  0  0  0  0  0  0  0  0  0
 10 11  1  0  0  0
 11 12  2  0  0  0
 11 16  1  0  0  0
 12 13  1  0  0  0
 13 14  2  0  0  0
 14 15  1  0  0  0
 14  1  1  0  0  0
 15 16  2  0  0  0
  1  2  1  0  0  0
  1  7  1  0  0  0
  2  3  1  0  0  0
  2 26  1  0  0  0
  3  4  2  0  0  0
  3  5  1  0  0  0
  5  6  2  0  0  0
  5  7  1  0  0  0
  7  8  2  0  0  0
  8  9  1  0  0  0
  8 17  1  0  0  0
 17 18  2  0  0  0
 17 22  1  0  0  0
 18 19  1  0  0  0
 19 20  2  0  0  0
 19 23  1  0  0  0
 20 21  1  0  0  0
 20 24  1  0  0  0
 21 22  2  0  0  0
 24 25  1  0  0  0
 26 27  1  0  0  0
 27 28  1  0  0  0
 28 29  1  0  0  0
 29 30  1  0  0  0
 29 34  1  0  0  0
 30 31  1  0  0  0
 31 32  1  0  0  0
 32 33  1  0  0  0
 33 34  1  0  0  0
 29 35  1  0  0  0
M  CHG 1   9  -1
M  CHG 1  29   1
M  END
> <minimizedAffinity>
-9.18541

$$$$
347


 34 37  0  0  0  0  0  0  0  0999 V2000
    2.7868    9.0573  -12.6783 C   0  0  0  0  0  0  0  0  0  0  0  0
    3.7849    8.6415  -13.6424 N   0  0  0  0  0  0  0  0  0  0  0  0
    3.1628    8.7254  -14.9263 C   0  0  0  0  0  0  0  0  0  0  0  0
    3.7355    8.8917  -16.0316 O   0  0  0  0  0  0  0  0  0  0  0  0
    1.7316    8.5774  -14.6852 C   0  0  0  0  0  0  0  0  0  0  0  0
    0.7796    8.5846  -15.5052 O   0  0  0  0  0  0  0  0  0  0  0  0
    1.5481    8.4088  -13.2472 C   0  0  0  0  0  0  0  0  0  0  0  0
    0.5255    7.8600  -12.6388 C   0  0  0  0  0  0  0  0  0  0  0  0
    0.5650    7.8689  -11.2332 O   0  0  0  0  0  0  0  0  0  0  0  0
    2.2864   15.1982  -12.4407 Br  0  0  0  0  0  0  0  0  0  0  0  0
    2.4307   13.2977  -12.5232 C   0  0  0  0  0  0  0  0  0  0  0  0
    3.6141   12.6818  -12.1904 C   0  0  0  0  0  0  0  0  0  0  0  0
    3.7226   11.2898  -12.2485 C   0  0  0  0  0  0  0  0  0  0  0  0
    2.6624   10.5077  -12.6355 C   0  0  0  0  0  0  0  0  0  0  0  0
    1.4908   11.1523  -12.9630 C   0  0  0  0  0  0  0  0  0  0  0  0
    1.3653   12.5289  -12.9108 C   0  0  0  0  0  0  0  0  0  0  0  0
   -0.6021    7.2588  -13.3437 C   0  0  0  0  0  0  0  0  0  0  0  0
   -1.7223    7.9520  -13.7425 C   0  0  0  0  0  0  0  0  0  0  0  0
   -2.8040    7.3851  -14.3922 C   0  0  0  0  0  0  0  0  0  0  0  0
   -2.7707    6.0473  -14.6632 C   0  0  0  0  0  0  0  0  0  0  0  0
   -1.6568    5.3062  -14.2791 C   0  0  0  0  0  0  0  0  0  0  0  0
   -0.5969    5.9057  -13.6325 C   0  0  0  0  0  0  0  0  0  0  0  0
   -3.8410    8.2298  -14.7181 O   0  0  0  0  0  0  0  0  0  0  0  0
   -5.0944    7.8904  -15.2029 C   0  0  0  0  0  0  0  0  0  0  0  0
    5.1692    8.2140  -13.3772 C   0  0  0  0  0  0  0  0  0  0  0  0
    5.3478    6.7325  -13.7418 C   0  0  0  0  0  0  0  0  0  0  0  0
    6.6008    6.2135  -13.0961 C   0  0  0  0  0  0  0  0  0  0  0  0
    7.7051    7.0701  -13.4556 N   0  0  0  0  0  0  0  0  0  0  0  0
    8.5035    6.5738  -14.5321 C   0  0  0  0  0  0  0  0  0  0  0  0
    9.3531    5.4112  -14.1466 C   0  0  0  0  0  0  0  0  0  0  0  0
   10.1579    5.7236  -13.0648 O   0  0  0  0  0  0  0  0  0  0  0  0
    9.3223    6.0343  -11.9913 C   0  0  0  0  0  0  0  0  0  0  0  0
    8.5915    7.3184  -12.3327 C   0  0  0  0  0  0  0  0  0  0  0  0
    7.3176    8.0023  -13.7310 H   0  0  0  0  0  0  0  0  0  0  0  0
 10 11  1  0  0  0
 11 12  2  0  0  0
 11 16  1  0  0  0
 12 13  1  0  0  0
 13 14  2  0  0  0
 14 15  1  0  0  0
 14  1  1  0  0  0
 15 16  2  0  0  0
  1  2  1  0  0  0
  1  7  1  0  0  0
  2  3  1  0  0  0
  2 25  1  0  0  0
  3  4  2  0  0  0
  3  5  1  0  0  0
  5  6  2  0  0  0
  5  7  1  0  0  0
  7  8  2  0  0  0
  8  9  1  0  0  0
  8 17  1  0  0  0
 17 18  2  0  0  0
 17 22  1  0  0  0
 18 19  1  0  0  0
 19 20  2  0  0  0
 19 23  1  0  0  0
 20 21  1  0  0  0
 21 22  2  0  0  0
 23 24  1  0  0  0
 25 26  1  0  0  0
 26 27  1  0  0  0
 27 28  1  0  0  0
 28 29  1  0  0  0
 28 33  1  0  0  0
 29 30  1  0  0  0
 30 31  1  0  0  0
 31 32  1  0  0  0
 32 33  1  0  0  0
 28 34  1  0  0  0
M  CHG 1   9  -1
M  CHG 1  28   1
M  END
> <minimizedAffinity>
-8.27347

$$$$
349


 32 35  0  0  0  0  0  0  0  0999 V2000
    1.7584    7.7888  -12.8494 C   0  0  0  0  0  0  0  0  0  0  0  0
    0.6703    7.1087  -13.4070 N   0  0  0  0  0  0  0  0  0  0  0  0
    0.6861    5.8051  -12.7115 C   0  0  0  0  0  0  0  0  0  0  0  0
   -0.3057    5.0710  -12.4470 O   0  0  0  0  0  0  0  0  0  0  0  0
    2.1018    5.5717  -12.4088 C   0  0  0  0  0  0  0  0  0  0  0  0
    2.6265    4.5745  -11.8255 O   0  0  0  0  0  0  0  0  0  0  0  0
    2.8212    6.7484  -12.9337 C   0  0  0  0  0  0  0  0  0  0  0  0
    4.0516    6.8002  -13.3911 C   0  0  0  0  0  0  0  0  0  0  0  0
    4.5573    7.9823  -13.9189 O   0  0  0  0  0  0  0  0  0  0  0  0
    3.3442   13.7187  -13.1125 Br  0  0  0  0  0  0  0  0  0  0  0  0
    2.8491   11.8698  -13.0456 C   0  0  0  0  0  0  0  0  0  0  0  0
    2.9327   11.1389  -11.8805 C   0  0  0  0  0  0  0  0  0  0  0  0
    2.5750    9.8213  -11.8562 C   0  0  0  0  0  0  0  0  0  0  0  0
    2.1102    9.1485  -12.9964 C   0  0  0  0  0  0  0  0  0  0  0  0
    2.0295    9.8696  -14.1348 C   0  0  0  0  0  0  0  0  0  0  0  0
    2.3942   11.2163  -14.1653 C   0  0  0  0  0  0  0  0  0  0  0  0
    4.9546    5.6601  -13.3707 C   0  0  0  0  0  0  0  0  0  0  0  0
    4.6938    4.4217  -13.8677 C   0  0  0  0  0  0  0  0  0  0  0  0
    5.6632    3.4294  -13.8252 C   0  0  0  0  0  0  0  0  0  0  0  0
    6.9004    3.6852  -13.2793 C   0  0  0  0  0  0  0  0  0  0  0  0
    7.2036    4.9243  -12.7657 C   0  0  0  0  0  0  0  0  0  0  0  0
    6.2185    5.9005  -12.8196 C   0  0  0  0  0  0  0  0  0  0  0  0
    7.9683    2.6430  -13.2161 C   0  0  0  0  0  0  0  0  0  0  0  0
   -0.3888    7.3542  -14.3744 C   0  0  0  0  0  0  0  0  0  0  0  0
   -1.4569    8.2986  -13.8886 C   0  0  0  0  0  0  0  0  0  0  0  0
   -2.7856    7.8226  -14.0925 N   0  0  0  0  0  0  0  0  0  0  0  0
   -2.8334    6.9481  -15.2492 C   0  0  0  0  0  0  0  0  0  0  0  0
   -4.2398    6.4331  -15.4058 C   0  0  0  0  0  0  0  0  0  0  0  0
   -5.0206    7.5323  -15.7986 O   0  0  0  0  0  0  0  0  0  0  0  0
   -5.0193    8.4385  -14.7638 C   0  0  0  0  0  0  0  0  0  0  0  0
   -3.6445    8.9695  -14.4498 C   0  0  0  0  0  0  0  0  0  0  0  0
   -3.1869    7.3631  -13.2623 H   0  0  0  0  0  0  0  0  0  0  0  0
 10 11  1  0  0  0
 11 12  2  0  0  0
 11 16  1  0  0  0
 12 13  1  0  0  0
 13 14  2  0  0  0
 14 15  1  0  0  0
 14  1  1  0  0  0
 15 16  2  0  0  0
  1  2  1  0  0  0
  1  7  1  0  0  0
  2  3  1  0  0  0
  2 24  1  0  0  0
  3  4  2  0  0  0
  3  5  1  0  0  0
  5  6  2  0  0  0
  5  7  1  0  0  0
  7  8  2  0  0  0
  8  9  1  0  0  0
  8 17  1  0  0  0
 17 18  2  0  0  0
 17 22  1  0  0  0
 18 19  1  0  0  0
 19 20  2  0  0  0
 20 21  1  0  0  0
 20 23  1  0  0  0
 21 22  2  0  0  0
 24 25  1  0  0  0
 25 26  1  0  0  0
 26 27  1  0  0  0
 26 31  1  0  0  0
 27 28  1  0  0  0
 28 29  1  0  0  0
 29 30  1  0  0  0
 30 31  1  0  0  0
 26 32  1  0  0  0
M  CHG 1   9  -1
M  CHG 1  26   1
M  END
> <minimizedAffinity>
-7.84892

$$$$
351


 32 35  0  0  0  0  0  0  0  0999 V2000
    0.0690    7.8746  -14.0030 C   0  0  0  0  0  0  0  0  0  0  0  0
    0.0694    6.6135  -13.3564 N   0  0  0  0  0  0  0  0  0  0  0  0
   -1.1338    5.9696  -13.8741 C   0  0  0  0  0  0  0  0  0  0  0  0
   -1.3130    4.7284  -14.0086 O   0  0  0  0  0  0  0  0  0  0  0  0
   -2.0606    7.0548  -14.1914 C   0  0  0  0  0  0  0  0  0  0  0  0
   -3.2266    6.9742  -14.6577 O   0  0  0  0  0  0  0  0  0  0  0  0
   -1.3564    8.2929  -13.8509 C   0  0  0  0  0  0  0  0  0  0  0  0
   -1.8825    9.4423  -13.4675 C   0  0  0  0  0  0  0  0  0  0  0  0
   -1.0639   10.5048  -13.1182 O   0  0  0  0  0  0  0  0  0  0  0  0
    4.2916   12.1378  -12.7176 Br  0  0  0  0  0  0  0  0  0  0  0  0
    2.9879   10.8292  -13.1696 C   0  0  0  0  0  0  0  0  0  0  0  0
    2.5159   10.6473  -14.4494 C   0  0  0  0  0  0  0  0  0  0  0  0
    1.5535    9.6703  -14.7445 C   0  0  0  0  0  0  0  0  0  0  0  0
    1.0500    8.8630  -13.7643 C   0  0  0  0  0  0  0  0  0  0  0  0
    1.5419    9.0680  -12.4918 C   0  0  0  0  0  0  0  0  0  0  0  0
    2.4861   10.0208  -12.1848 C   0  0  0  0  0  0  0  0  0  0  0  0
   -3.3160    9.6866  -13.3895 C   0  0  0  0  0  0  0  0  0  0  0  0
   -3.9062   10.0846  -14.5966 C   0  0  0  0  0  0  0  0  0  0  0  0
   -5.2576   10.3169  -14.7053 C   0  0  0  0  0  0  0  0  0  0  0  0
   -6.0472   10.1465  -13.5735 C   0  0  0  0  0  0  0  0  0  0  0  0
   -5.4600    9.7546  -12.3906 C   0  0  0  0  0  0  0  0  0  0  0  0
   -4.1039    9.5236  -12.2925 C   0  0  0  0  0  0  0  0  0  0  0  0
   -7.7640   10.4457  -13.7233 Cl  0  0  0  0  0  0  0  0  0  0  0  0
    0.9900    5.9459  -12.4319 C   0  0  0  0  0  0  0  0  0  0  0  0
    2.1876    5.3308  -13.0879 C   0  0  0  0  0  0  0  0  0  0  0  0
    3.2527    5.0436  -12.1534 N   0  0  0  0  0  0  0  0  0  0  0  0
    4.5142    5.6008  -12.5541 C   0  0  0  0  0  0  0  0  0  0  0  0
    5.1241    4.9302  -13.7500 C   0  0  0  0  0  0  0  0  0  0  0  0
    5.2002    3.5451  -13.5946 O   0  0  0  0  0  0  0  0  0  0  0  0
    3.8807    3.0971  -13.4317 C   0  0  0  0  0  0  0  0  0  0  0  0
    3.4092    3.6020  -12.0849 C   0  0  0  0  0  0  0  0  0  0  0  0
    3.0407    5.3733  -11.1919 H   0  0  0  0  0  0  0  0  0  0  0  0
 10 11  1  0  0  0
 11 12  2  0  0  0
 11 16  1  0  0  0
 12 13  1  0  0  0
 13 14  2  0  0  0
 14 15  1  0  0  0
 14  1  1  0  0  0
 15 16  2  0  0  0
  1  2  1  0  0  0
  1  7  1  0  0  0
  2  3  1  0  0  0
  2 24  1  0  0  0
  3  4  2  0  0  0
  3  5  1  0  0  0
  5  6  2  0  0  0
  5  7  1  0  0  0
  7  8  2  0  0  0
  8  9  1  0  0  0
  8 17  1  0  0  0
 17 18  2  0  0  0
 17 22  1  0  0  0
 18 19  1  0  0  0
 19 20  2  0  0  0
 20 21  1  0  0  0
 20 23  1  0  0  0
 21 22  2  0  0  0
 24 25  1  0  0  0
 25 26  1  0  0  0
 26 27  1  0  0  0
 26 31  1  0  0  0
 27 28  1  0  0  0
 28 29  1  0  0  0
 29 30  1  0  0  0
 30 31  1  0  0  0
 26 32  1  0  0  0
M  CHG 1   9  -1
M  CHG 1  26   1
M  END
> <minimizedAffinity>
-6.46263

$$$$
354


 32 35  0  0  0  0  0  0  0  0999 V2000
    0.6851    9.6326  -14.2409 C   0  0  0  0  0  0  0  0  0  0  0  0
   -0.4134    8.9410  -13.6462 N   0  0  0  0  0  0  0  0  0  0  0  0
   -1.4036    9.9609  -13.3546 C   0  0  0  0  0  0  0  0  0  0  0  0
   -2.6279    9.7351  -13.1705 O   0  0  0  0  0  0  0  0  0  0  0  0
   -0.7254   11.2425  -13.3186 C   0  0  0  0  0  0  0  0  0  0  0  0
   -1.2324   12.3830  -13.0915 O   0  0  0  0  0  0  0  0  0  0  0  0
    0.6707   10.9719  -13.5950 C   0  0  0  0  0  0  0  0  0  0  0  0
    1.6879   11.7587  -13.2918 C   0  0  0  0  0  0  0  0  0  0  0  0
    2.9749   11.2653  -13.6164 O   0  0  0  0  0  0  0  0  0  0  0  0
    6.1725    6.8305  -13.7499 Br  0  0  0  0  0  0  0  0  0  0  0  0
    4.4862    7.7042  -13.9455 C   0  0  0  0  0  0  0  0  0  0  0  0
    4.1522    8.4114  -15.0799 C   0  0  0  0  0  0  0  0  0  0  0  0
    2.9273    9.0383  -15.2059 C   0  0  0  0  0  0  0  0  0  0  0  0
    1.9884    8.9982  -14.2318 C   0  0  0  0  0  0  0  0  0  0  0  0
    2.3402    8.2741  -13.0803 C   0  0  0  0  0  0  0  0  0  0  0  0
    3.5531    7.6417  -12.9334 C   0  0  0  0  0  0  0  0  0  0  0  0
    1.5613   13.0621  -12.6712 C   0  0  0  0  0  0  0  0  0  0  0  0
    2.3797   13.2966  -11.5591 C   0  0  0  0  0  0  0  0  0  0  0  0
    2.3936   14.5067  -10.8978 C   0  0  0  0  0  0  0  0  0  0  0  0
    1.5985   15.5047  -11.3241 N   0  0  0  0  0  0  0  0  0  0  0  0
    0.7999   15.3070  -12.3933 C   0  0  0  0  0  0  0  0  0  0  0  0
    0.7773   14.0890  -13.0700 C   0  0  0  0  0  0  0  0  0  0  0  0
   -0.6615    7.5186  -13.4029 C   0  0  0  0  0  0  0  0  0  0  0  0
   -0.7445    6.6712  -14.6266 C   0  0  0  0  0  0  0  0  0  0  0  0
   -2.1330    6.0806  -14.8166 C   0  0  0  0  0  0  0  0  0  0  0  0
   -3.1583    7.0816  -14.6346 N   0  0  0  0  0  0  0  0  0  0  0  0
   -3.8028    7.4484  -15.8752 C   0  0  0  0  0  0  0  0  0  0  0  0
   -5.1072    8.1555  -15.4990 C   0  0  0  0  0  0  0  0  0  0  0  0
   -6.0269    7.1919  -15.0866 O   0  0  0  0  0  0  0  0  0  0  0  0
   -5.4232    6.2067  -14.3063 C   0  0  0  0  0  0  0  0  0  0  0  0
   -4.1450    6.7098  -13.6677 C   0  0  0  0  0  0  0  0  0  0  0  0
   -2.6738    7.9407  -14.2796 H   0  0  0  0  0  0  0  0  0  0  0  0
 10 11  1  0  0  0
 11 12  2  0  0  0
 11 16  1  0  0  0
 12 13  1  0  0  0
 13 14  2  0  0  0
 14 15  1  0  0  0
 14  1  1  0  0  0
 15 16  2  0  0  0
  1  2  1  0  0  0
  1  7  1  0  0  0
  2  3  1  0  0  0
  2 23  1  0  0  0
  3  4  2  0  0  0
  3  5  1  0  0  0
  5  6  2  0  0  0
  5  7  1  0  0  0
  7  8  2  0  0  0
  8  9  1  0  0  0
  8 17  1  0  0  0
 17 18  2  0  0  0
 17 22  1  0  0  0
 18 19  1  0  0  0
 19 20  2  0  0  0
 20 21  1  0  0  0
 21 22  2  0  0  0
 23 24  1  0  0  0
 24 25  1  0  0  0
 25 26  1  0  0  0
 26 27  1  0  0  0
 26 31  1  0  0  0
 27 28  1  0  0  0
 28 29  1  0  0  0
 29 30  1  0  0  0
 30 31  1  0  0  0
 26 32  1  0  0  0
M  CHG 1   9  -1
M  CHG 1  26   1
M  END
> <minimizedAffinity>
-7.70769

$$$$
361


 33 36  0  0  0  0  0  0  0  0999 V2000
    2.4424    8.2450  -12.5982 C   0  0  0  0  0  0  0  0  0  0  0  0
    2.9596    9.3766  -13.3898 N   0  0  0  0  0  0  0  0  0  0  0  0
    2.5291    9.1064  -14.7192 C   0  0  0  0  0  0  0  0  0  0  0  0
    3.1033    9.5474  -15.7563 O   0  0  0  0  0  0  0  0  0  0  0  0
    1.3432    8.2578  -14.6666 C   0  0  0  0  0  0  0  0  0  0  0  0
    0.6868    7.8239  -15.6355 O   0  0  0  0  0  0  0  0  0  0  0  0
    1.0986    8.0381  -13.2532 C   0  0  0  0  0  0  0  0  0  0  0  0
   -0.0350    7.7622  -12.6605 C   0  0  0  0  0  0  0  0  0  0  0  0
   -0.1074    7.6309  -11.2810 O   0  0  0  0  0  0  0  0  0  0  0  0
   -1.2633    7.5763  -13.4095 C   0  0  0  0  0  0  0  0  0  0  0  0
   -2.2372    8.4408  -13.7608 N   0  0  0  0  0  0  0  0  0  0  0  0
   -3.2155    7.8118  -14.4283 C   0  0  0  0  0  0  0  0  0  0  0  0
   -2.8455    6.5148  -14.4983 N   0  0  0  0  0  0  0  0  0  0  0  0
   -1.6840    6.3226  -13.9040 C   0  0  0  0  0  0  0  0  0  0  0  0
   -0.8927    5.0611  -13.7395 C   0  0  0  0  0  0  0  0  0  0  0  0
   -4.3410    8.4686  -14.9269 C   0  0  0  0  0  0  0  0  0  0  0  0
   -4.4831    9.8247  -14.7434 C   0  0  0  0  0  0  0  0  0  0  0  0
   -3.4690   10.4538  -14.0588 C   0  0  0  0  0  0  0  0  0  0  0  0
   -2.3717    9.7796  -13.5782 C   0  0  0  0  0  0  0  0  0  0  0  0
    5.8056    3.1142  -13.6306 Br  0  0  0  0  0  0  0  0  0  0  0  0
    4.7635    4.6974  -13.3146 C   0  0  0  0  0  0  0  0  0  0  0  0
    5.2380    5.9416  -13.6881 C   0  0  0  0  0  0  0  0  0  0  0  0
    4.4706    7.0810  -13.4524 C   0  0  0  0  0  0  0  0  0  0  0  0
    3.2354    7.0216  -12.8521 C   0  0  0  0  0  0  0  0  0  0  0  0
    2.7814    5.7725  -12.4883 C   0  0  0  0  0  0  0  0  0  0  0  0
    3.5301    4.6417  -12.7156 C   0  0  0  0  0  0  0  0  0  0  0  0
    3.7382   10.4806  -12.8933 C   0  0  0  0  0  0  0  0  0  0  0  0
    3.2841   11.8634  -13.1508 C   0  0  0  0  0  0  0  0  0  0  0  0
    2.9704   12.7748  -12.0314 C   0  0  0  0  0  0  0  0  0  0  0  0
    2.1619   13.9242  -12.3050 N   0  0  0  0  0  0  0  0  0  0  0  0
    0.7994   13.4169  -12.6344 C   0  0  0  0  0  0  0  0  0  0  0  0
    1.9686   14.6916  -11.0917 C   0  0  0  0  0  0  0  0  0  0  0  0
    2.4680   14.5355  -13.0616 H   0  0  0  0  0  0  0  0  0  0  0  0
 20 21  1  0  0  0
 21 22  2  0  0  0
 21 26  1  0  0  0
 22 23  1  0  0  0
 23 24  2  0  0  0
 24 25  1  0  0  0
 24  1  1  0  0  0
 25 26  2  0  0  0
  1  2  1  0  0  0
  1  7  1  0  0  0
  2  3  1  0  0  0
  2 27  1  0  0  0
  3  4  2  0  0  0
  3  5  1  0  0  0
  5  6  2  0  0  0
  5  7  1  0  0  0
  7  8  2  0  0  0
  8  9  1  0  0  0
  8 10  1  0  0  0
 10 11  1  0  0  0
 10 14  2  0  0  0
 11 12  1  0  0  0
 11 19  1  0  0  0
 12 13  2  0  0  0
 12 16  1  0  0  0
 13 14  1  0  0  0
 14 15  1  0  0  0
 16 17  2  0  0  0
 17 18  1  0  0  0
 18 19  2  0  0  0
 27 28  1  0  0  0
 28 29  1  0  0  0
 29 30  1  0  0  0
 30 31  1  0  0  0
 30 32  1  0  0  0
 30 33  1  0  0  0
M  CHG 1   9  -1
M  CHG 1  30   1
M  END
> <minimizedAffinity>
-8.41252

$$$$
362


 36 40  0  0  0  0  0  0  0  0999 V2000
   -0.2574   11.3686  -12.8200 C   0  0  0  0  0  0  0  0  0  0  0  0
    0.1655   12.6717  -13.1199 N   0  0  0  0  0  0  0  0  0  0  0  0
    1.5177   12.6997  -12.5887 C   0  0  0  0  0  0  0  0  0  0  0  0
    2.1828   13.7124  -12.1818 O   0  0  0  0  0  0  0  0  0  0  0  0
    2.0209   11.3305  -12.5934 C   0  0  0  0  0  0  0  0  0  0  0  0
    3.1417   10.8544  -12.2230 O   0  0  0  0  0  0  0  0  0  0  0  0
    0.9265   10.5299  -13.1389 C   0  0  0  0  0  0  0  0  0  0  0  0
    0.9860    9.3474  -13.7217 C   0  0  0  0  0  0  0  0  0  0  0  0
   -0.1805    8.7152  -14.1294 O   0  0  0  0  0  0  0  0  0  0  0  0
    2.2414    8.6549  -13.9690 C   0  0  0  0  0  0  0  0  0  0  0  0
    2.6669    7.4991  -13.4318 N   0  0  0  0  0  0  0  0  0  0  0  0
    3.8737    7.1651  -13.9452 C   0  0  0  0  0  0  0  0  0  0  0  0
    4.1956    8.1357  -14.8153 N   0  0  0  0  0  0  0  0  0  0  0  0
    3.2369    9.0578  -14.8608 C   0  0  0  0  0  0  0  0  0  0  0  0
    3.1516   10.3033  -15.6690 C   0  0  0  0  0  0  0  0  0  0  0  0
    4.5516    6.0274  -13.5622 C   0  0  0  0  0  0  0  0  0  0  0  0
    4.0224    5.1711  -12.6257 C   0  0  0  0  0  0  0  0  0  0  0  0
    2.7958    5.4971  -12.0913 C   0  0  0  0  0  0  0  0  0  0  0  0
    2.1676    6.6309  -12.5041 C   0  0  0  0  0  0  0  0  0  0  0  0
   -5.7161    9.0452  -14.3961 Br  0  0  0  0  0  0  0  0  0  0  0  0
   -4.0157    9.7724  -13.9275 C   0  0  0  0  0  0  0  0  0  0  0  0
   -3.3017   10.5853  -14.7882 C   0  0  0  0  0  0  0  0  0  0  0  0
   -2.0728   11.1114  -14.4501 C   0  0  0  0  0  0  0  0  0  0  0  0
   -1.5196   10.8377  -13.2320 C   0  0  0  0  0  0  0  0  0  0  0  0
   -2.2215   10.0350  -12.3781 C   0  0  0  0  0  0  0  0  0  0  0  0
   -3.4486    9.5006  -12.6973 C   0  0  0  0  0  0  0  0  0  0  0  0
   -0.3334   13.8683  -13.7163 C   0  0  0  0  0  0  0  0  0  0  0  0
   -0.1938   15.1764  -13.1146 C   0  0  0  0  0  0  0  0  0  0  0  0
   -1.4458   15.9954  -12.9051 C   0  0  0  0  0  0  0  0  0  0  0  0
   -1.1458   17.4233  -12.8606 N   0  0  0  0  0  0  0  0  0  0  0  0
   -1.0074   17.9493  -11.5348 C   0  0  0  0  0  0  0  0  0  0  0  0
   -2.2889   18.4094  -10.9046 C   0  0  0  0  0  0  0  0  0  0  0  0
   -3.4117   17.9780  -11.5592 O   0  0  0  0  0  0  0  0  0  0  0  0
   -3.4467   18.2397  -12.9040 C   0  0  0  0  0  0  0  0  0  0  0  0
   -2.1126   18.2024  -13.5732 C   0  0  0  0  0  0  0  0  0  0  0  0
   -0.2143   17.5391  -13.3322 H   0  0  0  0  0  0  0  0  0  0  0  0
 20 21  1  0  0  0
 21 22  2  0  0  0
 21 26  1  0  0  0
 22 23  1  0  0  0
 23 24  2  0  0  0
 24 25  1  0  0  0
 24  1  1  0  0  0
 25 26  2  0  0  0
  1  2  1  0  0  0
  1  7  1  0  0  0
  2  3  1  0  0  0
  2 27  1  0  0  0
  3  4  2  0  0  0
  3  5  1  0  0  0
  5  6  2  0  0  0
  5  7  1  0  0  0
  7  8  2  0  0  0
  8  9  1  0  0  0
  8 10  1  0  0  0
 10 11  1  0  0  0
 10 14  2  0  0  0
 11 12  1  0  0  0
 11 19  1  0  0  0
 12 13  2  0  0  0
 12 16  1  0  0  0
 13 14  1  0  0  0
 14 15  1  0  0  0
 16 17  2  0  0  0
 17 18  1  0  0  0
 18 19  2  0  0  0
 27 28  1  0  0  0
 28 29  1  0  0  0
 29 30  1  0  0  0
 30 31  1  0  0  0
 30 35  1  0  0  0
 31 32  1  0  0  0
 32 33  1  0  0  0
 33 34  1  0  0  0
 34 35  1  0  0  0
 30 36  1  0  0  0
M  CHG 1   9  -1
M  CHG 1  30   1
M  END
> <minimizedAffinity>
-6.93931

$$$$
364


 32 35  0  0  0  0  0  0  0  0999 V2000
    2.4597    7.7448  -12.9518 C   0  0  0  0  0  0  0  0  0  0  0  0
    3.2303    8.7236  -13.6679 N   0  0  0  0  0  0  0  0  0  0  0  0
    2.5981    8.9302  -14.9191 C   0  0  0  0  0  0  0  0  0  0  0  0
    3.0887    9.5656  -15.8956 O   0  0  0  0  0  0  0  0  0  0  0  0
    1.2812    8.2884  -14.9037 C   0  0  0  0  0  0  0  0  0  0  0  0
    0.4309    8.2613  -15.8276 O   0  0  0  0  0  0  0  0  0  0  0  0
    1.1301    7.6775  -13.5953 C   0  0  0  0  0  0  0  0  0  0  0  0
    0.0004    7.2144  -13.0851 C   0  0  0  0  0  0  0  0  0  0  0  0
    0.0441    6.7269  -11.7641 O   0  0  0  0  0  0  0  0  0  0  0  0
   -1.2760    7.1504  -13.7526 C   0  0  0  0  0  0  0  0  0  0  0  0
   -2.2549    8.0434  -13.9432 N   0  0  0  0  0  0  0  0  0  0  0  0
   -3.2873    7.4904  -14.6031 C   0  0  0  0  0  0  0  0  0  0  0  0
   -2.9588    6.2095  -14.8418 N   0  0  0  0  0  0  0  0  0  0  0  0
   -1.7464    5.9684  -14.3403 C   0  0  0  0  0  0  0  0  0  0  0  0
   -1.0342    4.6614  -14.4066 C   0  0  0  0  0  0  0  0  0  0  0  0
   -4.4376    8.1885  -14.9544 C   0  0  0  0  0  0  0  0  0  0  0  0
   -4.5231    9.5096  -14.6111 C   0  0  0  0  0  0  0  0  0  0  0  0
   -3.4621   10.0819  -13.9336 C   0  0  0  0  0  0  0  0  0  0  0  0
   -2.3451    9.3482  -13.6075 C   0  0  0  0  0  0  0  0  0  0  0  0
    5.1795    2.1549  -12.7846 Br  0  0  0  0  0  0  0  0  0  0  0  0
    4.3777    3.8881  -12.8545 C   0  0  0  0  0  0  0  0  0  0  0  0
    3.1210    4.0532  -12.3465 C   0  0  0  0  0  0  0  0  0  0  0  0
    2.5317    5.2951  -12.3910 C   0  0  0  0  0  0  0  0  0  0  0  0
    3.1289    6.4162  -12.9215 C   0  0  0  0  0  0  0  0  0  0  0  0
    4.4123    6.2132  -13.4313 C   0  0  0  0  0  0  0  0  0  0  0  0
    5.0161    4.9785  -13.3955 C   0  0  0  0  0  0  0  0  0  0  0  0
    4.4583    9.3999  -13.1952 C   0  0  0  0  0  0  0  0  0  0  0  0
    4.0978   10.6893  -12.4890 C   0  0  0  0  0  0  0  0  0  0  0  0
    3.5494   11.6739  -13.3542 N   0  0  0  0  0  0  0  0  0  0  0  0
    2.1997   11.9804  -12.8799 C   0  0  0  0  0  0  0  0  0  0  0  0
    4.2921   12.8931  -13.4405 C   0  0  0  0  0  0  0  0  0  0  0  0
    3.4304   11.3116  -14.3421 H   0  0  0  0  0  0  0  0  0  0  0  0
 20 21  1  0  0  0
 21 22  2  0  0  0
 21 26  1  0  0  0
 22 23  1  0  0  0
 23 24  2  0  0  0
 24 25  1  0  0  0
 24  1  1  0  0  0
 25 26  2  0  0  0
  1  2  1  0  0  0
  1  7  1  0  0  0
  2  3  1  0  0  0
  2 27  1  0  0  0
  3  4  2  0  0  0
  3  5  1  0  0  0
  5  6  2  0  0  0
  5  7  1  0  0  0
  7  8  2  0  0  0
  8  9  1  0  0  0
  8 10  1  0  0  0
 10 11  1  0  0  0
 10 14  2  0  0  0
 11 12  1  0  0  0
 11 19  1  0  0  0
 12 13  2  0  0  0
 12 16  1  0  0  0
 13 14  1  0  0  0
 14 15  1  0  0  0
 16 17  2  0  0  0
 17 18  1  0  0  0
 18 19  2  0  0  0
 27 28  1  0  0  0
 28 29  1  0  0  0
 29 30  1  0  0  0
 29 31  1  0  0  0
 29 32  1  0  0  0
M  CHG 1   9  -1
M  CHG 1  29   1
M  END
> <minimizedAffinity>
-7.01815

$$$$
381


 29 32  0  0  0  0  0  0  0  0999 V2000
    3.1159    7.6545  -13.6522 N   0  0  0  0  0  0  0  0  0  0  0  0
    1.8154    7.9269  -13.7044 N   0  0  0  0  0  0  0  0  0  0  0  0
    0.8771    7.0273  -13.2917 C   0  0  0  0  0  0  0  0  0  0  0  0
    1.2737    5.8345  -12.8217 N   0  0  0  0  0  0  0  0  0  0  0  0
    0.1294    5.0257  -12.4633 C   0  0  0  0  0  0  0  0  0  0  0  0
   -1.0923    5.8475  -12.7484 C   0  0  0  0  0  0  0  0  0  0  0  0
   -0.5414    7.1055  -13.2163 N   0  0  0  0  0  0  0  0  0  0  0  0
    2.5694    5.5027  -12.7449 C   0  0  0  0  0  0  0  0  0  0  0  0
    2.9376    4.3875  -12.3053 O   0  0  0  0  0  0  0  0  0  0  0  0
    3.4767    6.4505  -13.1742 C   0  0  0  0  0  0  0  0  0  0  0  0
    4.7041    6.1845  -13.1228 O   0  0  0  0  0  0  0  0  0  0  0  0
   -1.3487    8.2221  -13.5374 C   0  0  0  0  0  0  0  0  0  0  0  0
   -1.0074    9.5167  -13.2513 C   0  0  0  0  0  0  0  0  0  0  0  0
   -1.8269   10.5868  -13.5645 C   0  0  0  0  0  0  0  0  0  0  0  0
   -3.0378   10.3587  -14.1899 C   0  0  0  0  0  0  0  0  0  0  0  0
   -3.3951    9.0805  -14.4836 C   0  0  0  0  0  0  0  0  0  0  0  0
   -2.5732    8.0200  -14.1671 C   0  0  0  0  0  0  0  0  0  0  0  0
    4.1416    8.6276  -14.0627 C   0  0  0  0  0  0  0  0  0  0  0  0
    2.9850   10.4352  -12.6449 N   0  0  0  0  0  0  0  0  0  0  0  0
    3.7143    9.9915  -13.7546 C   0  0  0  0  0  0  0  0  0  0  0  0
    4.0809   10.8538  -14.6484 O   0  0  0  0  0  0  0  0  0  0  0  0
    2.6978    9.6944  -11.9442 H   0  0  0  0  0  0  0  0  0  0  0  0
    1.0224   16.2205  -11.8164 Br  0  0  0  0  0  0  0  0  0  0  0  0
    1.6584   14.4331  -12.0431 C   0  0  0  0  0  0  0  0  0  0  0  0
    2.8537   14.0180  -11.5182 C   0  0  0  0  0  0  0  0  0  0  0  0
    3.3108   12.7045  -11.6943 C   0  0  0  0  0  0  0  0  0  0  0  0
    2.6055   11.7561  -12.3919 C   0  0  0  0  0  0  0  0  0  0  0  0
    1.3816   12.2162  -12.9161 C   0  0  0  0  0  0  0  0  0  0  0  0
    0.9302   13.4960  -12.7494 C   0  0  0  0  0  0  0  0  0  0  0  0
 23 24  1  0  0  0
 24 25  2  0  0  0
 24 29  1  0  0  0
 25 26  1  0  0  0
 26 27  2  0  0  0
 27 28  1  0  0  0
 27 19  1  0  0  0
 28 29  2  0  0  0
 19 20  1  0  0  0
 20 21  2  0  0  0
 20 18  1  0  0  0
 18  1  1  0  0  0
  1  2  1  0  0  0
  1 10  1  0  0  0
  2  3  2  0  0  0
  3  4  1  0  0  0
  3  7  1  0  0  0
  4  5  1  0  0  0
  4  8  1  0  0  0
  5  6  1  0  0  0
  6  7  1  0  0  0
  7 12  1  0  0  0
 12 13  2  0  0  0
 12 17  1  0  0  0
 13 14  1  0  0  0
 14 15  2  0  0  0
 15 16  1  0  0  0
 16 17  2  0  0  0
  8  9  2  0  0  0
  8 10  1  0  0  0
 10 11  2  0  0  0
 19 22  1  0  0  0
M  END
> <minimizedAffinity>
-8.40014

$$$$
382


 31 34  0  0  0  0  0  0  0  0999 V2000
   -0.2842   16.6538  -12.4500 N   0  0  0  0  0  0  0  0  0  0  0  0
   -0.4221   16.2508  -13.7133 N   0  0  0  0  0  0  0  0  0  0  0  0
   -1.4979   16.7971  -14.2312 N   0  0  0  0  0  0  0  0  0  0  0  0
   -2.0785   17.5773  -13.2884 C   0  0  0  0  0  0  0  0  0  0  0  0
   -1.3153   17.4773  -12.1933 C   0  0  0  0  0  0  0  0  0  0  0  0
   -1.9374   18.2813  -11.2614 C   0  0  0  0  0  0  0  0  0  0  0  0
   -1.4899   18.4346  -10.0859 O   0  0  0  0  0  0  0  0  0  0  0  0
   -3.0434   18.8605  -11.7536 N   0  0  0  0  0  0  0  0  0  0  0  0
   -3.1386   18.4169  -13.0393 C   0  0  0  0  0  0  0  0  0  0  0  0
   -4.0722   18.7623  -13.8138 O   0  0  0  0  0  0  0  0  0  0  0  0
    0.2458   15.6016  -14.1785 H   0  0  0  0  0  0  0  0  0  0  0  0
   -1.8873   16.6857  -15.2003 H   0  0  0  0  0  0  0  0  0  0  0  0
   -3.9556   19.7582  -11.1043 C   0  0  0  0  0  0  0  0  0  0  0  0
   -5.2344   19.9401  -11.5857 C   0  0  0  0  0  0  0  0  0  0  0  0
   -6.1215   20.7934  -10.9605 C   0  0  0  0  0  0  0  0  0  0  0  0
   -5.7769   21.5077   -9.8274 C   0  0  0  0  0  0  0  0  0  0  0  0
   -4.4983   21.3276   -9.3436 C   0  0  0  0  0  0  0  0  0  0  0  0
   -3.6124   20.4694   -9.9744 C   0  0  0  0  0  0  0  0  0  0  0  0
   -6.7592   22.4156   -9.1754 C   0  0  0  0  0  0  0  0  0  0  0  0
    0.7941   16.2452  -11.5717 C   0  0  0  0  0  0  0  0  0  0  0  0
    1.3365   13.8167  -12.0256 N   0  0  0  0  0  0  0  0  0  0  0  0
    1.6066   15.1692  -12.2727 C   0  0  0  0  0  0  0  0  0  0  0  0
    2.5114   15.5122  -13.0620 O   0  0  0  0  0  0  0  0  0  0  0  0
    0.5565   13.5718  -11.3369 H   0  0  0  0  0  0  0  0  0  0  0  0
    3.9651    8.9086  -14.6336 Br  0  0  0  0  0  0  0  0  0  0  0  0
    3.2067   10.4430  -13.8075 C   0  0  0  0  0  0  0  0  0  0  0  0
    3.9201   11.2595  -12.9673 C   0  0  0  0  0  0  0  0  0  0  0  0
    3.3186   12.3683  -12.3877 C   0  0  0  0  0  0  0  0  0  0  0  0
    2.0034   12.7154  -12.6092 C   0  0  0  0  0  0  0  0  0  0  0  0
    1.3033   11.8555  -13.4768 C   0  0  0  0  0  0  0  0  0  0  0  0
    1.8898   10.7699  -14.0445 C   0  0  0  0  0  0  0  0  0  0  0  0
 25 26  1  0  0  0
 26 27  2  0  0  0
 26 31  1  0  0  0
 27 28  1  0  0  0
 28 29  2  0  0  0
 29 30  1  0  0  0
 29 21  1  0  0  0
 30 31  2  0  0  0
 21 22  1  0  0  0
 22 23  2  0  0  0
 22 20  1  0  0  0
 20  1  1  0  0  0
  1  2  1  0  0  0
  1  5  1  0  0  0
  2  3  1  0  0  0
  3  4  1  0  0  0
  4  5  2  0  0  0
  4  9  1  0  0  0
  5  6  1  0  0  0
  6  7  2  0  0  0
  6  8  1  0  0  0
  8  9  1  0  0  0
  8 13  1  0  0  0
  9 10  2  0  0  0
 13 14  2  0  0  0
 13 18  1  0  0  0
 14 15  1  0  0  0
 15 16  2  0  0  0
 16 17  1  0  0  0
 16 19  1  0  0  0
 17 18  2  0  0  0
 21 24  1  0  0  0
  2 11  1  0  0  0
  3 12  1  0  0  0
M  END
> <minimizedAffinity>
-11.56997

$$$$
385


 32 35  0  0  0  0  0  0  0  0999 V2000
    0.2730    8.0289  -12.9107 C   0  0  0  0  0  0  0  0  0  0  0  0
    0.2566    9.5194  -13.0768 C   0  0  0  0  0  0  0  0  0  0  0  0
    1.3233   10.0501  -13.9349 C   0  0  0  0  0  0  0  0  0  0  0  0
    1.0848   11.0993  -14.5927 O   0  0  0  0  0  0  0  0  0  0  0  0
    2.5737    9.3888  -14.0105 N   0  0  0  0  0  0  0  0  0  0  0  0
    2.7016    8.0639  -13.5401 C   0  0  0  0  0  0  0  0  0  0  0  0
    3.9231    7.4491  -13.6107 N   0  0  0  0  0  0  0  0  0  0  0  0
    4.1186    6.2038  -13.1723 C   0  0  0  0  0  0  0  0  0  0  0  0
    3.0686    5.5561  -12.6516 N   0  0  0  0  0  0  0  0  0  0  0  0
    1.8296    6.1217  -12.5594 C   0  0  0  0  0  0  0  0  0  0  0  0
    1.6012    7.4086  -13.0049 C   0  0  0  0  0  0  0  0  0  0  0  0
    0.7414    5.3868  -12.0089 N   0  0  0  0  0  0  0  0  0  0  0  0
    3.4320    9.8634  -14.4152 H   0  0  0  0  0  0  0  0  0  0  0  0
   -0.1334    5.8228  -11.7025 H   0  0  0  0  0  0  0  0  0  0  0  0
    0.8428    4.3449  -11.9055 H   0  0  0  0  0  0  0  0  0  0  0  0
    5.4178    5.5746  -13.2601 N   0  0  0  0  0  0  0  0  0  0  0  0
    6.5420    6.4298  -13.4163 C   0  0  0  0  0  0  0  0  0  0  0  0
    7.8552    5.7963  -13.0574 C   0  0  0  0  0  0  0  0  0  0  0  0
    7.7046    4.5104  -12.5501 O   0  0  0  0  0  0  0  0  0  0  0  0
    6.9191    3.7171  -13.3755 C   0  0  0  0  0  0  0  0  0  0  0  0
    5.4833    4.1301  -13.1784 C   0  0  0  0  0  0  0  0  0  0  0  0
   -1.9248    7.9581  -14.0614 N   0  0  0  0  0  0  0  0  0  0  0  0
   -0.6896    7.4912  -13.9914 C   0  0  0  0  0  0  0  0  0  0  0  0
   -0.0812    6.5995  -14.7064 O   0  0  0  0  0  0  0  0  0  0  0  0
   -2.2333    7.0132  -14.9928 H   0  0  0  0  0  0  0  0  0  0  0  0
   -7.3989   10.6258  -14.4375 Br  0  0  0  0  0  0  0  0  0  0  0  0
   -5.6977    9.7462  -14.3073 C   0  0  0  0  0  0  0  0  0  0  0  0
   -4.6076   10.3897  -13.7766 C   0  0  0  0  0  0  0  0  0  0  0  0
   -3.4071    9.7845  -13.6838 C   0  0  0  0  0  0  0  0  0  0  0  0
   -3.2071    8.4414  -14.1356 C   0  0  0  0  0  0  0  0  0  0  0  0
   -4.3260    7.8329  -14.6605 C   0  0  0  0  0  0  0  0  0  0  0  0
   -5.5485    8.4509  -14.7523 C   0  0  0  0  0  0  0  0  0  0  0  0
 26 27  1  0  0  0
 27 28  2  0  0  0
 27 32  1  0  0  0
 28 29  1  0  0  0
 29 30  2  0  0  0
 30 31  1  0  0  0
 30 22  1  0  0  0
 31 32  2  0  0  0
 22 23  1  0  0  0
 23 24  2  0  0  0
 23  1  1  0  0  0
  1  2  1  0  0  0
  1 11  1  0  0  0
  2  3  1  0  0  0
  3  4  2  0  0  0
  3  5  1  0  0  0
  5  6  1  0  0  0
  6  7  2  0  0  0
  6 11  1  0  0  0
  7  8  1  0  0  0
  8  9  2  0  0  0
  8 16  1  0  0  0
  9 10  1  0  0  0
 10 11  2  0  0  0
 10 12  1  0  0  0
 16 17  1  0  0  0
 16 21  1  0  0  0
 17 18  1  0  0  0
 18 19  1  0  0  0
 19 20  1  0  0  0
 20 21  1  0  0  0
 22 25  1  0  0  0
  5 13  1  0  0  0
 12 14  1  0  0  0
 12 15  1  0  0  0
M  END
> <minimizedAffinity>
-8.74402

$$$$
386


 36 39  0  0  0  0  0  0  0  0999 V2000
    2.7828    7.6964  -14.0428 C   0  0  0  0  0  0  0  0  0  0  0  0
    1.8723    7.5035  -12.8444 C   0  0  0  0  0  0  0  0  0  0  0  0
    1.9315    6.0627  -12.4529 C   0  0  0  0  0  0  0  0  0  0  0  0
    0.9112    5.4259  -12.2607 O   0  0  0  0  0  0  0  0  0  0  0  0
    3.2105    5.5030  -12.3211 N   0  0  0  0  0  0  0  0  0  0  0  0
    4.3267    6.0882  -12.9615 C   0  0  0  0  0  0  0  0  0  0  0  0
    5.5752    5.6189  -12.7642 N   0  0  0  0  0  0  0  0  0  0  0  0
    6.6905    6.1628  -13.2524 C   0  0  0  0  0  0  0  0  0  0  0  0
    6.5042    7.2795  -14.0030 N   0  0  0  0  0  0  0  0  0  0  0  0
    5.2769    7.8069  -14.2461 C   0  0  0  0  0  0  0  0  0  0  0  0
    4.1388    7.2478  -13.7507 C   0  0  0  0  0  0  0  0  0  0  0  0
    5.1762    8.9574  -15.0239 O   0  0  0  0  0  0  0  0  0  0  0  0
    3.4011    4.6389  -11.7458 H   0  0  0  0  0  0  0  0  0  0  0  0
    5.4214    9.8787  -14.6676 H   0  0  0  0  0  0  0  0  0  0  0  0
    7.9847    5.6211  -13.0724 N   0  0  0  0  0  0  0  0  0  0  0  0
    8.5697    5.1890  -11.8298 C   0  0  0  0  0  0  0  0  0  0  0  0
    9.3878    3.9295  -12.0986 C   0  0  0  0  0  0  0  0  0  0  0  0
    8.8401    3.1309  -13.2447 C   0  0  0  0  0  0  0  0  0  0  0  0
    8.8267    3.9210  -14.5058 C   0  0  0  0  0  0  0  0  0  0  0  0
    8.8479    5.4450  -14.2460 C   0  0  0  0  0  0  0  0  0  0  0  0
    7.5238    2.5300  -12.9237 C   0  0  0  0  0  0  0  0  0  0  0  0
    7.4277    1.8758  -11.8653 O   0  0  0  0  0  0  0  0  0  0  0  0
    6.3816    2.6516  -13.7461 N   0  0  0  0  0  0  0  0  0  0  0  0
    6.1683    3.5112  -14.2845 H   0  0  0  0  0  0  0  0  0  0  0  0
    5.7280    1.8438  -13.8147 H   0  0  0  0  0  0  0  0  0  0  0  0
    2.4484   10.1573  -14.1280 N   0  0  0  0  0  0  0  0  0  0  0  0
    2.5699    8.9780  -14.7676 C   0  0  0  0  0  0  0  0  0  0  0  0
    2.5336    8.7526  -16.0533 O   0  0  0  0  0  0  0  0  0  0  0  0
    2.4416   10.8070  -15.3082 H   0  0  0  0  0  0  0  0  0  0  0  0
    1.4298   15.5309  -11.5661 Br  0  0  0  0  0  0  0  0  0  0  0  0
    1.8152   13.8447  -12.3347 C   0  0  0  0  0  0  0  0  0  0  0  0
    0.7902   13.0779  -12.8606 C   0  0  0  0  0  0  0  0  0  0  0  0
    0.9839   11.8624  -13.4268 C   0  0  0  0  0  0  0  0  0  0  0  0
    2.3237   11.3596  -13.4772 C   0  0  0  0  0  0  0  0  0  0  0  0
    3.3186   12.1456  -12.9465 C   0  0  0  0  0  0  0  0  0  0  0  0
    3.0982   13.3791  -12.3754 C   0  0  0  0  0  0  0  0  0  0  0  0
 30 31  1  0  0  0
 31 32  2  0  0  0
 31 36  1  0  0  0
 32 33  1  0  0  0
 33 34  2  0  0  0
 34 35  1  0  0  0
 34 26  1  0  0  0
 35 36  2  0  0  0
 26 27  1  0  0  0
 27 28  2  0  0  0
 27  1  1  0  0  0
  1  2  1  0  0  0
  1 11  1  0  0  0
  2  3  1  0  0  0
  3  4  2  0  0  0
  3  5  1  0  0  0
  5  6  1  0  0  0
  6  7  2  0  0  0
  6 11  1  0  0  0
  7  8  1  0  0  0
  8  9  2  0  0  0
  8 15  1  0  0  0
  9 10  1  0  0  0
 10 11  2  0  0  0
 10 12  1  0  0  0
 15 16  1  0  0  0
 15 20  1  0  0  0
 16 17  1  0  0  0
 17 18  1  0  0  0
 18 19  1  0  0  0
 18 21  1  0  0  0
 19 20  1  0  0  0
 21 22  2  0  0  0
 21 23  1  0  0  0
 26 29  1  0  0  0
  5 13  1  0  0  0
 12 14  1  0  0  0
 23 24  1  0  0  0
 23 25  1  0  0  0
M  END
> <minimizedAffinity>
-8.86902

$$$$
393


 27 30  0  0  0  0  0  0  0  0999 V2000
    1.4686    6.6119  -13.0663 N   0  0  0  0  0  0  0  0  0  0  0  0
    1.6333    5.4373  -12.5104 N   0  0  0  0  0  0  0  0  0  0  0  0
    2.9317    5.0862  -12.4227 C   0  0  0  0  0  0  0  0  0  0  0  0
    3.6371    6.1240  -12.9672 C   0  0  0  0  0  0  0  0  0  0  0  0
    2.7061    7.0617  -13.3608 C   0  0  0  0  0  0  0  0  0  0  0  0
    5.0888    6.1834  -13.0871 C   0  0  0  0  0  0  0  0  0  0  0  0
    5.6364    7.2549  -12.7326 O   0  0  0  0  0  0  0  0  0  0  0  0
    5.8751    5.1153  -13.5709 N   0  0  0  0  0  0  0  0  0  0  0  0
    7.3068    5.2781  -13.6494 C   0  0  0  0  0  0  0  0  0  0  0  0
    7.9337    4.3468  -12.6551 C   0  0  0  0  0  0  0  0  0  0  0  0
    7.0437    3.2512  -12.2887 N   0  0  0  0  0  0  0  0  0  0  0  0
    5.9776    2.8173  -13.1262 C   0  0  0  0  0  0  0  0  0  0  0  0
    5.6032    1.6197  -13.0905 O   0  0  0  0  0  0  0  0  0  0  0  0
    5.3629    3.8368  -14.0084 C   0  0  0  0  0  0  0  0  0  0  0  0
    7.2158    2.7721  -11.3545 H   0  0  0  0  0  0  0  0  0  0  0  0
   -3.9348    9.4035  -14.0494 Br  0  0  0  0  0  0  0  0  0  0  0  0
   -2.2583    8.5349  -13.7458 C   0  0  0  0  0  0  0  0  0  0  0  0
   -1.2840    9.1420  -12.9816 C   0  0  0  0  0  0  0  0  0  0  0  0
   -0.0800    8.5005  -12.7726 C   0  0  0  0  0  0  0  0  0  0  0  0
    0.2129    7.2559  -13.2977 C   0  0  0  0  0  0  0  0  0  0  0  0
   -0.7743    6.6593  -14.0606 C   0  0  0  0  0  0  0  0  0  0  0  0
   -1.9836    7.2884  -14.2780 C   0  0  0  0  0  0  0  0  0  0  0  0
    2.9894    8.3315  -13.9910 N   0  0  0  0  0  0  0  0  0  0  0  0
    3.0234    8.6184  -15.2838 C   0  0  0  0  0  0  0  0  0  0  0  0
    3.3319    9.9453  -15.4756 C   0  0  0  0  0  0  0  0  0  0  0  0
    3.4894   10.4680  -14.2142 C   0  0  0  0  0  0  0  0  0  0  0  0
    3.2726    9.4531  -13.3091 C   0  0  0  0  0  0  0  0  0  0  0  0
 16 17  1  0  0  0
 17 18  2  0  0  0
 17 22  1  0  0  0
 18 19  1  0  0  0
 19 20  2  0  0  0
 20 21  1  0  0  0
 20  1  1  0  0  0
 21 22  2  0  0  0
  1  2  1  0  0  0
  1  5  1  0  0  0
  2  3  2  0  0  0
  3  4  1  0  0  0
  4  5  2  0  0  0
  4  6  1  0  0  0
  5 23  1  0  0  0
 23 24  1  0  0  0
 23 27  1  0  0  0
 24 25  2  0  0  0
 25 26  1  0  0  0
 26 27  2  0  0  0
  6  7  2  0  0  0
  6  8  1  0  0  0
  8  9  1  0  0  0
  8 14  1  0  0  0
  9 10  1  0  0  0
 10 11  1  0  0  0
 11 12  1  0  0  0
 12 13  2  0  0  0
 12 14  1  0  0  0
 11 15  1  0  0  0
M  END
> <minimizedAffinity>
-6.81887

$$$$
395


 28 31  0  0  0  0  0  0  0  0999 V2000
    0.9544   15.6352  -12.1428 N   0  0  0  0  0  0  0  0  0  0  0  0
    2.1250   16.0232  -11.6666 N   0  0  0  0  0  0  0  0  0  0  0  0
    2.9890   15.0229  -11.6338 N   0  0  0  0  0  0  0  0  0  0  0  0
    2.3771   13.9048  -12.1085 C   0  0  0  0  0  0  0  0  0  0  0  0
    1.0969   14.3269  -12.4190 C   0  0  0  0  0  0  0  0  0  0  0  0
    0.2593   13.4101  -12.9170 N   0  0  0  0  0  0  0  0  0  0  0  0
    0.6581   12.1396  -13.1017 C   0  0  0  0  0  0  0  0  0  0  0  0
    1.9080   11.7191  -12.8002 N   0  0  0  0  0  0  0  0  0  0  0  0
    2.7781   12.6040  -12.2991 C   0  0  0  0  0  0  0  0  0  0  0  0
    3.9345   12.2183  -12.0189 O   0  0  0  0  0  0  0  0  0  0  0  0
   -4.1236   19.0470  -12.8957 Br  0  0  0  0  0  0  0  0  0  0  0  0
   -2.5487   17.9797  -12.6749 C   0  0  0  0  0  0  0  0  0  0  0  0
   -1.7350   18.1262  -11.5713 C   0  0  0  0  0  0  0  0  0  0  0  0
   -0.5907   17.3624  -11.3945 C   0  0  0  0  0  0  0  0  0  0  0  0
   -0.2265   16.4185  -12.3314 C   0  0  0  0  0  0  0  0  0  0  0  0
   -1.0461   16.2774  -13.4335 C   0  0  0  0  0  0  0  0  0  0  0  0
   -2.1844   17.0358  -13.6119 C   0  0  0  0  0  0  0  0  0  0  0  0
    2.2445   10.3270  -13.0336 C   0  0  0  0  0  0  0  0  0  0  0  0
    1.0677    9.6022  -13.6357 C   0  0  0  0  0  0  0  0  0  0  0  0
    0.1955   10.2304  -14.2931 O   0  0  0  0  0  0  0  0  0  0  0  0
    0.9178    8.2045  -13.4754 N   0  0  0  0  0  0  0  0  0  0  0  0
   -0.2052    7.4999  -14.0464 C   0  0  0  0  0  0  0  0  0  0  0  0
   -0.7232    6.5547  -12.9761 C   0  0  0  0  0  0  0  0  0  0  0  0
    0.2351    5.7090  -12.4801 O   0  0  0  0  0  0  0  0  0  0  0  0
    1.5182    5.9896  -12.8804 C   0  0  0  0  0  0  0  0  0  0  0  0
    1.8954    7.4490  -12.7273 C   0  0  0  0  0  0  0  0  0  0  0  0
    2.5536    5.1289  -12.2186 C   0  0  0  0  0  0  0  0  0  0  0  0
   -1.7835    5.6826  -13.6567 C   0  0  0  0  0  0  0  0  0  0  0  0
 11 12  1  0  0  0
 12 13  2  0  0  0
 12 17  1  0  0  0
 13 14  1  0  0  0
 14 15  2  0  0  0
 15 16  1  0  0  0
 15  1  1  0  0  0
 16 17  2  0  0  0
  1  2  1  0  0  0
  1  5  1  0  0  0
  2  3  2  0  0  0
  3  4  1  0  0  0
  4  5  2  0  0  0
  4  9  1  0  0  0
  5  6  1  0  0  0
  6  7  2  0  0  0
  7  8  1  0  0  0
  8  9  1  0  0  0
  8 18  1  0  0  0
  9 10  2  0  0  0
 18 19  1  0  0  0
 19 20  2  0  0  0
 19 21  1  0  0  0
 21 22  1  0  0  0
 21 26  1  0  0  0
 22 23  1  0  0  0
 23 24  1  0  0  0
 23 28  1  0  0  0
 24 25  1  0  0  0
 25 26  1  0  0  0
 25 27  1  0  0  0
M  END
> <minimizedAffinity>
-9.48542

$$$$
399


 28 31  0  0  0  0  0  0  0  0999 V2000
    0.8689    9.2622  -13.3658 N   0  0  0  0  0  0  0  0  0  0  0  0
    1.5994    8.4166  -12.4842 C   0  0  0  0  0  0  0  0  0  0  0  0
    1.0947    7.7171  -11.5802 O   0  0  0  0  0  0  0  0  0  0  0  0
    3.0412    8.4670  -12.7689 C   0  0  0  0  0  0  0  0  0  0  0  0
    3.1820    9.8195  -13.4581 C   0  0  0  0  0  0  0  0  0  0  0  0
    1.8561    9.9755  -14.1357 C   0  0  0  0  0  0  0  0  0  0  0  0
    1.7445   10.6352  -15.1857 O   0  0  0  0  0  0  0  0  0  0  0  0
   -5.2384    9.8699  -13.9738 Br  0  0  0  0  0  0  0  0  0  0  0  0
   -3.3415    9.6883  -13.7840 C   0  0  0  0  0  0  0  0  0  0  0  0
   -2.5409   10.7627  -13.5085 C   0  0  0  0  0  0  0  0  0  0  0  0
   -1.1558   10.6233  -13.3718 C   0  0  0  0  0  0  0  0  0  0  0  0
   -0.5458    9.4098  -13.5062 C   0  0  0  0  0  0  0  0  0  0  0  0
   -1.3404    8.3346  -13.7817 C   0  0  0  0  0  0  0  0  0  0  0  0
   -2.7308    8.4631  -13.9220 C   0  0  0  0  0  0  0  0  0  0  0  0
    3.5375    7.4136  -13.6252 N   0  0  0  0  0  0  0  0  0  0  0  0
    4.4841    7.8972  -14.6014 C   0  0  0  0  0  0  0  0  0  0  0  0
    5.9334    7.7012  -14.2158 C   0  0  0  0  0  0  0  0  0  0  0  0
    6.1443    6.4155  -13.6009 N   0  0  0  0  0  0  0  0  0  0  0  0
    5.0209    5.5139  -13.7017 C   0  0  0  0  0  0  0  0  0  0  0  0
    3.8968    6.2307  -12.9302 C   0  0  0  0  0  0  0  0  0  0  0  0
    2.6794    7.1509  -14.2191 H   0  0  0  0  0  0  0  0  0  0  0  0
    7.3204    6.0504  -12.9376 C   0  0  0  0  0  0  0  0  0  0  0  0
    8.2822    6.9248  -12.4734 C   0  0  0  0  0  0  0  0  0  0  0  0
    9.4432    6.5074  -11.8430 C   0  0  0  0  0  0  0  0  0  0  0  0
    9.6805    5.1721  -11.6558 C   0  0  0  0  0  0  0  0  0  0  0  0
    8.7519    4.2531  -12.1012 C   0  0  0  0  0  0  0  0  0  0  0  0
    7.6001    4.6946  -12.7274 C   0  0  0  0  0  0  0  0  0  0  0  0
   10.8281    4.6853  -11.0290 O   0  0  0  0  0  0  0  0  0  0  0  0
  8  9  1  0  0  0
  9 10  2  0  0  0
  9 14  1  0  0  0
 10 11  1  0  0  0
 11 12  2  0  0  0
 12 13  1  0  0  0
 12  1  1  0  0  0
 13 14  2  0  0  0
  1  2  1  0  0  0
  1  6  1  0  0  0
  2  3  2  0  0  0
  2  4  1  0  0  0
  4  5  1  0  0  0
  4 15  1  0  0  0
  5  6  1  0  0  0
  6  7  2  0  0  0
 15 16  1  0  0  0
 15 20  1  0  0  0
 16 17  1  0  0  0
 17 18  1  0  0  0
 18 19  1  0  0  0
 18 22  1  0  0  0
 19 20  1  0  0  0
 22 23  2  0  0  0
 22 27  1  0  0  0
 23 24  1  0  0  0
 24 25  2  0  0  0
 25 26  1  0  0  0
 25 28  1  0  0  0
 26 27  2  0  0  0
 15 21  1  0  0  0
M  CHG 1  15   1
M  CHG 1  28  -1
M  END
> <minimizedAffinity>
-8.46390

$$$$
400


 31 34  0  0  0  0  0  0  0  0999 V2000
    5.9105    6.9857  -13.5077 N   0  0  0  0  0  0  0  0  0  0  0  0
    7.0369    7.0672  -14.3472 C   0  0  0  0  0  0  0  0  0  0  0  0
    8.2955    6.8310  -13.5017 C   0  0  0  0  0  0  0  0  0  0  0  0
    8.3533    5.4078  -12.9931 C   0  0  0  0  0  0  0  0  0  0  0  0
    7.0081    4.9810  -12.5628 C   0  0  0  0  0  0  0  0  0  0  0  0
    6.0738    6.1504  -12.3788 C   0  0  0  0  0  0  0  0  0  0  0  0
    3.2665    8.9003  -13.5374 N   0  0  0  0  0  0  0  0  0  0  0  0
    4.3009    8.4574  -14.4226 C   0  0  0  0  0  0  0  0  0  0  0  0
    4.8576    9.1099  -15.3386 O   0  0  0  0  0  0  0  0  0  0  0  0
    4.6232    7.0502  -14.0705 C   0  0  0  0  0  0  0  0  0  0  0  0
    3.5206    6.5695  -13.1537 C   0  0  0  0  0  0  0  0  0  0  0  0
    2.5763    7.7186  -13.1512 C   0  0  0  0  0  0  0  0  0  0  0  0
    1.3315    7.6737  -12.8504 O   0  0  0  0  0  0  0  0  0  0  0  0
    2.0527   14.7070  -11.8493 Br  0  0  0  0  0  0  0  0  0  0  0  0
    2.4258   12.9066  -12.3749 C   0  0  0  0  0  0  0  0  0  0  0  0
    1.5299   12.1555  -13.0998 C   0  0  0  0  0  0  0  0  0  0  0  0
    1.8104   10.8374  -13.4806 C   0  0  0  0  0  0  0  0  0  0  0  0
    2.9985   10.2476  -13.1404 C   0  0  0  0  0  0  0  0  0  0  0  0
    3.8877   11.0080  -12.4140 C   0  0  0  0  0  0  0  0  0  0  0  0
    3.6212   12.3133  -12.0322 C   0  0  0  0  0  0  0  0  0  0  0  0
    8.9911    4.6155  -13.9612 N   0  0  0  0  0  0  0  0  0  0  0  0
    8.4731    3.3431  -14.2430 C   0  0  0  0  0  0  0  0  0  0  0  0
    9.6247    2.3415  -14.0477 C   0  0  0  0  0  0  0  0  0  0  0  0
   10.6426    2.6729  -15.1201 C   0  0  0  0  0  0  0  0  0  0  0  0
   10.4478    4.0217  -15.7285 C   0  0  0  0  0  0  0  0  0  0  0  0
   10.0599    5.0912  -14.6965 C   0  0  0  0  0  0  0  0  0  0  0  0
    9.2446    5.4543  -11.7799 C   0  0  0  0  0  0  0  0  0  0  0  0
    9.9337    6.4918  -11.5428 O   0  0  0  0  0  0  0  0  0  0  0  0
    9.3580    4.3781  -10.8682 N   0  0  0  0  0  0  0  0  0  0  0  0
   10.2637    3.9099  -10.7438 H   0  0  0  0  0  0  0  0  0  0  0  0
    8.5383    4.0544  -10.3198 H   0  0  0  0  0  0  0  0  0  0  0  0
 14 15  1  0  0  0
 15 16  2  0  0  0
 15 20  1  0  0  0
 16 17  1  0  0  0
 17 18  2  0  0  0
 18 19  1  0  0  0
 18  7  1  0  0  0
 19 20  2  0  0  0
  7  8  1  0  0  0
  7 12  1  0  0  0
  8  9  2  0  0  0
  8 10  1  0  0  0
 10 11  1  0  0  0
 10  1  1  0  0  0
 11 12  1  0  0  0
 12 13  2  0  0  0
  1  2  1  0  0  0
  1  6  1  0  0  0
  2  3  1  0  0  0
  3  4  1  0  0  0
  4  5  1  0  0  0
  4 21  1  0  0  0
  4 27  1  0  0  0
  5  6  1  0  0  0
 21 22  1  0  0  0
 21 26  1  0  0  0
 22 23  1  0  0  0
 23 24  1  0  0  0
 24 25  1  0  0  0
 25 26  1  0  0  0
 27 28  2  0  0  0
 27 29  1  0  0  0
 29 30  1  0  0  0
 29 31  1  0  0  0
M  END
> <minimizedAffinity>
-7.78591

$$$$
408


 31 34  0  0  0  0  0  0  0  0999 V2000
   -3.0862   18.8660  -11.8604 N   0  0  0  0  0  0  0  0  0  0  0  0
   -1.9740   18.2725  -11.3950 C   0  0  0  0  0  0  0  0  0  0  0  0
   -1.5349   18.4266  -10.2140 O   0  0  0  0  0  0  0  0  0  0  0  0
   -1.3823   17.4782  -12.3774 C   0  0  0  0  0  0  0  0  0  0  0  0
   -2.1605   17.6023  -13.4484 C   0  0  0  0  0  0  0  0  0  0  0  0
   -1.5726   16.8305  -14.3803 N   0  0  0  0  0  0  0  0  0  0  0  0
   -0.4836   16.2637  -13.8878 N   0  0  0  0  0  0  0  0  0  0  0  0
   -0.3569   16.6595  -12.6445 N   0  0  0  0  0  0  0  0  0  0  0  0
   -3.2058   18.4502  -13.1416 C   0  0  0  0  0  0  0  0  0  0  0  0
   -4.1373   18.8047  -13.8970 O   0  0  0  0  0  0  0  0  0  0  0  0
   -1.9779   16.7364  -15.3463 H   0  0  0  0  0  0  0  0  0  0  0  0
    0.1273   15.6221  -14.4437 H   0  0  0  0  0  0  0  0  0  0  0  0
   -6.7913   22.6922   -8.7570 Br  0  0  0  0  0  0  0  0  0  0  0  0
   -5.6447   21.4984   -9.7299 C   0  0  0  0  0  0  0  0  0  0  0  0
   -4.3485   21.2671   -9.3222 C   0  0  0  0  0  0  0  0  0  0  0  0
   -3.5212   20.4084  -10.0210 C   0  0  0  0  0  0  0  0  0  0  0  0
   -3.9574   19.7469  -11.1564 C   0  0  0  0  0  0  0  0  0  0  0  0
   -5.2581   19.9929  -11.5472 C   0  0  0  0  0  0  0  0  0  0  0  0
   -6.0891   20.8458  -10.8577 C   0  0  0  0  0  0  0  0  0  0  0  0
    0.6824   16.2979  -11.7142 C   0  0  0  0  0  0  0  0  0  0  0  0
    1.5527   15.1976  -12.2479 C   0  0  0  0  0  0  0  0  0  0  0  0
    2.5532   15.5943  -12.8917 O   0  0  0  0  0  0  0  0  0  0  0  0
    1.2672   13.8455  -12.0420 N   0  0  0  0  0  0  0  0  0  0  0  0
    0.3747   13.6632  -11.4710 H   0  0  0  0  0  0  0  0  0  0  0  0
    2.0055   12.7447  -12.4921 C   0  0  0  0  0  0  0  0  0  0  0  0
    1.3508   11.8364  -13.3398 C   0  0  0  0  0  0  0  0  0  0  0  0
    2.0364   10.7430  -13.8050 C   0  0  0  0  0  0  0  0  0  0  0  0
    3.3519   10.4893  -13.4786 C   0  0  0  0  0  0  0  0  0  0  0  0
    3.9940   11.3663  -12.6556 C   0  0  0  0  0  0  0  0  0  0  0  0
    3.3145   12.4688  -12.1812 C   0  0  0  0  0  0  0  0  0  0  0  0
   -0.0563   12.0337  -13.7390 C   0  0  0  0  0  0  0  0  0  0  0  0
 13 14  1  0  0  0
 14 15  2  0  0  0
 14 19  1  0  0  0
 15 16  1  0  0  0
 16 17  2  0  0  0
 17 18  1  0  0  0
 17  1  1  0  0  0
 18 19  2  0  0  0
  1  2  1  0  0  0
  1  9  1  0  0  0
  2  3  2  0  0  0
  2  4  1  0  0  0
  4  5  2  0  0  0
  4  8  1  0  0  0
  5  6  1  0  0  0
  5  9  1  0  0  0
  6  7  1  0  0  0
  7  8  1  0  0  0
  8 20  1  0  0  0
 20 21  1  0  0  0
 21 22  2  0  0  0
 21 23  1  0  0  0
 23 25  1  0  0  0
 25 26  2  0  0  0
 25 30  1  0  0  0
 26 27  1  0  0  0
 26 31  1  0  0  0
 27 28  2  0  0  0
 28 29  1  0  0  0
 29 30  2  0  0  0
  9 10  2  0  0  0
  6 11  1  0  0  0
  7 12  1  0  0  0
 23 24  1  0  0  0
M  END
> <minimizedAffinity>
-11.48490

$$$$
411


 34 37  0  0  0  0  0  0  0  0999 V2000
   -3.0730   18.8663  -11.8450 N   0  0  0  0  0  0  0  0  0  0  0  0
   -2.0344   18.1228  -11.4303 C   0  0  0  0  0  0  0  0  0  0  0  0
   -1.6392   18.1210  -10.2363 O   0  0  0  0  0  0  0  0  0  0  0  0
   -1.4931   17.3923  -12.4750 C   0  0  0  0  0  0  0  0  0  0  0  0
   -2.2174   17.6983  -13.5438 C   0  0  0  0  0  0  0  0  0  0  0  0
   -1.6923   16.9906  -14.5558 N   0  0  0  0  0  0  0  0  0  0  0  0
   -0.6748   16.2719  -14.1165 N   0  0  0  0  0  0  0  0  0  0  0  0
   -0.5362   16.5044  -12.8385 N   0  0  0  0  0  0  0  0  0  0  0  0
   -3.1879   18.6024  -13.1657 C   0  0  0  0  0  0  0  0  0  0  0  0
   -4.0631   19.1129  -13.9407 O   0  0  0  0  0  0  0  0  0  0  0  0
   -2.0092   16.9832  -15.5457 H   0  0  0  0  0  0  0  0  0  0  0  0
   -0.0606   15.6121  -14.6806 H   0  0  0  0  0  0  0  0  0  0  0  0
   -6.8090   22.6860   -8.7780 Br  0  0  0  0  0  0  0  0  0  0  0  0
   -5.6362   21.5018   -9.7213 C   0  0  0  0  0  0  0  0  0  0  0  0
   -4.3311   21.3091   -9.3132 C   0  0  0  0  0  0  0  0  0  0  0  0
   -3.4832   20.4468  -10.0021 C   0  0  0  0  0  0  0  0  0  0  0  0
   -3.9114   19.7555  -11.1164 C   0  0  0  0  0  0  0  0  0  0  0  0
   -5.2140   19.9521  -11.5190 C   0  0  0  0  0  0  0  0  0  0  0  0
   -6.0566   20.8056  -10.8368 C   0  0  0  0  0  0  0  0  0  0  0  0
    0.4439   15.9416  -11.9408 C   0  0  0  0  0  0  0  0  0  0  0  0
    0.6308   14.4781  -12.2667 C   0  0  0  0  0  0  0  0  0  0  0  0
   -0.3774   13.7520  -12.4127 O   0  0  0  0  0  0  0  0  0  0  0  0
    1.9217   13.9468  -12.4025 N   0  0  0  0  0  0  0  0  0  0  0  0
    2.7379   14.6275  -12.2645 H   0  0  0  0  0  0  0  0  0  0  0  0
    2.2356   12.6078  -12.7090 C   0  0  0  0  0  0  0  0  0  0  0  0
    1.3929   11.6962  -13.2931 C   0  0  0  0  0  0  0  0  0  0  0  0
    1.7564   10.3908  -13.5517 C   0  0  0  0  0  0  0  0  0  0  0  0
    3.0297    9.9915  -13.2041 C   0  0  0  0  0  0  0  0  0  0  0  0
    3.9119   10.8814  -12.6130 C   0  0  0  0  0  0  0  0  0  0  0  0
    3.5293   12.1713  -12.3644 C   0  0  0  0  0  0  0  0  0  0  0  0
    3.4170    8.6783  -13.4570 O   0  0  0  0  0  0  0  0  0  0  0  0
    4.3949    8.4261  -14.4464 C   0  0  0  0  0  0  0  0  0  0  0  0
    0.8785    9.4874  -14.1465 O   0  0  0  0  0  0  0  0  0  0  0  0
   -0.2087    8.9981  -13.3506 C   0  0  0  0  0  0  0  0  0  0  0  0
 13 14  1  0  0  0
 14 15  2  0  0  0
 14 19  1  0  0  0
 15 16  1  0  0  0
 16 17  2  0  0  0
 17 18  1  0  0  0
 17  1  1  0  0  0
 18 19  2  0  0  0
  1  2  1  0  0  0
  1  9  1  0  0  0
  2  3  2  0  0  0
  2  4  1  0  0  0
  4  5  2  0  0  0
  4  8  1  0  0  0
  5  6  1  0  0  0
  5  9  1  0  0  0
  6  7  1  0  0  0
  7  8  1  0  0  0
  8 20  1  0  0  0
 20 21  1  0  0  0
 21 22  2  0  0  0
 21 23  1  0  0  0
 23 25  1  0  0  0
 25 26  2  0  0  0
 25 30  1  0  0  0
 26 27  1  0  0  0
 27 28  2  0  0  0
 27 33  1  0  0  0
 28 29  1  0  0  0
 28 31  1  0  0  0
 29 30  2  0  0  0
 31 32  1  0  0  0
 33 34  1  0  0  0
  9 10  2  0  0  0
  6 11  1  0  0  0
  7 12  1  0  0  0
 23 24  1  0  0  0
M  END
> <minimizedAffinity>
-10.59614

$$$$
412


 34 37  0  0  0  0  0  0  0  0999 V2000
   -3.0773   18.8903  -11.8853 N   0  0  0  0  0  0  0  0  0  0  0  0
   -2.0451   18.1419  -11.4884 C   0  0  0  0  0  0  0  0  0  0  0  0
   -1.6117   18.1007  -10.2887 O   0  0  0  0  0  0  0  0  0  0  0  0
   -1.4773   17.4087  -12.5044 C   0  0  0  0  0  0  0  0  0  0  0  0
   -2.2104   17.7296  -13.5879 C   0  0  0  0  0  0  0  0  0  0  0  0
   -1.6709   17.0177  -14.6069 N   0  0  0  0  0  0  0  0  0  0  0  0
   -0.6567   16.2939  -14.1679 N   0  0  0  0  0  0  0  0  0  0  0  0
   -0.5340   16.5299  -12.8778 N   0  0  0  0  0  0  0  0  0  0  0  0
   -3.1854   18.6292  -13.2249 C   0  0  0  0  0  0  0  0  0  0  0  0
   -4.0619   19.1640  -13.9460 O   0  0  0  0  0  0  0  0  0  0  0  0
   -2.0248   17.0568  -15.5913 H   0  0  0  0  0  0  0  0  0  0  0  0
   -0.0872   15.6629  -14.7933 H   0  0  0  0  0  0  0  0  0  0  0  0
   -6.7059   22.7004   -8.6654 Br  0  0  0  0  0  0  0  0  0  0  0  0
   -5.5678   21.5081   -9.6659 C   0  0  0  0  0  0  0  0  0  0  0  0
   -4.2606   21.2983   -9.2979 C   0  0  0  0  0  0  0  0  0  0  0  0
   -3.4331   20.4321  -10.0295 C   0  0  0  0  0  0  0  0  0  0  0  0
   -3.9152   19.7728  -11.1336 C   0  0  0  0  0  0  0  0  0  0  0  0
   -5.2297   19.9989  -11.4819 C   0  0  0  0  0  0  0  0  0  0  0  0
   -6.0479   20.8463  -10.7725 C   0  0  0  0  0  0  0  0  0  0  0  0
    0.4542   15.9305  -12.0283 C   0  0  0  0  0  0  0  0  0  0  0  0
    0.6260   14.4959  -12.2438 C   0  0  0  0  0  0  0  0  0  0  0  0
    1.5392   13.8271  -11.6778 O   0  0  0  0  0  0  0  0  0  0  0  0
   -0.2644   13.8428  -13.1252 N   0  0  0  0  0  0  0  0  0  0  0  0
   -1.0374   14.3879  -13.6176 H   0  0  0  0  0  0  0  0  0  0  0  0
   -0.1126   12.4503  -13.3464 C   0  0  0  0  0  0  0  0  0  0  0  0
   -1.2448   11.6831  -13.2256 C   0  0  0  0  0  0  0  0  0  0  0  0
   -1.1734   10.2956  -13.3989 C   0  0  0  0  0  0  0  0  0  0  0  0
    0.0287    9.7056  -13.6873 C   0  0  0  0  0  0  0  0  0  0  0  0
    1.1863   10.4708  -13.8120 C   0  0  0  0  0  0  0  0  0  0  0  0
    1.0813   11.8419  -13.6362 C   0  0  0  0  0  0  0  0  0  0  0  0
    2.3608    9.8078  -14.0989 O   0  0  0  0  0  0  0  0  0  0  0  0
    2.7640    9.3072  -15.3355 C   0  0  0  0  0  0  0  0  0  0  0  0
   -2.3668    9.6285  -13.2591 O   0  0  0  0  0  0  0  0  0  0  0  0
   -3.5057    9.8973  -13.9914 C   0  0  0  0  0  0  0  0  0  0  0  0
 13 14  1  0  0  0
 14 15  2  0  0  0
 14 19  1  0  0  0
 15 16  1  0  0  0
 16 17  2  0  0  0
 17 18  1  0  0  0
 17  1  1  0  0  0
 18 19  2  0  0  0
  1  2  1  0  0  0
  1  9  1  0  0  0
  2  3  2  0  0  0
  2  4  1  0  0  0
  4  5  2  0  0  0
  4  8  1  0  0  0
  5  6  1  0  0  0
  5  9  1  0  0  0
  6  7  1  0  0  0
  7  8  1  0  0  0
  8 20  1  0  0  0
 20 21  1  0  0  0
 21 22  2  0  0  0
 21 23  1  0  0  0
 23 25  1  0  0  0
 25 26  2  0  0  0
 25 30  1  0  0  0
 26 27  1  0  0  0
 27 28  2  0  0  0
 27 33  1  0  0  0
 28 29  1  0  0  0
 29 30  2  0  0  0
 29 31  1  0  0  0
 31 32  1  0  0  0
 33 34  1  0  0  0
  9 10  2  0  0  0
  6 11  1  0  0  0
  7 12  1  0  0  0
 23 24  1  0  0  0
M  END
> <minimizedAffinity>
-10.71673

$$$$
414


 35 38  0  0  0  0  0  0  0  0999 V2000
   -3.0658   18.8312  -11.9076 N   0  0  0  0  0  0  0  0  0  0  0  0
   -1.9495   18.2494  -11.4002 C   0  0  0  0  0  0  0  0  0  0  0  0
   -1.4934   18.4024  -10.2244 O   0  0  0  0  0  0  0  0  0  0  0  0
   -1.3646   17.4483  -12.3656 C   0  0  0  0  0  0  0  0  0  0  0  0
   -2.1403   17.5605  -13.4412 C   0  0  0  0  0  0  0  0  0  0  0  0
   -1.5881   16.7837  -14.4040 N   0  0  0  0  0  0  0  0  0  0  0  0
   -0.4985   16.2237  -13.8870 N   0  0  0  0  0  0  0  0  0  0  0  0
   -0.3290   16.6094  -12.6370 N   0  0  0  0  0  0  0  0  0  0  0  0
   -3.1890   18.4079  -13.1734 C   0  0  0  0  0  0  0  0  0  0  0  0
   -4.1086   18.7414  -13.9529 O   0  0  0  0  0  0  0  0  0  0  0  0
   -1.9605   16.6573  -15.3669 H   0  0  0  0  0  0  0  0  0  0  0  0
    0.1255   15.5771  -14.4005 H   0  0  0  0  0  0  0  0  0  0  0  0
   -6.7274   22.6293   -8.7872 Br  0  0  0  0  0  0  0  0  0  0  0  0
   -5.6091   21.4471   -9.7710 C   0  0  0  0  0  0  0  0  0  0  0  0
   -6.0272   20.7810  -10.9037 C   0  0  0  0  0  0  0  0  0  0  0  0
   -5.2033   19.9409  -11.5855 C   0  0  0  0  0  0  0  0  0  0  0  0
   -3.9004   19.7186  -11.1671 C   0  0  0  0  0  0  0  0  0  0  0  0
   -3.4715   20.3749  -10.0420 C   0  0  0  0  0  0  0  0  0  0  0  0
   -4.3128   21.2169   -9.3663 C   0  0  0  0  0  0  0  0  0  0  0  0
    0.7221   16.2481  -11.6933 C   0  0  0  0  0  0  0  0  0  0  0  0
    1.5398   15.1206  -12.2746 C   0  0  0  0  0  0  0  0  0  0  0  0
    2.5723   15.5278  -12.8626 O   0  0  0  0  0  0  0  0  0  0  0  0
    1.1132   13.8025  -12.1236 N   0  0  0  0  0  0  0  0  0  0  0  0
    0.1989   13.6727  -11.5846 H   0  0  0  0  0  0  0  0  0  0  0  0
    1.7544   12.6332  -12.6025 C   0  0  0  0  0  0  0  0  0  0  0  0
    3.0036   12.2028  -12.2234 C   0  0  0  0  0  0  0  0  0  0  0  0
    3.5707   11.0318  -12.7449 C   0  0  0  0  0  0  0  0  0  0  0  0
    2.8992   10.2588  -13.6617 C   0  0  0  0  0  0  0  0  0  0  0  0
    1.6497   10.6793  -14.0472 C   0  0  0  0  0  0  0  0  0  0  0  0
    1.0928   11.8340  -13.5322 C   0  0  0  0  0  0  0  0  0  0  0  0
    3.5287    9.0477  -14.1772 C   0  0  0  0  0  0  0  0  0  0  0  0
    4.3778    9.1667  -15.0958 O   0  0  0  0  0  0  0  0  0  0  0  0
    3.2575    7.7852  -13.7290 O   0  0  0  0  0  0  0  0  0  0  0  0
    2.2184    7.4170  -12.8683 C   0  0  0  0  0  0  0  0  0  0  0  0
    2.4974    5.9686  -12.4429 C   0  0  0  0  0  0  0  0  0  0  0  0
 13 14  1  0  0  0
 14 15  2  0  0  0
 14 19  1  0  0  0
 15 16  1  0  0  0
 16 17  2  0  0  0
 17 18  1  0  0  0
 17  1  1  0  0  0
 18 19  2  0  0  0
  1  2  1  0  0  0
  1  9  1  0  0  0
  2  3  2  0  0  0
  2  4  1  0  0  0
  4  5  2  0  0  0
  4  8  1  0  0  0
  5  6  1  0  0  0
  5  9  1  0  0  0
  6  7  1  0  0  0
  7  8  1  0  0  0
  8 20  1  0  0  0
 20 21  1  0  0  0
 21 22  2  0  0  0
 21 23  1  0  0  0
 23 25  1  0  0  0
 25 26  2  0  0  0
 25 30  1  0  0  0
 26 27  1  0  0  0
 27 28  2  0  0  0
 28 29  1  0  0  0
 28 31  1  0  0  0
 29 30  2  0  0  0
 31 32  2  0  0  0
 31 33  1  0  0  0
 33 34  1  0  0  0
 34 35  1  0  0  0
  9 10  2  0  0  0
  6 11  1  0  0  0
  7 12  1  0  0  0
 23 24  1  0  0  0
M  END
> <minimizedAffinity>
-11.04752

$$$$
416


 33 36  0  0  0  0  0  0  0  0999 V2000
   -3.1006   18.9306  -11.7317 N   0  0  0  0  0  0  0  0  0  0  0  0
   -1.9856   18.3004  -11.2671 C   0  0  0  0  0  0  0  0  0  0  0  0
   -1.5477   18.4309  -10.0990 O   0  0  0  0  0  0  0  0  0  0  0  0
   -1.4194   17.5148  -12.2477 C   0  0  0  0  0  0  0  0  0  0  0  0
   -2.1873   17.6620  -13.3175 C   0  0  0  0  0  0  0  0  0  0  0  0
   -1.6568   16.9050  -14.2950 N   0  0  0  0  0  0  0  0  0  0  0  0
   -0.5768   16.3085  -13.8114 N   0  0  0  0  0  0  0  0  0  0  0  0
   -0.4011   16.6623  -12.5522 N   0  0  0  0  0  0  0  0  0  0  0  0
   -3.2133   18.5245  -13.0043 C   0  0  0  0  0  0  0  0  0  0  0  0
   -4.1483   18.9048  -13.7773 O   0  0  0  0  0  0  0  0  0  0  0  0
   -2.0033   16.7823  -15.2622 H   0  0  0  0  0  0  0  0  0  0  0  0
    0.0444   15.6470  -14.3623 H   0  0  0  0  0  0  0  0  0  0  0  0
   -6.9334   22.7569   -8.7790 Br  0  0  0  0  0  0  0  0  0  0  0  0
   -5.7256   21.5832   -9.6766 C   0  0  0  0  0  0  0  0  0  0  0  0
   -4.4255   21.4030   -9.2534 C   0  0  0  0  0  0  0  0  0  0  0  0
   -3.5617   20.5437   -9.9155 C   0  0  0  0  0  0  0  0  0  0  0  0
   -3.9549   19.8267  -11.0267 C   0  0  0  0  0  0  0  0  0  0  0  0
   -5.2581   20.0056  -11.4546 C   0  0  0  0  0  0  0  0  0  0  0  0
   -6.1180   20.8609  -10.7968 C   0  0  0  0  0  0  0  0  0  0  0  0
    0.6452   16.2630  -11.6569 C   0  0  0  0  0  0  0  0  0  0  0  0
    1.5761   15.2288  -12.2451 C   0  0  0  0  0  0  0  0  0  0  0  0
    2.5352   15.6797  -12.9080 O   0  0  0  0  0  0  0  0  0  0  0  0
    1.3753   13.8633  -12.0537 N   0  0  0  0  0  0  0  0  0  0  0  0
    0.5060   13.6050  -11.4675 H   0  0  0  0  0  0  0  0  0  0  0  0
    2.1265   12.7654  -12.5063 C   0  0  0  0  0  0  0  0  0  0  0  0
    1.5461   11.8248  -13.3574 C   0  0  0  0  0  0  0  0  0  0  0  0
    2.2353   10.7312  -13.8079 C   0  0  0  0  0  0  0  0  0  0  0  0
    3.5598   10.5241  -13.4195 C   0  0  0  0  0  0  0  0  0  0  0  0
    4.1028   11.4682  -12.5824 C   0  0  0  0  0  0  0  0  0  0  0  0
    3.4158   12.5697  -12.1281 C   0  0  0  0  0  0  0  0  0  0  0  0
    4.2134    9.4100  -13.8924 O   0  0  0  0  0  0  0  0  0  0  0  0
    3.7305    8.1060  -13.9142 C   0  0  0  0  0  0  0  0  0  0  0  0
    4.7886    7.0565  -13.9124 C   0  0  0  0  0  0  0  0  0  0  0  0
 13 14  1  0  0  0
 14 15  2  0  0  0
 14 19  1  0  0  0
 15 16  1  0  0  0
 16 17  2  0  0  0
 17 18  1  0  0  0
 17  1  1  0  0  0
 18 19  2  0  0  0
  1  2  1  0  0  0
  1  9  1  0  0  0
  2  3  2  0  0  0
  2  4  1  0  0  0
  4  5  2  0  0  0
  4  8  1  0  0  0
  5  6  1  0  0  0
  5  9  1  0  0  0
  6  7  1  0  0  0
  7  8  1  0  0  0
  8 20  1  0  0  0
 20 21  1  0  0  0
 21 22  2  0  0  0
 21 23  1  0  0  0
 23 25  1  0  0  0
 25 26  2  0  0  0
 25 30  1  0  0  0
 26 27  1  0  0  0
 27 28  2  0  0  0
 28 29  1  0  0  0
 28 31  1  0  0  0
 29 30  2  0  0  0
 31 32  1  0  0  0
 32 33  1  0  0  0
  9 10  2  0  0  0
  6 11  1  0  0  0
  7 12  1  0  0  0
 23 24  1  0  0  0
M  END
> <minimizedAffinity>
-10.78906

$$$$
421


 28 31  0  0  0  0  0  0  0  0999 V2000
   -1.4395    8.8279  -13.8727 N   0  0  0  0  0  0  0  0  0  0  0  0
   -2.6660    9.3921  -13.9318 C   0  0  0  0  0  0  0  0  0  0  0  0
   -2.9736   10.6048  -13.6992 O   0  0  0  0  0  0  0  0  0  0  0  0
   -3.6196    8.4584  -14.2937 C   0  0  0  0  0  0  0  0  0  0  0  0
   -2.9448    7.3177  -14.4530 C   0  0  0  0  0  0  0  0  0  0  0  0
   -3.8768    6.4007  -14.8084 N   0  0  0  0  0  0  0  0  0  0  0  0
   -5.0570    6.9959  -14.8532 N   0  0  0  0  0  0  0  0  0  0  0  0
   -4.9291    8.2741  -14.5383 N   0  0  0  0  0  0  0  0  0  0  0  0
   -1.6078    7.5345  -14.1967 C   0  0  0  0  0  0  0  0  0  0  0  0
   -0.6644    6.7062  -14.2428 O   0  0  0  0  0  0  0  0  0  0  0  0
   -3.6673    5.3882  -15.0095 H   0  0  0  0  0  0  0  0  0  0  0  0
   -5.9844    6.5600  -15.0961 H   0  0  0  0  0  0  0  0  0  0  0  0
    3.7634   11.8180  -12.4650 Br  0  0  0  0  0  0  0  0  0  0  0  0
    2.1556   10.8693  -12.8900 C   0  0  0  0  0  0  0  0  0  0  0  0
    1.9502    9.5697  -12.4748 C   0  0  0  0  0  0  0  0  0  0  0  0
    0.7761    8.8920  -12.7920 C   0  0  0  0  0  0  0  0  0  0  0  0
   -0.2192    9.4976  -13.5301 C   0  0  0  0  0  0  0  0  0  0  0  0
   -0.0001   10.7971  -13.9384 C   0  0  0  0  0  0  0  0  0  0  0  0
    1.1624   11.4777  -13.6292 C   0  0  0  0  0  0  0  0  0  0  0  0
   -5.9750    9.2514  -14.4744 C   0  0  0  0  0  0  0  0  0  0  0  0
   -6.8570    9.4198  -15.5220 C   0  0  0  0  0  0  0  0  0  0  0  0
   -7.8811   10.3579  -15.4890 C   0  0  0  0  0  0  0  0  0  0  0  0
   -8.0443   11.1625  -14.3815 C   0  0  0  0  0  0  0  0  0  0  0  0
   -7.1644   10.9965  -13.3334 C   0  0  0  0  0  0  0  0  0  0  0  0
   -6.1439   10.0591  -13.3693 C   0  0  0  0  0  0  0  0  0  0  0  0
   -9.0850   12.1339  -14.3181 N   0  0  0  0  0  0  0  0  0  0  0  0
   -9.2796   12.8324  -13.3056 O   0  0  0  0  0  0  0  0  0  0  0  0
   -9.8963   12.3091  -15.3938 O   0  0  0  0  0  0  0  0  0  0  0  0
 13 14  1  0  0  0
 14 15  2  0  0  0
 14 19  1  0  0  0
 15 16  1  0  0  0
 16 17  2  0  0  0
 17 18  1  0  0  0
 17  1  1  0  0  0
 18 19  2  0  0  0
  1  2  1  0  0  0
  1  9  1  0  0  0
  2  3  2  0  0  0
  2  4  1  0  0  0
  4  5  2  0  0  0
  4  8  1  0  0  0
  5  6  1  0  0  0
  5  9  1  0  0  0
  6  7  1  0  0  0
  7  8  1  0  0  0
  8 20  1  0  0  0
 20 21  2  0  0  0
 20 25  1  0  0  0
 21 22  1  0  0  0
 22 23  2  0  0  0
 23 24  1  0  0  0
 23 26  1  0  0  0
 24 25  2  0  0  0
 26 27  2  0  0  0
 26 28  1  0  0  0
  9 10  2  0  0  0
  6 11  1  0  0  0
  7 12  1  0  0  0
M  CHG 1  28  -1
M  END
> <minimizedAffinity>
-9.21130

$$$$
425


 24 28  0  0  0  0  0  0  0  0999 V2000
    2.8611    7.3874  -12.6785 N   0  0  0  0  0  0  0  0  0  0  0  0
    1.6494    7.5404  -11.9560 C   0  0  0  0  0  0  0  0  0  0  0  0
    1.1999    6.6934  -11.1470 O   0  0  0  0  0  0  0  0  0  0  0  0
    1.0286    8.8429  -12.3177 C   0  0  0  0  0  0  0  0  0  0  0  0
    0.0193    8.7035  -13.4153 C   0  0  0  0  0  0  0  0  0  0  0  0
    0.1594    9.9568  -14.0516 O   0  0  0  0  0  0  0  0  0  0  0  0
    1.5304    9.8248  -14.3875 C   0  0  0  0  0  0  0  0  0  0  0  0
    2.1351    9.6101  -13.0429 C   0  0  0  0  0  0  0  0  0  0  0  0
    3.2849    8.6708  -13.1373 C   0  0  0  0  0  0  0  0  0  0  0  0
    4.4087    8.9731  -13.5470 O   0  0  0  0  0  0  0  0  0  0  0  0
    1.4810    8.5193  -15.0959 C   0  0  0  0  0  0  0  0  0  0  0  0
    0.5753    7.8025  -14.4371 C   0  0  0  0  0  0  0  0  0  0  0  0
    5.5889    2.0033  -13.5107 Br  0  0  0  0  0  0  0  0  0  0  0  0
    4.7310    3.6747  -13.2494 C   0  0  0  0  0  0  0  0  0  0  0  0
    3.4510    3.7082  -12.7514 C   0  0  0  0  0  0  0  0  0  0  0  0
    2.8529    4.9357  -12.5706 C   0  0  0  0  0  0  0  0  0  0  0  0
    3.4941    6.1165  -12.8736 C   0  0  0  0  0  0  0  0  0  0  0  0
    4.7877    6.0843  -13.3762 C   0  0  0  0  0  0  0  0  0  0  0  0
    5.3911    4.8380  -13.5570 C   0  0  0  0  0  0  0  0  0  0  0  0
   -1.3570    8.4321  -12.9820 C   0  0  0  0  0  0  0  0  0  0  0  0
   -2.0342    7.5604  -13.7900 O   0  0  0  0  0  0  0  0  0  0  0  0
   -3.0163    8.2487  -14.4572 C   0  0  0  0  0  0  0  0  0  0  0  0
   -2.9246    9.6668  -13.9983 C   0  0  0  0  0  0  0  0  0  0  0  0
   -2.1033    9.5921  -12.8789 O   0  0  0  0  0  0  0  0  0  0  0  0
 13 14  1  0  0  0
 14 15  2  0  0  0
 14 19  1  0  0  0
 15 16  1  0  0  0
 16 17  2  0  0  0
 17 18  1  0  0  0
 17  1  1  0  0  0
 18 19  2  0  0  0
  1  2  1  0  0  0
  1  9  1  0  0  0
  2  3  2  0  0  0
  2  4  1  0  0  0
  4  5  1  0  0  0
  4  8  1  0  0  0
  5  6  1  0  0  0
  5 12  1  0  0  0
  5 20  1  0  0  0
  6  7  1  0  0  0
  7  8  1  0  0  0
  7 11  1  0  0  0
  8  9  1  0  0  0
  9 10  2  0  0  0
 11 12  2  0  0  0
 20 21  1  0  0  0
 20 24  1  0  0  0
 21 22  1  0  0  0
 22 23  1  0  0  0
 23 24  1  0  0  0
M  END
> <minimizedAffinity>
-7.73134

$$$$
426


 29 32  0  0  0  0  0  0  0  0999 V2000
   -1.5511    8.9490  -13.7755 N   0  0  0  0  0  0  0  0  0  0  0  0
   -1.9876    7.5919  -13.9839 C   0  0  0  0  0  0  0  0  0  0  0  0
   -1.4467    6.5529  -13.5096 O   0  0  0  0  0  0  0  0  0  0  0  0
   -3.1837    7.6551  -14.8545 C   0  0  0  0  0  0  0  0  0  0  0  0
   -4.1779    6.6357  -14.5825 N   0  0  0  0  0  0  0  0  0  0  0  0
   -5.3538    7.4103  -14.8281 N   0  0  0  0  0  0  0  0  0  0  0  0
   -5.1622    8.7136  -14.2775 C   0  0  0  0  0  0  0  0  0  0  0  0
   -3.8453    8.8878  -14.2814 C   0  0  0  0  0  0  0  0  0  0  0  0
   -2.7191    9.7570  -13.9633 C   0  0  0  0  0  0  0  0  0  0  0  0
   -2.8523   11.0098  -13.8874 O   0  0  0  0  0  0  0  0  0  0  0  0
   -4.1597    6.5083  -13.5316 H   0  0  0  0  0  0  0  0  0  0  0  0
   -6.2093    7.0895  -15.3214 H   0  0  0  0  0  0  0  0  0  0  0  0
    4.0197   11.1843  -12.4858 Br  0  0  0  0  0  0  0  0  0  0  0  0
    2.2761   10.4630  -12.8797 C   0  0  0  0  0  0  0  0  0  0  0  0
    1.3939   11.1966  -13.6309 C   0  0  0  0  0  0  0  0  0  0  0  0
    0.1699   10.6727  -13.8975 C   0  0  0  0  0  0  0  0  0  0  0  0
   -0.2586    9.4169  -13.4503 C   0  0  0  0  0  0  0  0  0  0  0  0
    0.6400    8.7044  -12.7030 C   0  0  0  0  0  0  0  0  0  0  0  0
    1.8914    9.2184  -12.4194 C   0  0  0  0  0  0  0  0  0  0  0  0
   -6.1738    9.6576  -13.8158 C   0  0  0  0  0  0  0  0  0  0  0  0
   -6.3365    9.9076  -12.5985 O   0  0  0  0  0  0  0  0  0  0  0  0
   -7.0112   10.3304  -14.6934 O   0  0  0  0  0  0  0  0  0  0  0  0
   -7.8018   11.4338  -14.2734 C   0  0  0  0  0  0  0  0  0  0  0  0
   -8.8538   11.7111  -15.3079 C   0  0  0  0  0  0  0  0  0  0  0  0
   -8.9919   10.8740  -16.4137 C   0  0  0  0  0  0  0  0  0  0  0  0
   -9.9407   11.0880  -17.3768 C   0  0  0  0  0  0  0  0  0  0  0  0
  -10.7961   12.1791  -17.2497 C   0  0  0  0  0  0  0  0  0  0  0  0
  -10.6556   13.0042  -16.1556 C   0  0  0  0  0  0  0  0  0  0  0  0
   -9.6847   12.7755  -15.1778 C   0  0  0  0  0  0  0  0  0  0  0  0
 13 14  1  0  0  0
 14 15  2  0  0  0
 14 19  1  0  0  0
 15 16  1  0  0  0
 16 17  2  0  0  0
 17 18  1  0  0  0
 17  1  1  0  0  0
 18 19  2  0  0  0
  1  2  1  0  0  0
  1  9  1  0  0  0
  2  3  2  0  0  0
  2  4  1  0  0  0
  4  5  1  0  0  0
  4  8  1  0  0  0
  5  6  1  0  0  0
  6  7  1  0  0  0
  7  8  2  0  0  0
  7 20  1  0  0  0
  8  9  1  0  0  0
  9 10  2  0  0  0
 20 21  2  0  0  0
 20 22  1  0  0  0
 22 23  1  0  0  0
 23 24  1  0  0  0
 24 25  2  0  0  0
 24 29  1  0  0  0
 25 26  1  0  0  0
 26 27  2  0  0  0
 27 28  1  0  0  0
 28 29  2  0  0  0
  5 11  1  0  0  0
  6 12  1  0  0  0
M  END
> <minimizedAffinity>
-10.48523

$$$$
428


 28 31  0  0  0  0  0  0  0  0999 V2000
    4.0989    6.0054  -13.0895 N   0  0  0  0  0  0  0  0  0  0  0  0
    3.6141    4.7886  -12.4920 C   0  0  0  0  0  0  0  0  0  0  0  0
    4.4077    3.8230  -12.3176 O   0  0  0  0  0  0  0  0  0  0  0  0
    2.2527    4.7488  -12.1291 N   0  0  0  0  0  0  0  0  0  0  0  0
    1.4378    5.7063  -12.2938 C   0  0  0  0  0  0  0  0  0  0  0  0
    1.7538    7.0283  -12.8891 C   0  0  0  0  0  0  0  0  0  0  0  0
    0.8140    7.2656  -14.0204 C   0  0  0  0  0  0  0  0  0  0  0  0
    0.5015    8.6138  -14.3287 N   0  0  0  0  0  0  0  0  0  0  0  0
    1.2970    9.5917  -13.6983 C   0  0  0  0  0  0  0  0  0  0  0  0
    1.8049    9.3718  -12.4119 C   0  0  0  0  0  0  0  0  0  0  0  0
    2.5742   10.3316  -11.8169 C   0  0  0  0  0  0  0  0  0  0  0  0
    2.8929   11.5313  -12.4114 C   0  0  0  0  0  0  0  0  0  0  0  0
    2.3911   11.7432  -13.6784 C   0  0  0  0  0  0  0  0  0  0  0  0
    1.6058   10.7874  -14.3092 C   0  0  0  0  0  0  0  0  0  0  0  0
    3.7323   12.5477  -11.7347 C   0  0  0  0  0  0  0  0  0  0  0  0
    1.4379    8.0650  -11.8071 C   0  0  0  0  0  0  0  0  0  0  0  0
   -0.9274    8.9138  -14.1374 C   0  0  0  0  0  0  0  0  0  0  0  0
    3.1806    7.0778  -13.2734 C   0  0  0  0  0  0  0  0  0  0  0  0
    3.6733    8.1251  -13.8090 O   0  0  0  0  0  0  0  0  0  0  0  0
    0.0992    5.5294  -11.8827 O   0  0  0  0  0  0  0  0  0  0  0  0
    0.6489    8.7437  -15.3743 H   0  0  0  0  0  0  0  0  0  0  0  0
    9.9992    6.2197  -14.6737 Br  0  0  0  0  0  0  0  0  0  0  0  0
    8.1536    6.1946  -14.1933 C   0  0  0  0  0  0  0  0  0  0  0  0
    7.6192    5.0523  -13.6604 C   0  0  0  0  0  0  0  0  0  0  0  0
    6.2752    5.0269  -13.3084 C   0  0  0  0  0  0  0  0  0  0  0  0
    5.4590    6.1221  -13.4798 C   0  0  0  0  0  0  0  0  0  0  0  0
    6.0170    7.2608  -14.0176 C   0  0  0  0  0  0  0  0  0  0  0  0
    7.3539    7.3114  -14.3763 C   0  0  0  0  0  0  0  0  0  0  0  0
 22 23  1  0  0  0
 23 24  2  0  0  0
 23 28  1  0  0  0
 24 25  1  0  0  0
 25 26  2  0  0  0
 26 27  1  0  0  0
 26  1  1  0  0  0
 27 28  2  0  0  0
  1  2  1  0  0  0
  1 18  1  0  0  0
  2  3  2  0  0  0
  2  4  1  0  0  0
  4  5  2  0  0  0
  5  6  1  0  0  0
  5 20  1  0  0  0
  6  7  1  0  0  0
  6 16  1  0  0  0
  6 18  1  0  0  0
  7  8  1  0  0  0
  8  9  1  0  0  0
  8 17  1  0  0  0
  9 10  2  0  0  0
  9 14  1  0  0  0
 10 11  1  0  0  0
 10 16  1  0  0  0
 11 12  2  0  0  0
 12 13  1  0  0  0
 12 15  1  0  0  0
 13 14  2  0  0  0
 18 19  2  0  0  0
  8 21  1  0  0  0
M  CHG 1   8   1
M  CHG 1  20  -1
M  END
> <minimizedAffinity>
-8.72705

$$$$
429


 36 39  0  0  0  0  0  0  0  0999 V2000
    0.4167   11.4443  -13.2840 N   0  0  0  0  0  0  0  0  0  0  0  0
    1.6814   10.8182  -13.5075 C   0  0  0  0  0  0  0  0  0  0  0  0
    1.6750    9.6299  -13.9623 O   0  0  0  0  0  0  0  0  0  0  0  0
    2.8754   11.5241  -13.2212 N   0  0  0  0  0  0  0  0  0  0  0  0
    2.9065   12.8537  -12.7116 C   0  0  0  0  0  0  0  0  0  0  0  0
    3.9877   13.4581  -12.4664 O   0  0  0  0  0  0  0  0  0  0  0  0
    1.6197   13.5305  -12.4696 C   0  0  0  0  0  0  0  0  0  0  0  0
    1.5823   14.7661  -11.9951 C   0  0  0  0  0  0  0  0  0  0  0  0
    0.4088   12.7771  -12.7746 C   0  0  0  0  0  0  0  0  0  0  0  0
   -0.7130   13.3133  -12.5841 O   0  0  0  0  0  0  0  0  0  0  0  0
    3.7802   11.0296  -13.3996 H   0  0  0  0  0  0  0  0  0  0  0  0
   -4.6894    8.2733  -14.4693 Br  0  0  0  0  0  0  0  0  0  0  0  0
   -3.0999    9.2755  -14.1037 C   0  0  0  0  0  0  0  0  0  0  0  0
   -1.9793    8.6584  -13.5737 C   0  0  0  0  0  0  0  0  0  0  0  0
   -0.8362    9.3895  -13.3137 C   0  0  0  0  0  0  0  0  0  0  0  0
   -0.7622   10.7449  -13.5655 C   0  0  0  0  0  0  0  0  0  0  0  0
   -1.8699   11.3742  -14.0931 C   0  0  0  0  0  0  0  0  0  0  0  0
   -3.0030   10.6282  -14.3473 C   0  0  0  0  0  0  0  0  0  0  0  0
    0.3265   15.3916  -11.7721 N   0  0  0  0  0  0  0  0  0  0  0  0
   -0.2299   15.0113  -10.9590 H   0  0  0  0  0  0  0  0  0  0  0  0
   -0.1965   16.4293  -12.5260 N   0  0  0  0  0  0  0  0  0  0  0  0
    0.2001   16.5115  -13.5074 H   0  0  0  0  0  0  0  0  0  0  0  0
   -1.1861   17.3425  -12.0675 C   0  0  0  0  0  0  0  0  0  0  0  0
   -2.3393   17.6055  -12.6910 N   0  0  0  0  0  0  0  0  0  0  0  0
   -3.0359   18.5101  -11.9834 C   0  0  0  0  0  0  0  0  0  0  0  0
   -2.2792   18.8270  -10.8634 C   0  0  0  0  0  0  0  0  0  0  0  0
   -1.1724   18.0929  -10.9652 N   0  0  0  0  0  0  0  0  0  0  0  0
   -2.7091   19.7151   -9.9492 N   0  0  0  0  0  0  0  0  0  0  0  0
   -3.8922   20.3029  -10.1284 C   0  0  0  0  0  0  0  0  0  0  0  0
   -4.3347   21.1462   -9.2893 O   0  0  0  0  0  0  0  0  0  0  0  0
   -4.6841   20.0386  -11.2022 N   0  0  0  0  0  0  0  0  0  0  0  0
   -4.2420   19.1438  -12.1165 C   0  0  0  0  0  0  0  0  0  0  0  0
   -4.9654   18.8993  -13.1040 O   0  0  0  0  0  0  0  0  0  0  0  0
   -5.9560   20.6989  -11.3497 C   0  0  0  0  0  0  0  0  0  0  0  0
   -1.8722   19.9919   -8.8194 C   0  0  0  0  0  0  0  0  0  0  0  0
   -2.8603   17.0530  -13.9464 C   0  0  0  0  0  0  0  0  0  0  0  0
 12 13  1  0  0  0
 13 14  2  0  0  0
 13 18  1  0  0  0
 14 15  1  0  0  0
 15 16  2  0  0  0
 16 17  1  0  0  0
 16  1  1  0  0  0
 17 18  2  0  0  0
  1  2  1  0  0  0
  1  9  1  0  0  0
  2  3  2  0  0  0
  2  4  1  0  0  0
  4  5  1  0  0  0
  5  6  2  0  0  0
  5  7  1  0  0  0
  7  8  2  0  0  0
  7  9  1  0  0  0
  8 19  1  0  0  0
 19 21  1  0  0  0
 21 23  1  0  0  0
 23 24  1  0  0  0
 23 27  2  0  0  0
 24 25  1  0  0  0
 24 36  1  0  0  0
 25 26  2  0  0  0
 25 32  1  0  0  0
 26 27  1  0  0  0
 26 28  1  0  0  0
 28 29  1  0  0  0
 28 35  1  0  0  0
 29 30  2  0  0  0
 29 31  1  0  0  0
 31 32  1  0  0  0
 31 34  1  0  0  0
 32 33  2  0  0  0
  9 10  2  0  0  0
  4 11  1  0  0  0
 19 20  1  0  0  0
 21 22  1  0  0  0
M  END
> <minimizedAffinity>
-9.75934

$$$$
436


 29 32  0  0  0  0  0  0  0  0999 V2000
   -4.6860    8.6946  -14.6324 N   0  0  0  0  0  0  0  0  0  0  0  0
   -4.8871    7.4249  -15.3018 C   0  0  0  0  0  0  0  0  0  0  0  0
   -3.6099    6.6340  -15.4630 C   0  0  0  0  0  0  0  0  0  0  0  0
   -2.8662    6.7129  -14.1208 C   0  0  0  0  0  0  0  0  0  0  0  0
   -2.4153    8.0768  -14.0257 N   0  0  0  0  0  0  0  0  0  0  0  0
   -3.3503    9.0401  -14.2875 C   0  0  0  0  0  0  0  0  0  0  0  0
   -2.7682   10.2435  -14.1571 N   0  0  0  0  0  0  0  0  0  0  0  0
   -1.4761   10.0126  -13.8135 C   0  0  0  0  0  0  0  0  0  0  0  0
   -1.2447    8.6484  -13.7277 C   0  0  0  0  0  0  0  0  0  0  0  0
    0.0046    8.1651  -13.3917 C   0  0  0  0  0  0  0  0  0  0  0  0
    0.1761    6.9018  -13.3231 O   0  0  0  0  0  0  0  0  0  0  0  0
    1.0024    9.0323  -13.1452 N   0  0  0  0  0  0  0  0  0  0  0  0
    0.7508   10.3498  -13.2353 C   0  0  0  0  0  0  0  0  0  0  0  0
    1.7141   11.1273  -12.9963 O   0  0  0  0  0  0  0  0  0  0  0  0
   -0.4464   10.8387  -13.5581 N   0  0  0  0  0  0  0  0  0  0  0  0
   -0.6831   12.2721  -13.6467 C   0  0  0  0  0  0  0  0  0  0  0  0
   -9.6100   12.1823  -13.8008 Br  0  0  0  0  0  0  0  0  0  0  0  0
   -8.0699   11.1126  -14.0005 C   0  0  0  0  0  0  0  0  0  0  0  0
   -7.1807   10.9016  -12.9676 C   0  0  0  0  0  0  0  0  0  0  0  0
   -6.0474   10.1052  -13.1403 C   0  0  0  0  0  0  0  0  0  0  0  0
   -5.8040    9.5147  -14.3593 C   0  0  0  0  0  0  0  0  0  0  0  0
   -6.7124    9.7474  -15.3662 C   0  0  0  0  0  0  0  0  0  0  0  0
   -7.8314   10.5231  -15.2258 C   0  0  0  0  0  0  0  0  0  0  0  0
    2.3198    8.5339  -12.7900 C   0  0  0  0  0  0  0  0  0  0  0  0
    3.0991    8.3046  -14.0510 C   0  0  0  0  0  0  0  0  0  0  0  0
    3.9885    7.4230  -14.0990 O   0  0  0  0  0  0  0  0  0  0  0  0
    2.8564    9.0688  -15.2151 N   0  0  0  0  0  0  0  0  0  0  0  0
    2.9098    8.6646  -16.1775 H   0  0  0  0  0  0  0  0  0  0  0  0
    2.6088   10.0875  -15.1576 H   0  0  0  0  0  0  0  0  0  0  0  0
 17 18  1  0  0  0
 18 19  2  0  0  0
 18 23  1  0  0  0
 19 20  1  0  0  0
 20 21  2  0  0  0
 21 22  1  0  0  0
 21  1  1  0  0  0
 22 23  2  0  0  0
  1  2  1  0  0  0
  1  6  1  0  0  0
  2  3  1  0  0  0
  3  4  1  0  0  0
  4  5  1  0  0  0
  5  6  1  0  0  0
  5  9  1  0  0  0
  6  7  2  0  0  0
  7  8  1  0  0  0
  8  9  2  0  0  0
  8 15  1  0  0  0
  9 10  1  0  0  0
 10 11  2  0  0  0
 10 12  1  0  0  0
 12 13  1  0  0  0
 12 24  1  0  0  0
 13 14  2  0  0  0
 13 15  1  0  0  0
 15 16  1  0  0  0
 24 25  1  0  0  0
 25 26  2  0  0  0
 25 27  1  0  0  0
 27 28  1  0  0  0
 27 29  1  0  0  0
M  END
> <minimizedAffinity>
-8.57205

$$$$
439


 28 32  0  0  0  0  0  0  0  0999 V2000
    0.7655   14.9030  -12.4747 N   0  0  0  0  0  0  0  0  0  0  0  0
    1.9520   15.0018  -11.8849 N   0  0  0  0  0  0  0  0  0  0  0  0
    2.6166   13.8343  -11.9657 C   0  0  0  0  0  0  0  0  0  0  0  0
    3.8271   13.5840  -11.4831 C   0  0  0  0  0  0  0  0  0  0  0  0
    1.8278   12.9267  -12.6425 C   0  0  0  0  0  0  0  0  0  0  0  0
    2.0943   11.6533  -12.9458 C   0  0  0  0  0  0  0  0  0  0  0  0
    0.6768   13.6400  -12.9419 C   0  0  0  0  0  0  0  0  0  0  0  0
   -0.3004   13.1600  -13.5609 O   0  0  0  0  0  0  0  0  0  0  0  0
    2.3152   15.8602  -11.4250 H   0  0  0  0  0  0  0  0  0  0  0  0
   -3.5275   19.2724  -12.9697 Br  0  0  0  0  0  0  0  0  0  0  0  0
   -2.1774   17.9144  -12.7912 C   0  0  0  0  0  0  0  0  0  0  0  0
   -1.3921   17.8236  -11.6812 C   0  0  0  0  0  0  0  0  0  0  0  0
   -0.4252   16.8257  -11.5891 C   0  0  0  0  0  0  0  0  0  0  0  0
   -0.2318   15.9099  -12.6025 C   0  0  0  0  0  0  0  0  0  0  0  0
   -1.0436   16.0326  -13.7093 C   0  0  0  0  0  0  0  0  0  0  0  0
   -2.0064   17.0089  -13.8254 C   0  0  0  0  0  0  0  0  0  0  0  0
    1.1060   10.9177  -13.6572 N   0  0  0  0  0  0  0  0  0  0  0  0
    0.5519   11.4171  -14.3681 H   0  0  0  0  0  0  0  0  0  0  0  0
    0.8669    9.5245  -13.4133 C   0  0  0  0  0  0  0  0  0  0  0  0
    1.6149    9.0597  -12.2045 C   0  0  0  0  0  0  0  0  0  0  0  0
    1.2693    7.6709  -11.9356 N   0  0  0  0  0  0  0  0  0  0  0  0
   -0.1678    7.6099  -11.6988 C   0  0  0  0  0  0  0  0  0  0  0  0
   -0.9191    7.9869  -12.8711 N   0  0  0  0  0  0  0  0  0  0  0  0
   -0.4978    7.1688  -14.0042 C   0  0  0  0  0  0  0  0  0  0  0  0
    0.9217    7.2855  -14.2505 N   0  0  0  0  0  0  0  0  0  0  0  0
    1.6399    6.8641  -13.0703 C   0  0  0  0  0  0  0  0  0  0  0  0
    1.2642    8.6486  -14.5785 C   0  0  0  0  0  0  0  0  0  0  0  0
   -0.6409    9.3613  -13.1969 C   0  0  0  0  0  0  0  0  0  0  0  0
 10 11  1  0  0  0
 11 12  2  0  0  0
 11 16  1  0  0  0
 12 13  1  0  0  0
 13 14  2  0  0  0
 14 15  1  0  0  0
 14  1  1  0  0  0
 15 16  2  0  0  0
  1  2  1  0  0  0
  1  7  1  0  0  0
  2  3  1  0  0  0
  3  4  2  0  0  0
  3  5  1  0  0  0
  5  6  2  0  0  0
  5  7  1  0  0  0
  6 17  1  0  0  0
 17 19  1  0  0  0
 19 20  1  0  0  0
 19 27  1  0  0  0
 19 28  1  0  0  0
 20 21  1  0  0  0
 21 22  1  0  0  0
 21 26  1  0  0  0
 22 23  1  0  0  0
 23 24  1  0  0  0
 23 28  1  0  0  0
 24 25  1  0  0  0
 25 26  1  0  0  0
 25 27  1  0  0  0
  7  8  2  0  0  0
  2  9  1  0  0  0
 17 18  1  0  0  0
M  END
> <minimizedAffinity>
-8.63558

$$$$
441


 36 39  0  0  0  0  0  0  0  0999 V2000
   -1.8718    8.2917  -13.8246 C   0  0  0  0  0  0  0  0  0  0  0  0
   -1.0563    9.3621  -13.8531 N   0  0  0  0  0  0  0  0  0  0  0  0
    0.1522    9.2780  -13.3216 C   0  0  0  0  0  0  0  0  0  0  0  0
    1.1285   10.1903  -13.2276 N   0  0  0  0  0  0  0  0  0  0  0  0
    2.1475    9.5701  -12.5900 C   0  0  0  0  0  0  0  0  0  0  0  0
    1.8099    8.3103  -12.2991 N   0  0  0  0  0  0  0  0  0  0  0  0
    0.5709    8.0770  -12.7361 C   0  0  0  0  0  0  0  0  0  0  0  0
   -0.2613    6.9736  -12.7032 C   0  0  0  0  0  0  0  0  0  0  0  0
   -1.4689    7.1174  -13.2555 N   0  0  0  0  0  0  0  0  0  0  0  0
    0.2049    5.8094  -12.1100 O   0  0  0  0  0  0  0  0  0  0  0  0
    1.1765    5.5597  -12.3259 H   0  0  0  0  0  0  0  0  0  0  0  0
    1.1949   11.5330  -13.6613 C   0  0  0  0  0  0  0  0  0  0  0  0
    2.3542   12.1734  -13.2042 O   0  0  0  0  0  0  0  0  0  0  0  0
    1.8976   12.8709  -12.0889 C   0  0  0  0  0  0  0  0  0  0  0  0
    0.6975   13.5875  -12.6899 C   0  0  0  0  0  0  0  0  0  0  0  0
    0.0395   12.3997  -13.3880 C   0  0  0  0  0  0  0  0  0  0  0  0
   -0.5945   12.8317  -14.5745 O   0  0  0  0  0  0  0  0  0  0  0  0
   -0.1057   14.1864  -11.7606 O   0  0  0  0  0  0  0  0  0  0  0  0
   -1.4256   13.2811  -14.2794 H   0  0  0  0  0  0  0  0  0  0  0  0
    0.3929   14.4794  -10.9325 H   0  0  0  0  0  0  0  0  0  0  0  0
    2.9199   13.8300  -11.5516 C   0  0  0  0  0  0  0  0  0  0  0  0
    2.4414   14.6622  -10.5764 O   0  0  0  0  0  0  0  0  0  0  0  0
    2.5801   14.2272   -9.6951 H   0  0  0  0  0  0  0  0  0  0  0  0
   -4.1921    9.1891  -13.8785 C   0  0  0  0  0  0  0  0  0  0  0  0
   -3.9631    9.9289  -12.9054 O   0  0  0  0  0  0  0  0  0  0  0  0
   -3.1826    8.3447  -14.3831 N   0  0  0  0  0  0  0  0  0  0  0  0
   -3.3774    7.7134  -15.2128 H   0  0  0  0  0  0  0  0  0  0  0  0
   -5.5252    9.1912  -14.5084 C   0  0  0  0  0  0  0  0  0  0  0  0
   -6.4583    9.9741  -13.8218 O   0  0  0  0  0  0  0  0  0  0  0  0
  -10.8038   12.9034  -16.9137 Br  0  0  0  0  0  0  0  0  0  0  0  0
   -9.4317   11.9737  -15.9445 C   0  0  0  0  0  0  0  0  0  0  0  0
   -9.0375   12.4355  -14.7081 C   0  0  0  0  0  0  0  0  0  0  0  0
   -8.0385   11.7582  -14.0034 C   0  0  0  0  0  0  0  0  0  0  0  0
   -7.4417   10.6350  -14.5246 C   0  0  0  0  0  0  0  0  0  0  0  0
   -7.8491   10.1902  -15.7580 C   0  0  0  0  0  0  0  0  0  0  0  0
   -8.8305   10.8460  -16.4641 C   0  0  0  0  0  0  0  0  0  0  0  0
 30 31  1  0  0  0
 31 32  2  0  0  0
 31 36  1  0  0  0
 32 33  1  0  0  0
 33 34  2  0  0  0
 34 35  1  0  0  0
 34 29  1  0  0  0
 35 36  2  0  0  0
 29 28  1  0  0  0
 28 24  1  0  0  0
 24 25  2  0  0  0
 24 26  1  0  0  0
 26  1  1  0  0  0
  1  2  2  0  0  0
  1  9  1  0  0  0
  2  3  1  0  0  0
  3  4  1  0  0  0
  3  7  2  0  0  0
  4  5  1  0  0  0
  4 12  1  0  0  0
  5  6  2  0  0  0
  6  7  1  0  0  0
  7  8  1  0  0  0
  8  9  2  0  0  0
  8 10  1  0  0  0
 12 13  1  0  0  0
 12 16  1  0  0  0
 13 14  1  0  0  0
 14 15  1  0  0  0
 14 21  1  0  0  0
 15 16  1  0  0  0
 15 18  1  0  0  0
 16 17  1  0  0  0
 21 22  1  0  0  0
 26 27  1  0  0  0
 10 11  1  0  0  0
 17 19  1  0  0  0
 18 20  1  0  0  0
 22 23  1  0  0  0
M  END
> <minimizedAffinity>
-9.89827

$$$$
444


 33 36  0  0  0  0  0  0  0  0999 V2000
   -0.0999    7.8003  -13.7588 N   0  0  0  0  0  0  0  0  0  0  0  0
   -1.3719    7.4348  -14.0400 C   0  0  0  0  0  0  0  0  0  0  0  0
   -2.1569    8.5653  -14.0446 C   0  0  0  0  0  0  0  0  0  0  0  0
   -1.3384    9.5584  -13.7656 N   0  0  0  0  0  0  0  0  0  0  0  0
   -0.0511    9.1293  -13.5774 C   0  0  0  0  0  0  0  0  0  0  0  0
   -3.4991    8.5609  -14.2933 N   0  0  0  0  0  0  0  0  0  0  0  0
   -4.0721    7.3829  -14.5451 C   0  0  0  0  0  0  0  0  0  0  0  0
   -5.3109    7.3601  -14.7782 O   0  0  0  0  0  0  0  0  0  0  0  0
   -3.3336    6.2652  -14.5459 N   0  0  0  0  0  0  0  0  0  0  0  0
   -2.0023    6.2381  -14.3034 C   0  0  0  0  0  0  0  0  0  0  0  0
   -1.3444    5.1876  -14.3096 O   0  0  0  0  0  0  0  0  0  0  0  0
   -4.2470    9.8187  -14.2848 C   0  0  0  0  0  0  0  0  0  0  0  0
   -3.8164    5.3649  -14.7466 H   0  0  0  0  0  0  0  0  0  0  0  0
    1.0314    9.9981  -13.1918 N   0  0  0  0  0  0  0  0  0  0  0  0
    0.8295   11.4061  -13.5996 C   0  0  0  0  0  0  0  0  0  0  0  0
    1.7529   12.3679  -12.9691 C   0  0  0  0  0  0  0  0  0  0  0  0
    3.0736   11.8354  -12.7455 N   0  0  0  0  0  0  0  0  0  0  0  0
    2.9156   10.7610  -11.8172 C   0  0  0  0  0  0  0  0  0  0  0  0
    2.1641    9.5856  -12.4413 C   0  0  0  0  0  0  0  0  0  0  0  0
    3.7476   11.5055  -13.9578 C   0  0  0  0  0  0  0  0  0  0  0  0
    1.0476    6.9201  -13.7158 C   0  0  0  0  0  0  0  0  0  0  0  0
    1.1280    6.0205  -12.5171 C   0  0  0  0  0  0  0  0  0  0  0  0
    0.6505    6.6435  -11.3554 O   0  0  0  0  0  0  0  0  0  0  0  0
    0.3596    5.9297  -10.7010 H   0  0  0  0  0  0  0  0  0  0  0  0
    2.4691    5.4407  -12.1965 C   0  0  0  0  0  0  0  0  0  0  0  0
    3.4789    5.9252  -12.8881 O   0  0  0  0  0  0  0  0  0  0  0  0
    9.2655    6.4411  -14.3552 Br  0  0  0  0  0  0  0  0  0  0  0  0
    7.4301    6.2827  -13.8910 C   0  0  0  0  0  0  0  0  0  0  0  0
    6.5947    7.3421  -14.1221 C   0  0  0  0  0  0  0  0  0  0  0  0
    5.2628    7.2317  -13.7869 C   0  0  0  0  0  0  0  0  0  0  0  0
    4.7357    6.0867  -13.2242 C   0  0  0  0  0  0  0  0  0  0  0  0
    5.6242    5.0114  -12.9971 C   0  0  0  0  0  0  0  0  0  0  0  0
    6.9330    5.1247  -13.3284 C   0  0  0  0  0  0  0  0  0  0  0  0
 27 28  1  0  0  0
 28 29  2  0  0  0
 28 33  1  0  0  0
 29 30  1  0  0  0
 30 31  2  0  0  0
 31 32  1  0  0  0
 31 26  1  0  0  0
 32 33  2  0  0  0
 26 25  1  0  0  0
 25 22  1  0  0  0
 22 23  1  0  0  0
 22 21  1  0  0  0
 21  1  1  0  0  0
  1  2  1  0  0  0
  1  5  1  0  0  0
  2  3  2  0  0  0
  2 10  1  0  0  0
  3  4  1  0  0  0
  3  6  1  0  0  0
  4  5  2  0  0  0
  5 14  1  0  0  0
 14 15  1  0  0  0
 14 19  1  0  0  0
 15 16  1  0  0  0
 16 17  1  0  0  0
 17 18  1  0  0  0
 17 20  1  0  0  0
 18 19  1  0  0  0
  6  7  1  0  0  0
  6 12  1  0  0  0
  7  8  2  0  0  0
  7  9  1  0  0  0
  9 10  1  0  0  0
 10 11  2  0  0  0
 23 24  1  0  0  0
  9 13  1  0  0  0
M  END
> <minimizedAffinity>
-8.51693

$$$$
454


 21 25  0  0  0  0  0  0  0  0999 V2000
   -0.0821    9.1632  -12.8787 C   0  0  0  0  0  0  0  0  0  0  0  0
   -1.5070   11.9530  -13.1997 Br  0  0  0  0  0  0  0  0  0  0  0  0
   -2.1350   10.2188  -13.7083 C   0  0  0  0  0  0  0  0  0  0  0  0
   -3.4049   10.0626  -14.2321 C   0  0  0  0  0  0  0  0  0  0  0  0
   -3.8745    8.8174  -14.5981 C   0  0  0  0  0  0  0  0  0  0  0  0
   -3.1523    7.6543  -14.4728 C   0  0  0  0  0  0  0  0  0  0  0  0
   -1.8973    7.8156  -13.9524 C   0  0  0  0  0  0  0  0  0  0  0  0
   -1.3684    9.0495  -13.5670 C   0  0  0  0  0  0  0  0  0  0  0  0
   -3.9920    6.6551  -14.9376 O   0  0  0  0  0  0  0  0  0  0  0  0
   -5.3618    7.0945  -14.7216 C   0  0  0  0  0  0  0  0  0  0  0  0
   -5.1477    8.4740  -15.1472 O   0  0  0  0  0  0  0  0  0  0  0  0
    1.1129    9.2129  -13.6119 N   0  0  0  0  0  0  0  0  0  0  0  0
    2.0966    8.7265  -12.5786 C   0  0  0  0  0  0  0  0  0  0  0  0
    3.4428    8.9390  -12.9051 N   0  0  0  0  0  0  0  0  0  0  0  0
    3.6107   10.3617  -13.1450 C   0  0  0  0  0  0  0  0  0  0  0  0
    2.8260   10.6939  -14.3082 N   0  0  0  0  0  0  0  0  0  0  0  0
    1.4286   10.5730  -14.0446 C   0  0  0  0  0  0  0  0  0  0  0  0
    3.1453    9.8789  -15.4861 C   0  0  0  0  0  0  0  0  0  0  0  0
    2.8059    8.5045  -15.1551 N   0  0  0  0  0  0  0  0  0  0  0  0
    1.3917    8.3822  -14.7416 C   0  0  0  0  0  0  0  0  0  0  0  0
    3.7071    8.1216  -14.0948 C   0  0  0  0  0  0  0  0  0  0  0  0
  2  3  1  0  0  0
  3  4  2  0  0  0
  3  8  1  0  0  0
  4  5  1  0  0  0
  5  6  2  0  0  0
  5 11  1  0  0  0
  6  7  1  0  0  0
  6  9  1  0  0  0
  7  8  2  0  0  0
  8  1  1  0  0  0
  1 12  1  0  0  0
 12 13  1  0  0  0
 12 17  1  0  0  0
 12 20  1  0  0  0
 13 14  1  0  0  0
 14 15  1  0  0  0
 14 21  1  0  0  0
 15 16  1  0  0  0
 16 17  1  0  0  0
 16 18  1  0  0  0
 18 19  1  0  0  0
 19 20  1  0  0  0
 19 21  1  0  0  0
  9 10  1  0  0  0
 10 11  1  0  0  0
M  CHG 1  12   1
M  END
> <minimizedAffinity>
-7.25424

$$$$
455


 26 29  0  0  0  0  0  0  0  0999 V2000
    2.3813   13.4288  -12.6200 N   0  0  0  0  0  0  0  0  0  0  0  0
    2.5120   13.5383  -11.1436 C   0  0  0  0  0  0  0  0  0  0  0  0
    1.7613   14.8267  -10.8238 C   0  0  0  0  0  0  0  0  0  0  0  0
    1.4410   15.6039  -11.9643 N   0  0  0  0  0  0  0  0  0  0  0  0
    2.5613   15.7986  -12.8472 C   0  0  0  0  0  0  0  0  0  0  0  0
    3.2670   14.4964  -13.0886 C   0  0  0  0  0  0  0  0  0  0  0  0
    2.8710   12.1338  -13.0503 C   0  0  0  0  0  0  0  0  0  0  0  0
    3.7531    9.2241  -13.4243 Br  0  0  0  0  0  0  0  0  0  0  0  0
    1.9481    9.8451  -13.4904 C   0  0  0  0  0  0  0  0  0  0  0  0
    0.9150    8.9628  -13.7093 C   0  0  0  0  0  0  0  0  0  0  0  0
   -0.3875    9.3936  -13.7588 C   0  0  0  0  0  0  0  0  0  0  0  0
   -0.6280   10.7268  -13.5836 C   0  0  0  0  0  0  0  0  0  0  0  0
    0.4210   11.6177  -13.3623 C   0  0  0  0  0  0  0  0  0  0  0  0
    1.7378   11.2104  -13.3080 C   0  0  0  0  0  0  0  0  0  0  0  0
   -1.9362   11.1819  -13.6298 O   0  0  0  0  0  0  0  0  0  0  0  0
   -3.0108   10.4120  -14.1034 C   0  0  0  0  0  0  0  0  0  0  0  0
   -2.7923    8.9546  -13.8514 C   0  0  0  0  0  0  0  0  0  0  0  0
   -1.4573    8.5353  -13.9761 O   0  0  0  0  0  0  0  0  0  0  0  0
    0.1915   15.3866  -12.5889 C   0  0  0  0  0  0  0  0  0  0  0  0
   -0.6956   16.5317  -12.6754 C   0  0  0  0  0  0  0  0  0  0  0  0
   -1.2400   16.8462  -13.7547 O   0  0  0  0  0  0  0  0  0  0  0  0
   -0.9721   17.3254  -11.5382 N   0  0  0  0  0  0  0  0  0  0  0  0
   -0.5511   17.1221  -10.5861 H   0  0  0  0  0  0  0  0  0  0  0  0
   -1.8573   18.4828  -11.5874 C   0  0  0  0  0  0  0  0  0  0  0  0
   -2.1346   19.2652  -10.3723 C   0  0  0  0  0  0  0  0  0  0  0  0
   -3.1815   18.3047  -10.8496 C   0  0  0  0  0  0  0  0  0  0  0  0
  8  9  1  0  0  0
  9 10  2  0  0  0
  9 14  1  0  0  0
 10 11  1  0  0  0
 11 12  2  0  0  0
 11 18  1  0  0  0
 12 13  1  0  0  0
 12 15  1  0  0  0
 13 14  2  0  0  0
 14  7  1  0  0  0
  7  1  1  0  0  0
  1  2  1  0  0  0
  1  6  1  0  0  0
  2  3  1  0  0  0
  3  4  1  0  0  0
  4  5  1  0  0  0
  4 19  1  0  0  0
  5  6  1  0  0  0
 19 20  1  0  0  0
 20 21  2  0  0  0
 20 22  1  0  0  0
 22 24  1  0  0  0
 24 25  1  0  0  0
 24 26  1  0  0  0
 25 26  1  0  0  0
 15 16  1  0  0  0
 16 17  1  0  0  0
 17 18  1  0  0  0
 22 23  1  0  0  0
M  END
> <minimizedAffinity>
-7.80231

$$$$
459


 29 32  0  0  0  0  0  0  0  0999 V2000
   -2.0409   17.6281  -12.4851 C   0  0  0  0  0  0  0  0  0  0  0  0
   -3.2138   18.0737  -13.1097 C   0  0  0  0  0  0  0  0  0  0  0  0
   -4.0844   18.9609  -12.5189 C   0  0  0  0  0  0  0  0  0  0  0  0
   -3.8299   19.4561  -11.2587 C   0  0  0  0  0  0  0  0  0  0  0  0
   -2.6811   19.0275  -10.6285 C   0  0  0  0  0  0  0  0  0  0  0  0
   -1.7964   18.1282  -11.2258 C   0  0  0  0  0  0  0  0  0  0  0  0
   -4.7473   20.4008  -10.6168 C   0  0  0  0  0  0  0  0  0  0  0  0
   -4.5341   21.1869   -9.5487 N   0  0  0  0  0  0  0  0  0  0  0  0
   -5.6450   21.8902   -9.3060 N   0  0  0  0  0  0  0  0  0  0  0  0
   -6.5567   21.5558  -10.2074 N   0  0  0  0  0  0  0  0  0  0  0  0
   -6.0090   20.6514  -11.0014 N   0  0  0  0  0  0  0  0  0  0  0  0
   -5.8790   22.8618   -8.2581 C   0  0  0  0  0  0  0  0  0  0  0  0
   -7.3315   23.0516   -8.0520 C   0  0  0  0  0  0  0  0  0  0  0  0
   -7.8699   22.6040   -7.0269 O   0  0  0  0  0  0  0  0  0  0  0  0
   -8.0832   23.7402   -9.0283 N   0  0  0  0  0  0  0  0  0  0  0  0
   -7.8311   23.7298  -10.0556 H   0  0  0  0  0  0  0  0  0  0  0  0
   -8.9248   24.2868   -8.7473 H   0  0  0  0  0  0  0  0  0  0  0  0
   -1.2022   16.7316  -13.1237 O   0  0  0  0  0  0  0  0  0  0  0  0
   -0.0716   16.1640  -12.5331 C   0  0  0  0  0  0  0  0  0  0  0  0
    2.8040   15.2216  -12.1540 Br  0  0  0  0  0  0  0  0  0  0  0  0
    1.3260   14.1008  -12.6312 C   0  0  0  0  0  0  0  0  0  0  0  0
    1.4788   12.7499  -12.8204 C   0  0  0  0  0  0  0  0  0  0  0  0
    0.4021   11.9577  -13.1640 C   0  0  0  0  0  0  0  0  0  0  0  0
   -0.8380   12.5407  -13.3162 C   0  0  0  0  0  0  0  0  0  0  0  0
   -0.9842   13.9132  -13.1215 C   0  0  0  0  0  0  0  0  0  0  0  0
    0.0774   14.7194  -12.7796 C   0  0  0  0  0  0  0  0  0  0  0  0
   -1.7176   11.5322  -13.6564 O   0  0  0  0  0  0  0  0  0  0  0  0
   -1.1269   10.2641  -13.4312 C   0  0  0  0  0  0  0  0  0  0  0  0
    0.2453   10.5933  -13.4171 O   0  0  0  0  0  0  0  0  0  0  0  0
 20 21  1  0  0  0
 21 22  2  0  0  0
 21 26  1  0  0  0
 22 23  1  0  0  0
 23 24  2  0  0  0
 23 29  1  0  0  0
 24 25  1  0  0  0
 24 27  1  0  0  0
 25 26  2  0  0  0
 26 19  1  0  0  0
 19 18  1  0  0  0
 18  1  1  0  0  0
  1  2  2  0  0  0
  1  6  1  0  0  0
  2  3  1  0  0  0
  3  4  2  0  0  0
  4  5  1  0  0  0
  4  7  1  0  0  0
  5  6  2  0  0  0
  7  8  2  0  0  0
  7 11  1  0  0  0
  8  9  1  0  0  0
  9 10  1  0  0  0
  9 12  1  0  0  0
 10 11  2  0  0  0
 12 13  1  0  0  0
 13 14  2  0  0  0
 13 15  1  0  0  0
 27 28  1  0  0  0
 28 29  1  0  0  0
 15 16  1  0  0  0
 15 17  1  0  0  0
M  END
> <minimizedAffinity>
-9.77312

$$$$
467


 28 31  0  0  0  0  0  0  0  0999 V2000
   -1.0540   16.0895  -13.7764 N   0  0  0  0  0  0  0  0  0  0  0  0
   -1.1809   16.1886  -14.8067 H   0  0  0  0  0  0  0  0  0  0  0  0
   -0.2721   15.0191  -13.2903 C   0  0  0  0  0  0  0  0  0  0  0  0
   -0.6807   13.7824  -13.6189 N   0  0  0  0  0  0  0  0  0  0  0  0
   -0.0064   12.6616  -13.2452 C   0  0  0  0  0  0  0  0  0  0  0  0
    1.0964   12.8598  -12.5248 N   0  0  0  0  0  0  0  0  0  0  0  0
    1.5544   14.0568  -12.1665 C   0  0  0  0  0  0  0  0  0  0  0  0
    0.8392   15.1501  -12.5673 N   0  0  0  0  0  0  0  0  0  0  0  0
   -0.5060   11.4127  -13.6206 N   0  0  0  0  0  0  0  0  0  0  0  0
    0.3375   10.2415  -13.6423 C   0  0  0  0  0  0  0  0  0  0  0  0
   -0.4898    8.9737  -13.6796 C   0  0  0  0  0  0  0  0  0  0  0  0
   -1.6688    9.0181  -13.0109 O   0  0  0  0  0  0  0  0  0  0  0  0
   -2.4062   10.1607  -13.0367 C   0  0  0  0  0  0  0  0  0  0  0  0
   -1.8891   11.2389  -13.9845 C   0  0  0  0  0  0  0  0  0  0  0  0
    2.7052   14.2295  -11.4166 O   0  0  0  0  0  0  0  0  0  0  0  0
    3.7246   13.2665  -11.4373 C   0  0  0  0  0  0  0  0  0  0  0  0
   -2.7172   17.6721  -13.1414 C   0  0  0  0  0  0  0  0  0  0  0  0
   -1.6572   17.0114  -12.9441 N   0  0  0  0  0  0  0  0  0  0  0  0
   -0.8150   18.1513  -10.7414 Br  0  0  0  0  0  0  0  0  0  0  0  0
   -2.5123   18.9420  -11.0311 C   0  0  0  0  0  0  0  0  0  0  0  0
   -3.0261   19.8393  -10.1136 C   0  0  0  0  0  0  0  0  0  0  0  0
   -4.2721   20.4456  -10.2840 C   0  0  0  0  0  0  0  0  0  0  0  0
   -5.0001   20.1187  -11.4254 C   0  0  0  0  0  0  0  0  0  0  0  0
   -4.4668   19.2208  -12.3270 C   0  0  0  0  0  0  0  0  0  0  0  0
   -3.2244   18.6121  -12.1628 C   0  0  0  0  0  0  0  0  0  0  0  0
   -6.1729   20.8363  -11.3591 O   0  0  0  0  0  0  0  0  0  0  0  0
   -6.3025   21.4838  -10.1088 C   0  0  0  0  0  0  0  0  0  0  0  0
   -5.0204   21.3536   -9.5525 O   0  0  0  0  0  0  0  0  0  0  0  0
 19 20  1  0  0  0
 20 21  2  0  0  0
 20 25  1  0  0  0
 21 22  1  0  0  0
 22 23  2  0  0  0
 22 28  1  0  0  0
 23 24  1  0  0  0
 23 26  1  0  0  0
 24 25  2  0  0  0
 25 17  1  0  0  0
 17 18  2  0  0  0
 18  1  1  0  0  0
  1  3  1  0  0  0
  3  4  2  0  0  0
  3  8  1  0  0  0
  4  5  1  0  0  0
  5  6  2  0  0  0
  5  9  1  0  0  0
  6  7  1  0  0  0
  7  8  2  0  0  0
  7 15  1  0  0  0
 15 16  1  0  0  0
  9 10  1  0  0  0
  9 14  1  0  0  0
 10 11  1  0  0  0
 11 12  1  0  0  0
 12 13  1  0  0  0
 13 14  1  0  0  0
 26 27  1  0  0  0
 27 28  1  0  0  0
  1  2  1  0  0  0
M  END
> <minimizedAffinity>
-9.31369

$$$$
469


 32 36  0  0  0  0  0  0  0  0999 V2000
    2.4188    4.8960  -12.3839 C   0  0  0  0  0  0  0  0  0  0  0  0
    1.8778    6.2305  -12.4985 N   0  0  0  0  0  0  0  0  0  0  0  0
    1.1234    6.6771  -11.4262 C   0  0  0  0  0  0  0  0  0  0  0  0
    0.0219    7.6449  -11.6283 C   0  0  0  0  0  0  0  0  0  0  0  0
    0.1992    8.2942  -12.8954 N   0  0  0  0  0  0  0  0  0  0  0  0
    0.3141    7.3876  -14.0099 C   0  0  0  0  0  0  0  0  0  0  0  0
    1.6077    6.6384  -13.8220 C   0  0  0  0  0  0  0  0  0  0  0  0
    0.2687    9.6783  -13.1243 C   0  0  0  0  0  0  0  0  0  0  0  0
   -0.7778   10.4263  -13.5567 N   0  0  0  0  0  0  0  0  0  0  0  0
   -0.6808   11.7516  -13.7655 C   0  0  0  0  0  0  0  0  0  0  0  0
    0.4745   12.4054  -13.5511 N   0  0  0  0  0  0  0  0  0  0  0  0
    1.5671   11.7430  -13.1203 C   0  0  0  0  0  0  0  0  0  0  0  0
    2.8342   12.1327  -12.8274 N   0  0  0  0  0  0  0  0  0  0  0  0
    3.4768   11.0426  -12.4490 N   0  0  0  0  0  0  0  0  0  0  0  0
    2.6896    9.9651  -12.4826 C   0  0  0  0  0  0  0  0  0  0  0  0
    1.4527   10.3917  -12.9121 C   0  0  0  0  0  0  0  0  0  0  0  0
    3.3535   13.4981  -12.9229 C   0  0  0  0  0  0  0  0  0  0  0  0
    4.6766    5.9210  -12.6912 N   0  0  0  0  0  0  0  0  0  0  0  0
    3.8278    4.8199  -12.9277 C   0  0  0  0  0  0  0  0  0  0  0  0
    4.1338    3.7872  -13.5464 O   0  0  0  0  0  0  0  0  0  0  0  0
    4.2712    6.7414  -12.1401 H   0  0  0  0  0  0  0  0  0  0  0  0
    4.9709    8.2577  -14.5519 Br  0  0  0  0  0  0  0  0  0  0  0  0
    6.3456    7.0692  -14.0044 C   0  0  0  0  0  0  0  0  0  0  0  0
    7.6394    7.2055  -14.4491 C   0  0  0  0  0  0  0  0  0  0  0  0
    8.6320    6.3604  -14.0632 C   0  0  0  0  0  0  0  0  0  0  0  0
    8.3434    5.3276  -13.1980 C   0  0  0  0  0  0  0  0  0  0  0  0
    7.0334    5.1690  -12.7325 C   0  0  0  0  0  0  0  0  0  0  0  0
    6.0206    6.0275  -13.1234 C   0  0  0  0  0  0  0  0  0  0  0  0
    9.3607    4.4879  -12.8222 O   0  0  0  0  0  0  0  0  0  0  0  0
   10.5286    4.2728  -13.5763 C   0  0  0  0  0  0  0  0  0  0  0  0
   10.7053    5.2583  -14.6869 C   0  0  0  0  0  0  0  0  0  0  0  0
    9.9501    6.4605  -14.4872 O   0  0  0  0  0  0  0  0  0  0  0  0
 22 23  1  0  0  0
 23 24  2  0  0  0
 23 28  1  0  0  0
 24 25  1  0  0  0
 25 26  2  0  0  0
 25 32  1  0  0  0
 26 27  1  0  0  0
 26 29  1  0  0  0
 27 28  2  0  0  0
 28 18  1  0  0  0
 18 19  1  0  0  0
 19 20  2  0  0  0
 19  1  1  0  0  0
  1  2  1  0  0  0
  2  3  1  0  0  0
  2  7  1  0  0  0
  3  4  1  0  0  0
  4  5  1  0  0  0
  5  6  1  0  0  0
  5  8  1  0  0  0
  6  7  1  0  0  0
  8  9  2  0  0  0
  8 16  1  0  0  0
  9 10  1  0  0  0
 10 11  2  0  0  0
 11 12  1  0  0  0
 12 13  1  0  0  0
 12 16  2  0  0  0
 13 14  1  0  0  0
 13 17  1  0  0  0
 14 15  2  0  0  0
 15 16  1  0  0  0
 29 30  1  0  0  0
 30 31  1  0  0  0
 31 32  1  0  0  0
 18 21  1  0  0  0
M  END
> <minimizedAffinity>
-7.95268

$$$$
471


 27 30  0  0  0  0  0  0  0  0999 V2000
    0.6658    8.7066  -12.4167 C   0  0  0  0  0  0  0  0  0  0  0  0
    0.8185    8.3966  -11.1997 O   0  0  0  0  0  0  0  0  0  0  0  0
    1.5959    9.5680  -13.0321 N   0  0  0  0  0  0  0  0  0  0  0  0
    2.6985   10.0728  -12.2542 C   0  0  0  0  0  0  0  0  0  0  0  0
    4.0440    9.7870  -12.8868 C   0  0  0  0  0  0  0  0  0  0  0  0
    3.8835    9.7657  -14.2929 N   0  0  0  0  0  0  0  0  0  0  0  0
    2.8857   10.6524  -14.7467 C   0  0  0  0  0  0  0  0  0  0  0  0
    1.5343    9.9961  -14.4087 C   0  0  0  0  0  0  0  0  0  0  0  0
   -6.5023    9.5480  -14.9708 Br  0  0  0  0  0  0  0  0  0  0  0  0
   -4.9127    8.5132  -14.7703 C   0  0  0  0  0  0  0  0  0  0  0  0
   -3.8184    9.0338  -14.1008 C   0  0  0  0  0  0  0  0  0  0  0  0
   -2.6490    8.3050  -13.9393 C   0  0  0  0  0  0  0  0  0  0  0  0
   -2.6435    7.0352  -14.4834 C   0  0  0  0  0  0  0  0  0  0  0  0
   -3.7135    6.4941  -15.1529 C   0  0  0  0  0  0  0  0  0  0  0  0
   -4.8598    7.2371  -15.2982 C   0  0  0  0  0  0  0  0  0  0  0  0
   -1.4800    6.3043  -14.3259 C   0  0  0  0  0  0  0  0  0  0  0  0
   -1.4079    5.1247  -14.8050 O   0  0  0  0  0  0  0  0  0  0  0  0
   -0.4212    6.8732  -13.6500 C   0  0  0  0  0  0  0  0  0  0  0  0
   -0.4885    8.1441  -13.1286 C   0  0  0  0  0  0  0  0  0  0  0  0
   -1.6113    8.7944  -13.3056 O   0  0  0  0  0  0  0  0  0  0  0  0
    3.9960    8.5184  -14.9355 C   0  0  0  0  0  0  0  0  0  0  0  0
    4.9378    7.5783  -14.3343 C   0  0  0  0  0  0  0  0  0  0  0  0
    6.2692    7.5896  -14.5098 N   0  0  0  0  0  0  0  0  0  0  0  0
    6.7526    6.6151  -13.8252 O   0  0  0  0  0  0  0  0  0  0  0  0
    5.8089    5.9551  -13.2014 N   0  0  0  0  0  0  0  0  0  0  0  0
    4.6280    6.5394  -13.5004 C   0  0  0  0  0  0  0  0  0  0  0  0
    3.2755    6.1287  -13.0174 C   0  0  0  0  0  0  0  0  0  0  0  0
  9 10  1  0  0  0
 10 11  2  0  0  0
 10 15  1  0  0  0
 11 12  1  0  0  0
 12 13  2  0  0  0
 12 20  1  0  0  0
 13 14  1  0  0  0
 13 16  1  0  0  0
 14 15  2  0  0  0
 16 17  2  0  0  0
 16 18  1  0  0  0
 18 19  2  0  0  0
 19 20  1  0  0  0
 19  1  1  0  0  0
  1  2  2  0  0  0
  1  3  1  0  0  0
  3  4  1  0  0  0
  3  8  1  0  0  0
  4  5  1  0  0  0
  5  6  1  0  0  0
  6  7  1  0  0  0
  6 21  1  0  0  0
  7  8  1  0  0  0
 21 22  1  0  0  0
 22 23  2  0  0  0
 22 26  1  0  0  0
 23 24  1  0  0  0
 24 25  1  0  0  0
 25 26  2  0  0  0
 26 27  1  0  0  0
M  END
> <minimizedAffinity>
-7.60938

$$$$
473


 29 32  0  0  0  0  0  0  0  0999 V2000
   -0.1110   14.3335  -12.7947 C   0  0  0  0  0  0  0  0  0  0  0  0
    1.0891   13.6581  -12.2502 C   0  0  0  0  0  0  0  0  0  0  0  0
    1.6362   13.9789  -11.1632 O   0  0  0  0  0  0  0  0  0  0  0  0
    1.7017   12.5674  -12.9659 N   0  0  0  0  0  0  0  0  0  0  0  0
    2.8717   11.9007  -12.4421 C   0  0  0  0  0  0  0  0  0  0  0  0
    2.8085   10.4138  -12.5493 C   0  0  0  0  0  0  0  0  0  0  0  0
    1.6022    9.9121  -13.1634 N   0  0  0  0  0  0  0  0  0  0  0  0
    0.8264   10.6247  -14.1429 C   0  0  0  0  0  0  0  0  0  0  0  0
    1.1820   12.0886  -14.2329 C   0  0  0  0  0  0  0  0  0  0  0  0
    1.1466    8.6136  -12.7705 C   0  0  0  0  0  0  0  0  0  0  0  0
    0.5068    7.7885  -13.6428 N   0  0  0  0  0  0  0  0  0  0  0  0
    0.0675    6.5738  -13.3172 C   0  0  0  0  0  0  0  0  0  0  0  0
    0.2664    6.1152  -12.0236 C   0  0  0  0  0  0  0  0  0  0  0  0
    0.9005    6.9116  -11.1295 N   0  0  0  0  0  0  0  0  0  0  0  0
    1.3292    8.1305  -11.4950 C   0  0  0  0  0  0  0  0  0  0  0  0
    0.0668   15.8039  -13.0475 C   0  0  0  0  0  0  0  0  0  0  0  0
   -1.1222   16.3407  -13.7542 C   0  0  0  0  0  0  0  0  0  0  0  0
   -6.1848   21.3447  -10.3823 Br  0  0  0  0  0  0  0  0  0  0  0  0
   -4.6246   20.3000  -10.7203 C   0  0  0  0  0  0  0  0  0  0  0  0
   -4.5916   19.4896  -11.8371 C   0  0  0  0  0  0  0  0  0  0  0  0
   -3.4848   18.7137  -12.1283 C   0  0  0  0  0  0  0  0  0  0  0  0
   -2.4118   18.7760  -11.2608 C   0  0  0  0  0  0  0  0  0  0  0  0
   -2.4559   19.5898  -10.1472 C   0  0  0  0  0  0  0  0  0  0  0  0
   -3.5565   20.3678   -9.8504 C   0  0  0  0  0  0  0  0  0  0  0  0
   -1.3909   17.8823  -11.7789 C   0  0  0  0  0  0  0  0  0  0  0  0
   -0.2623   17.6972  -11.2198 O   0  0  0  0  0  0  0  0  0  0  0  0
   -1.8831   17.2895  -12.9715 N   0  0  0  0  0  0  0  0  0  0  0  0
   -3.1774   17.7782  -13.2209 C   0  0  0  0  0  0  0  0  0  0  0  0
   -3.9456   17.4935  -14.1803 O   0  0  0  0  0  0  0  0  0  0  0  0
 18 19  1  0  0  0
 19 20  2  0  0  0
 19 24  1  0  0  0
 20 21  1  0  0  0
 21 22  2  0  0  0
 21 28  1  0  0  0
 22 23  1  0  0  0
 22 25  1  0  0  0
 23 24  2  0  0  0
 25 26  2  0  0  0
 25 27  1  0  0  0
 27 28  1  0  0  0
 27 17  1  0  0  0
 28 29  2  0  0  0
 17 16  1  0  0  0
 16  1  1  0  0  0
  1  2  1  0  0  0
  2  3  2  0  0  0
  2  4  1  0  0  0
  4  5  1  0  0  0
  4  9  1  0  0  0
  5  6  1  0  0  0
  6  7  1  0  0  0
  7  8  1  0  0  0
  7 10  1  0  0  0
  8  9  1  0  0  0
 10 11  2  0  0  0
 10 15  1  0  0  0
 11 12  1  0  0  0
 12 13  2  0  0  0
 13 14  1  0  0  0
 14 15  2  0  0  0
M  END
> <minimizedAffinity>
-10.28540

$$$$
483


 31 34  0  0  0  0  0  0  0  0999 V2000
   -0.0336   14.7477  -12.5260 N   0  0  0  0  0  0  0  0  0  0  0  0
   -0.3634   15.8010  -13.4140 C   0  0  0  0  0  0  0  0  0  0  0  0
    0.5340   16.2940  -14.1350 O   0  0  0  0  0  0  0  0  0  0  0  0
   -0.7756   14.3435  -11.9199 H   0  0  0  0  0  0  0  0  0  0  0  0
   -3.3151   10.7371  -13.9037 Br  0  0  0  0  0  0  0  0  0  0  0  0
   -1.4400   10.7448  -13.5924 C   0  0  0  0  0  0  0  0  0  0  0  0
   -0.7573   11.9140  -13.2363 C   0  0  0  0  0  0  0  0  0  0  0  0
    0.6025   11.9252  -13.0093 C   0  0  0  0  0  0  0  0  0  0  0  0
    1.3248   10.7328  -13.1387 C   0  0  0  0  0  0  0  0  0  0  0  0
    0.6374    9.5809  -13.4915 C   0  0  0  0  0  0  0  0  0  0  0  0
   -0.7191    9.5897  -13.7142 C   0  0  0  0  0  0  0  0  0  0  0  0
    2.7037   10.9542  -12.8646 N   0  0  0  0  0  0  0  0  0  0  0  0
    2.8464   12.3316  -12.5542 C   0  0  0  0  0  0  0  0  0  0  0  0
    3.8789   12.9882  -12.2464 O   0  0  0  0  0  0  0  0  0  0  0  0
    1.5238   12.9882  -12.6353 C   0  0  0  0  0  0  0  0  0  0  0  0
    1.2601   14.2312  -12.4198 N   0  0  0  0  0  0  0  0  0  0  0  0
    3.8105   10.0187  -12.8764 C   0  0  0  0  0  0  0  0  0  0  0  0
    3.8074    9.2426  -14.1063 C   0  0  0  0  0  0  0  0  0  0  0  0
    3.8191    8.5927  -15.1191 C   0  0  0  0  0  0  0  0  0  0  0  0
   -1.7286   16.3020  -13.4845 C   0  0  0  0  0  0  0  0  0  0  0  0
   -2.0109   17.3245  -12.4954 N   0  0  0  0  0  0  0  0  0  0  0  0
   -1.2034   17.7609  -11.5441 N   0  0  0  0  0  0  0  0  0  0  0  0
   -1.8000   18.7004  -10.8287 N   0  0  0  0  0  0  0  0  0  0  0  0
   -3.0343   18.8810  -11.3288 C   0  0  0  0  0  0  0  0  0  0  0  0
   -3.1296   18.0209  -12.3511 N   0  0  0  0  0  0  0  0  0  0  0  0
   -4.0222   19.8296  -10.8248 C   0  0  0  0  0  0  0  0  0  0  0  0
   -5.2342   19.9711  -11.4658 C   0  0  0  0  0  0  0  0  0  0  0  0
   -6.1823   20.8778  -10.9862 C   0  0  0  0  0  0  0  0  0  0  0  0
   -5.9432   21.6507   -9.8727 C   0  0  0  0  0  0  0  0  0  0  0  0
   -4.7273   21.5100   -9.2269 C   0  0  0  0  0  0  0  0  0  0  0  0
   -3.7907   20.6066   -9.7105 C   0  0  0  0  0  0  0  0  0  0  0  0
  5  6  1  0  0  0
  6  7  2  0  0  0
  6 11  1  0  0  0
  7  8  1  0  0  0
  8  9  2  0  0  0
  8 15  1  0  0  0
  9 10  1  0  0  0
  9 12  1  0  0  0
 10 11  2  0  0  0
 12 13  1  0  0  0
 12 17  1  0  0  0
 13 14  2  0  0  0
 13 15  1  0  0  0
 15 16  2  0  0  0
 16  1  1  0  0  0
  1  2  1  0  0  0
  2  3  2  0  0  0
  2 20  1  0  0  0
 20 21  1  0  0  0
 21 22  1  0  0  0
 21 25  1  0  0  0
 22 23  2  0  0  0
 23 24  1  0  0  0
 24 25  2  0  0  0
 24 26  1  0  0  0
 26 27  2  0  0  0
 26 31  1  0  0  0
 27 28  1  0  0  0
 28 29  2  0  0  0
 29 30  1  0  0  0
 30 31  2  0  0  0
 17 18  1  0  0  0
 18 19  3  0  0  0
  1  4  1  0  0  0
M  END
> <minimizedAffinity>
-10.39055

$$$$
484


 35 38  0  0  0  0  0  0  0  0999 V2000
   -0.4383   12.9614  -13.8393 Br  0  0  0  0  0  0  0  0  0  0  0  0
    0.3081   11.2325  -13.5226 C   0  0  0  0  0  0  0  0  0  0  0  0
   -0.4018   10.0601  -13.8215 C   0  0  0  0  0  0  0  0  0  0  0  0
    0.2342    8.8805  -13.5617 C   0  0  0  0  0  0  0  0  0  0  0  0
    1.5039    8.7850  -13.0312 C   0  0  0  0  0  0  0  0  0  0  0  0
    2.1956    9.9370  -12.7337 C   0  0  0  0  0  0  0  0  0  0  0  0
    1.5781   11.1696  -12.9923 C   0  0  0  0  0  0  0  0  0  0  0  0
    1.9112    7.4326  -12.8681 N   0  0  0  0  0  0  0  0  0  0  0  0
    0.7989    6.6207  -13.3269 C   0  0  0  0  0  0  0  0  0  0  0  0
    0.7833    5.3727  -13.3538 O   0  0  0  0  0  0  0  0  0  0  0  0
   -0.2362    7.5423  -13.7398 C   0  0  0  0  0  0  0  0  0  0  0  0
   -1.4451    7.2869  -14.0626 N   0  0  0  0  0  0  0  0  0  0  0  0
   -2.5038    7.7063  -14.3158 N   0  0  0  0  0  0  0  0  0  0  0  0
   -3.7901    8.1977  -14.6345 C   0  0  0  0  0  0  0  0  0  0  0  0
   -4.6981    7.7482  -15.2970 O   0  0  0  0  0  0  0  0  0  0  0  0
   -2.7815    6.6648  -15.1914 H   0  0  0  0  0  0  0  0  0  0  0  0
   -3.9791    9.5860  -13.9817 C   0  0  0  0  0  0  0  0  0  0  0  0
   -5.3130    9.5318  -13.4317 O   0  0  0  0  0  0  0  0  0  0  0  0
   -6.3145   10.1151  -14.2594 N   0  0  0  0  0  0  0  0  0  0  0  0
   -7.1939   10.9067  -13.7829 C   0  0  0  0  0  0  0  0  0  0  0  0
   -8.2095   11.4730  -14.6405 C   0  0  0  0  0  0  0  0  0  0  0  0
   -9.0361   12.4949  -14.3128 C   0  0  0  0  0  0  0  0  0  0  0  0
  -10.0160   12.8494  -15.2752 C   0  0  0  0  0  0  0  0  0  0  0  0
  -10.2022   12.2942  -16.4711 C   0  0  0  0  0  0  0  0  0  0  0  0
   -9.3494   11.2818  -16.7533 C   0  0  0  0  0  0  0  0  0  0  0  0
   -8.3704   10.7965  -15.9725 C   0  0  0  0  0  0  0  0  0  0  0  0
  -11.2096   12.7520  -17.3277 O   0  0  0  0  0  0  0  0  0  0  0  0
  -11.7329   14.0685  -17.1942 C   0  0  0  0  0  0  0  0  0  0  0  0
    3.1573    6.8369  -12.4143 C   0  0  0  0  0  0  0  0  0  0  0  0
    3.9993    6.5328  -13.4636 N   0  0  0  0  0  0  0  0  0  0  0  0
    4.6783    7.6605  -13.9590 C   0  0  0  0  0  0  0  0  0  0  0  0
    6.1525    7.3151  -14.1829 C   0  0  0  0  0  0  0  0  0  0  0  0
    6.5466    6.7581  -12.9356 O   0  0  0  0  0  0  0  0  0  0  0  0
    6.0455    5.4529  -12.8395 C   0  0  0  0  0  0  0  0  0  0  0  0
    4.6711    5.2971  -13.4122 C   0  0  0  0  0  0  0  0  0  0  0  0
  1  2  1  0  0  0
  2  3  2  0  0  0
  2  7  1  0  0  0
  3  4  1  0  0  0
  4  5  2  0  0  0
  4 11  1  0  0  0
  5  6  1  0  0  0
  5  8  1  0  0  0
  6  7  2  0  0  0
  8  9  1  0  0  0
  8 29  1  0  0  0
  9 10  2  0  0  0
  9 11  1  0  0  0
 11 12  2  0  0  0
 12 13  1  0  0  0
 13 14  1  0  0  0
 14 15  2  0  0  0
 14 17  1  0  0  0
 17 18  1  0  0  0
 18 19  1  0  0  0
 19 20  2  0  0  0
 20 21  1  0  0  0
 21 22  2  0  0  0
 21 26  1  0  0  0
 22 23  1  0  0  0
 23 24  2  0  0  0
 24 25  1  0  0  0
 24 27  1  0  0  0
 25 26  2  0  0  0
 27 28  1  0  0  0
 29 30  1  0  0  0
 30 31  1  0  0  0
 30 35  1  0  0  0
 31 32  1  0  0  0
 32 33  1  0  0  0
 33 34  1  0  0  0
 34 35  1  0  0  0
 13 16  1  0  0  0
M  END
> <minimizedAffinity>
-9.82496

$$$$
485


 34 37  0  0  0  0  0  0  0  0999 V2000
    6.3973    4.1147  -13.5033 Br  0  0  0  0  0  0  0  0  0  0  0  0
    4.7544    5.0638  -13.1946 C   0  0  0  0  0  0  0  0  0  0  0  0
    4.6530    6.4171  -13.4206 C   0  0  0  0  0  0  0  0  0  0  0  0
    3.4876    7.1466  -13.2113 C   0  0  0  0  0  0  0  0  0  0  0  0
    2.3586    6.4660  -12.7462 C   0  0  0  0  0  0  0  0  0  0  0  0
    2.4598    5.1085  -12.5197 C   0  0  0  0  0  0  0  0  0  0  0  0
    3.6374    4.3983  -12.7363 C   0  0  0  0  0  0  0  0  0  0  0  0
    1.2633    7.3800  -12.5952 N   0  0  0  0  0  0  0  0  0  0  0  0
    1.7449    8.6603  -12.9812 C   0  0  0  0  0  0  0  0  0  0  0  0
    1.0735    9.7159  -12.9828 O   0  0  0  0  0  0  0  0  0  0  0  0
    3.1364    8.5452  -13.3732 C   0  0  0  0  0  0  0  0  0  0  0  0
    3.9112    9.4855  -13.7821 N   0  0  0  0  0  0  0  0  0  0  0  0
    3.5014   10.8073  -13.9113 N   0  0  0  0  0  0  0  0  0  0  0  0
    3.7943   11.7352  -12.8904 C   0  0  0  0  0  0  0  0  0  0  0  0
    4.4344   11.3919  -11.8369 O   0  0  0  0  0  0  0  0  0  0  0  0
    2.9856   11.0996  -14.7530 H   0  0  0  0  0  0  0  0  0  0  0  0
    3.3960   13.1641  -12.9466 C   0  0  0  0  0  0  0  0  0  0  0  0
    2.4133   13.4394  -11.9492 O   0  0  0  0  0  0  0  0  0  0  0  0
    1.4281   14.3814  -12.1928 C   0  0  0  0  0  0  0  0  0  0  0  0
    0.2703   14.0190  -12.8477 C   0  0  0  0  0  0  0  0  0  0  0  0
   -0.7154   14.9710  -13.0890 C   0  0  0  0  0  0  0  0  0  0  0  0
   -0.5427   16.2789  -12.6783 C   0  0  0  0  0  0  0  0  0  0  0  0
    0.6078   16.6221  -12.0322 C   0  0  0  0  0  0  0  0  0  0  0  0
    1.5884   15.6736  -11.7925 C   0  0  0  0  0  0  0  0  0  0  0  0
    0.0680   12.7291  -13.2687 O   0  0  0  0  0  0  0  0  0  0  0  0
   -1.2232   12.1748  -13.2798 C   0  0  0  0  0  0  0  0  0  0  0  0
   -0.0657    7.0150  -12.1344 C   0  0  0  0  0  0  0  0  0  0  0  0
   -1.0917    7.1431  -13.1057 N   0  0  0  0  0  0  0  0  0  0  0  0
   -1.6604    8.4401  -13.2434 C   0  0  0  0  0  0  0  0  0  0  0  0
   -2.8086    8.4582  -14.2566 C   0  0  0  0  0  0  0  0  0  0  0  0
   -3.1519    7.0901  -14.5191 N   0  0  0  0  0  0  0  0  0  0  0  0
   -2.1163    6.3715  -15.1947 C   0  0  0  0  0  0  0  0  0  0  0  0
   -0.8624    6.4542  -14.3429 C   0  0  0  0  0  0  0  0  0  0  0  0
   -4.4612    6.9156  -15.0789 C   0  0  0  0  0  0  0  0  0  0  0  0
  1  2  1  0  0  0
  2  3  2  0  0  0
  2  7  1  0  0  0
  3  4  1  0  0  0
  4  5  2  0  0  0
  4 11  1  0  0  0
  5  6  1  0  0  0
  5  8  1  0  0  0
  6  7  2  0  0  0
  8  9  1  0  0  0
  8 27  1  0  0  0
  9 10  2  0  0  0
  9 11  1  0  0  0
 11 12  2  0  0  0
 12 13  1  0  0  0
 13 14  1  0  0  0
 14 15  2  0  0  0
 14 17  1  0  0  0
 17 18  1  0  0  0
 18 19  1  0  0  0
 19 20  2  0  0  0
 19 24  1  0  0  0
 20 21  1  0  0  0
 20 25  1  0  0  0
 21 22  2  0  0  0
 22 23  1  0  0  0
 23 24  2  0  0  0
 25 26  1  0  0  0
 27 28  1  0  0  0
 28 29  1  0  0  0
 28 33  1  0  0  0
 29 30  1  0  0  0
 30 31  1  0  0  0
 31 32  1  0  0  0
 31 34  1  0  0  0
 32 33  1  0  0  0
 13 16  1  0  0  0
M  END
> <minimizedAffinity>
-8.58294

$$$$
500


 32 35  0  0  0  0  0  0  0  0999 V2000
    4.9208   12.4222  -11.1556 Br  0  0  0  0  0  0  0  0  0  0  0  0
    4.0362   11.4348  -12.5519 C   0  0  0  0  0  0  0  0  0  0  0  0
    3.1261   10.4462  -12.3143 C   0  0  0  0  0  0  0  0  0  0  0  0
    2.5409    9.7454  -13.3372 C   0  0  0  0  0  0  0  0  0  0  0  0
    2.9042   10.0770  -14.6117 C   0  0  0  0  0  0  0  0  0  0  0  0
    3.8335   11.0894  -14.8834 C   0  0  0  0  0  0  0  0  0  0  0  0
    4.4169   11.7869  -13.8457 C   0  0  0  0  0  0  0  0  0  0  0  0
    2.2584    9.2517  -15.5615 N   0  0  0  0  0  0  0  0  0  0  0  0
    1.4539    8.3584  -14.8577 C   0  0  0  0  0  0  0  0  0  0  0  0
    0.7539    7.4671  -15.4059 O   0  0  0  0  0  0  0  0  0  0  0  0
    1.5675    8.6399  -13.3792 C   0  0  0  0  0  0  0  0  0  0  0  0
    0.2104    8.9436  -12.9526 C   0  0  0  0  0  0  0  0  0  0  0  0
   -0.4418    8.1086  -12.0976 C   0  0  0  0  0  0  0  0  0  0  0  0
   -1.6771    8.6466  -11.8957 N   0  0  0  0  0  0  0  0  0  0  0  0
   -1.7866    9.7519  -12.5864 N   0  0  0  0  0  0  0  0  0  0  0  0
   -0.6495   10.0060  -13.2742 C   0  0  0  0  0  0  0  0  0  0  0  0
    0.1419    6.9337  -11.5828 O   0  0  0  0  0  0  0  0  0  0  0  0
    1.4312    6.6511  -11.9904 C   0  0  0  0  0  0  0  0  0  0  0  0
    2.1021    7.4119  -12.8086 C   0  0  0  0  0  0  0  0  0  0  0  0
    2.0329    5.4442  -11.4638 N   0  0  0  0  0  0  0  0  0  0  0  0
    2.4074    9.3269  -17.0291 C   0  0  0  0  0  0  0  0  0  0  0  0
   -2.6290   10.3955  -12.6338 H   0  0  0  0  0  0  0  0  0  0  0  0
    1.6936    4.9595  -10.6149 H   0  0  0  0  0  0  0  0  0  0  0  0
    2.8432    5.0531  -11.9702 H   0  0  0  0  0  0  0  0  0  0  0  0
    3.4638    7.0215  -13.1866 C   0  0  0  0  0  0  0  0  0  0  0  0
    4.5250    6.7248  -13.5003 N   0  0  0  0  0  0  0  0  0  0  0  0
   -0.4246   11.1894  -14.1427 C   0  0  0  0  0  0  0  0  0  0  0  0
   -0.3481   12.4362  -13.3504 C   0  0  0  0  0  0  0  0  0  0  0  0
   -1.3235   13.0156  -12.8078 O   0  0  0  0  0  0  0  0  0  0  0  0
    0.8943   13.0094  -13.1939 O   0  0  0  0  0  0  0  0  0  0  0  0
    1.3003   13.8378  -12.1371 C   0  0  0  0  0  0  0  0  0  0  0  0
    2.3347   14.8221  -12.6301 C   0  0  0  0  0  0  0  0  0  0  0  0
  1  2  1  0  0  0
  2  3  2  0  0  0
  2  7  1  0  0  0
  3  4  1  0  0  0
  4  5  2  0  0  0
  4 11  1  0  0  0
  5  6  1  0  0  0
  5  8  1  0  0  0
  6  7  2  0  0  0
  8  9  1  0  0  0
  8 21  1  0  0  0
  9 10  2  0  0  0
  9 11  1  0  0  0
 11 12  1  0  0  0
 11 19  1  0  0  0
 12 13  1  0  0  0
 12 16  2  0  0  0
 13 14  2  0  0  0
 13 17  1  0  0  0
 14 15  1  0  0  0
 15 16  1  0  0  0
 16 27  1  0  0  0
 27 28  1  0  0  0
 28 29  2  0  0  0
 28 30  1  0  0  0
 30 31  1  0  0  0
 31 32  1  0  0  0
 17 18  1  0  0  0
 18 19  2  0  0  0
 18 20  1  0  0  0
 19 25  1  0  0  0
 25 26  3  0  0  0
 15 22  1  0  0  0
 20 23  1  0  0  0
 20 24  1  0  0  0
M  END
> <minimizedAffinity>
-1.00726

$$$$
502


 27 30  0  0  0  0  0  0  0  0999 V2000
   -6.8750   21.9196   -9.7024 Br  0  0  0  0  0  0  0  0  0  0  0  0
   -6.9437   23.2315   -8.2922 C   0  0  0  0  0  0  0  0  0  0  0  0
   -8.0746   23.9723   -8.0707 C   0  0  0  0  0  0  0  0  0  0  0  0
   -8.1005   24.9049   -7.0551 C   0  0  0  0  0  0  0  0  0  0  0  0
   -6.9700   25.0513   -6.2977 C   0  0  0  0  0  0  0  0  0  0  0  0
   -5.8073   24.2880   -6.5267 C   0  0  0  0  0  0  0  0  0  0  0  0
   -5.7995   23.3662   -7.5394 C   0  0  0  0  0  0  0  0  0  0  0  0
   -7.1503   26.0464   -5.2946 N   0  0  0  0  0  0  0  0  0  0  0  0
   -8.4496   26.5538   -5.4202 C   0  0  0  0  0  0  0  0  0  0  0  0
   -8.9543   27.4592   -4.6881 O   0  0  0  0  0  0  0  0  0  0  0  0
   -9.1336   25.8475   -6.5602 C   0  0  0  0  0  0  0  0  0  0  0  0
  -10.2896   25.1759   -5.9776 C   0  0  0  0  0  0  0  0  0  0  0  0
  -11.5572   25.5116   -6.3390 C   0  0  0  0  0  0  0  0  0  0  0  0
  -12.3938   24.7062   -5.6203 N   0  0  0  0  0  0  0  0  0  0  0  0
  -11.6967   23.9033   -4.8440 N   0  0  0  0  0  0  0  0  0  0  0  0
  -10.4028   24.1554   -5.0292 C   0  0  0  0  0  0  0  0  0  0  0  0
   -9.2125   23.5155   -4.3862 C   0  0  0  0  0  0  0  0  0  0  0  0
  -11.8381   26.5077   -7.2806 O   0  0  0  0  0  0  0  0  0  0  0  0
  -10.7329   27.1464   -7.8336 C   0  0  0  0  0  0  0  0  0  0  0  0
   -9.4928   26.8685   -7.5266 C   0  0  0  0  0  0  0  0  0  0  0  0
  -10.9625   28.1922   -8.8196 N   0  0  0  0  0  0  0  0  0  0  0  0
   -6.1571   26.4756   -4.2983 C   0  0  0  0  0  0  0  0  0  0  0  0
  -12.0483   23.1713   -4.1743 H   0  0  0  0  0  0  0  0  0  0  0  0
  -11.0783   29.1456   -8.4219 H   0  0  0  0  0  0  0  0  0  0  0  0
  -11.0095   28.0190   -9.8216 H   0  0  0  0  0  0  0  0  0  0  0  0
   -8.4471   27.6468   -8.2133 C   0  0  0  0  0  0  0  0  0  0  0  0
   -7.6061   28.2442   -8.7608 N   0  0  0  0  0  0  0  0  0  0  0  0
  1  2  1  0  0  0
  2  3  2  0  0  0
  2  7  1  0  0  0
  3  4  1  0  0  0
  4  5  2  0  0  0
  4 11  1  0  0  0
  5  6  1  0  0  0
  5  8  1  0  0  0
  6  7  2  0  0  0
  8  9  1  0  0  0
  8 22  1  0  0  0
  9 10  2  0  0  0
  9 11  1  0  0  0
 11 12  1  0  0  0
 11 20  1  0  0  0
 12 13  1  0  0  0
 12 16  2  0  0  0
 13 14  2  0  0  0
 13 18  1  0  0  0
 14 15  1  0  0  0
 15 16  1  0  0  0
 16 17  1  0  0  0
 18 19  1  0  0  0
 19 20  2  0  0  0
 19 21  1  0  0  0
 20 26  1  0  0  0
 26 27  3  0  0  0
 15 23  1  0  0  0
 21 24  1  0  0  0
 21 25  1  0  0  0
M  END
> <minimizedAffinity>
-5.00756

$$$$
504


 29 32  0  0  0  0  0  0  0  0999 V2000
   -7.1324   22.3410   -9.4285 Br  0  0  0  0  0  0  0  0  0  0  0  0
   -7.1274   23.3622   -7.8264 C   0  0  0  0  0  0  0  0  0  0  0  0
   -8.2759   23.7193   -7.1616 C   0  0  0  0  0  0  0  0  0  0  0  0
   -8.1876   24.4709   -5.9905 C   0  0  0  0  0  0  0  0  0  0  0  0
   -7.0111   24.8783   -5.4573 C   0  0  0  0  0  0  0  0  0  0  0  0
   -5.8432   24.5143   -6.1333 C   0  0  0  0  0  0  0  0  0  0  0  0
   -5.9113   23.7726   -7.2913 C   0  0  0  0  0  0  0  0  0  0  0  0
   -7.1924   25.6242   -4.2690 N   0  0  0  0  0  0  0  0  0  0  0  0
   -8.5771   25.7010   -4.0242 C   0  0  0  0  0  0  0  0  0  0  0  0
   -9.1294   26.2877   -3.0528 O   0  0  0  0  0  0  0  0  0  0  0  0
   -9.2913   24.9691   -5.1076 C   0  0  0  0  0  0  0  0  0  0  0  0
  -10.1619   25.8970   -5.8725 C   0  0  0  0  0  0  0  0  0  0  0  0
  -11.4096   25.6693   -6.0715 C   0  0  0  0  0  0  0  0  0  0  0  0
  -12.0830   24.4831   -5.5662 N   0  0  0  0  0  0  0  0  0  0  0  0
  -11.2656   23.5917   -4.8369 C   0  0  0  0  0  0  0  0  0  0  0  0
   -9.9963   23.8034   -4.6224 C   0  0  0  0  0  0  0  0  0  0  0  0
  -11.8854   22.3874   -4.3071 N   0  0  0  0  0  0  0  0  0  0  0  0
  -11.9818   26.7960   -6.8715 C   0  0  0  0  0  0  0  0  0  0  0  0
  -10.9296   27.6608   -7.0909 O   0  0  0  0  0  0  0  0  0  0  0  0
   -9.7842   27.1951   -6.5205 C   0  0  0  0  0  0  0  0  0  0  0  0
   -8.6197   27.6960   -6.4999 O   0  0  0  0  0  0  0  0  0  0  0  0
  -13.1387   27.4284   -6.1220 C   0  0  0  0  0  0  0  0  0  0  0  0
  -12.4732   26.3008   -8.2194 C   0  0  0  0  0  0  0  0  0  0  0  0
   -6.1550   26.2270   -3.4181 C   0  0  0  0  0  0  0  0  0  0  0  0
  -13.0910   24.3493   -5.7560 H   0  0  0  0  0  0  0  0  0  0  0  0
  -11.9961   22.3317   -3.2741 H   0  0  0  0  0  0  0  0  0  0  0  0
  -12.1977   21.6256   -4.9249 H   0  0  0  0  0  0  0  0  0  0  0  0
   -9.2805   22.7940   -3.8514 C   0  0  0  0  0  0  0  0  0  0  0  0
   -8.7146   21.9780   -3.2551 N   0  0  0  0  0  0  0  0  0  0  0  0
  1  2  1  0  0  0
  2  3  2  0  0  0
  2  7  1  0  0  0
  3  4  1  0  0  0
  4  5  2  0  0  0
  4 11  1  0  0  0
  5  6  1  0  0  0
  5  8  1  0  0  0
  6  7  2  0  0  0
  8  9  1  0  0  0
  8 24  1  0  0  0
  9 10  2  0  0  0
  9 11  1  0  0  0
 11 12  1  0  0  0
 11 16  1  0  0  0
 12 13  2  0  0  0
 12 20  1  0  0  0
 13 14  1  0  0  0
 13 18  1  0  0  0
 14 15  1  0  0  0
 15 16  2  0  0  0
 15 17  1  0  0  0
 16 28  1  0  0  0
 28 29  3  0  0  0
 18 19  1  0  0  0
 18 22  1  0  0  0
 18 23  1  0  0  0
 19 20  1  0  0  0
 20 21  2  0  0  0
 14 25  1  0  0  0
 17 26  1  0  0  0
 17 27  1  0  0  0
M  END
> <minimizedAffinity>
-4.18261

$$$$
505


 30 33  0  0  0  0  0  0  0  0999 V2000
    0.7572    6.9506   -9.6972 Br  0  0  0  0  0  0  0  0  0  0  0  0
    1.0843    7.4456  -11.5055 C   0  0  0  0  0  0  0  0  0  0  0  0
    1.5580    8.7065  -11.7959 C   0  0  0  0  0  0  0  0  0  0  0  0
    1.8066    9.0946  -13.1162 C   0  0  0  0  0  0  0  0  0  0  0  0
    1.5650    8.1866  -14.0963 C   0  0  0  0  0  0  0  0  0  0  0  0
    1.0794    6.8965  -13.7976 C   0  0  0  0  0  0  0  0  0  0  0  0
    0.8382    6.5224  -12.4960 C   0  0  0  0  0  0  0  0  0  0  0  0
    1.8780    8.7720  -15.3537 N   0  0  0  0  0  0  0  0  0  0  0  0
    2.3316   10.0898  -15.1644 C   0  0  0  0  0  0  0  0  0  0  0  0
    2.6971   10.9094  -16.0438 O   0  0  0  0  0  0  0  0  0  0  0  0
    2.3106   10.3737  -13.6987 C   0  0  0  0  0  0  0  0  0  0  0  0
    1.4064   11.4879  -13.3929 C   0  0  0  0  0  0  0  0  0  0  0  0
    1.8276   12.5794  -12.7057 C   0  0  0  0  0  0  0  0  0  0  0  0
    3.1530   12.6681  -12.2690 O   0  0  0  0  0  0  0  0  0  0  0  0
    4.0443   11.6469  -12.5316 C   0  0  0  0  0  0  0  0  0  0  0  0
    3.6668   10.5914  -13.1875 C   0  0  0  0  0  0  0  0  0  0  0  0
    5.3892   11.8082  -12.0515 N   0  0  0  0  0  0  0  0  0  0  0  0
    0.9303   13.6166  -12.4365 C   0  0  0  0  0  0  0  0  0  0  0  0
    1.3309   14.6156  -11.8039 O   0  0  0  0  0  0  0  0  0  0  0  0
   -0.3697   13.5150  -12.8731 C   0  0  0  0  0  0  0  0  0  0  0  0
   -0.7417   12.3825  -13.5662 C   0  0  0  0  0  0  0  0  0  0  0  0
    0.1302   11.4572  -13.7851 O   0  0  0  0  0  0  0  0  0  0  0  0
    1.7290    8.0545  -16.6347 C   0  0  0  0  0  0  0  0  0  0  0  0
    5.8145   11.0472  -11.5252 H   0  0  0  0  0  0  0  0  0  0  0  0
    5.8740   12.6815  -12.2535 H   0  0  0  0  0  0  0  0  0  0  0  0
   -2.1676   12.2477  -14.0572 C   0  0  0  0  0  0  0  0  0  0  0  0
   -2.4789   10.8941  -14.1852 O   0  0  0  0  0  0  0  0  0  0  0  0
   -1.6359   10.3806  -14.3686 H   0  0  0  0  0  0  0  0  0  0  0  0
    4.6821    9.5545  -13.4220 C   0  0  0  0  0  0  0  0  0  0  0  0
    5.4623    8.7450  -13.6042 N   0  0  0  0  0  0  0  0  0  0  0  0
  1  2  1  0  0  0
  2  3  2  0  0  0
  2  7  1  0  0  0
  3  4  1  0  0  0
  4  5  2  0  0  0
  4 11  1  0  0  0
  5  6  1  0  0  0
  5  8  1  0  0  0
  6  7  2  0  0  0
  8  9  1  0  0  0
  8 23  1  0  0  0
  9 10  2  0  0  0
  9 11  1  0  0  0
 11 12  1  0  0  0
 11 16  1  0  0  0
 12 13  2  0  0  0
 12 22  1  0  0  0
 13 14  1  0  0  0
 13 18  1  0  0  0
 14 15  1  0  0  0
 15 16  2  0  0  0
 15 17  1  0  0  0
 16 29  1  0  0  0
 29 30  3  0  0  0
 18 19  2  0  0  0
 18 20  1  0  0  0
 20 21  2  0  0  0
 21 22  1  0  0  0
 21 26  1  0  0  0
 26 27  1  0  0  0
 17 24  1  0  0  0
 17 25  1  0  0  0
 27 28  1  0  0  0
M  END
> <minimizedAffinity>
2.81199

$$$$
513


 33 36  0  0  0  0  0  0  0  0999 V2000
   -0.7862   14.6435  -12.5012 N   0  0  0  0  0  0  0  0  0  0  0  0
   -0.6820   15.9375  -13.0787 C   0  0  0  0  0  0  0  0  0  0  0  0
   -0.4377   15.9973  -14.2942 O   0  0  0  0  0  0  0  0  0  0  0  0
   -0.9779   14.5958  -11.4770 H   0  0  0  0  0  0  0  0  0  0  0  0
   -0.6433   13.4694  -13.2175 N   0  0  0  0  0  0  0  0  0  0  0  0
   -1.4597   13.0935  -13.7729 H   0  0  0  0  0  0  0  0  0  0  0  0
   -4.6324    9.7782  -13.7685 Br  0  0  0  0  0  0  0  0  0  0  0  0
   -2.7387    9.4999  -13.7353 C   0  0  0  0  0  0  0  0  0  0  0  0
   -1.8667   10.5776  -13.5837 C   0  0  0  0  0  0  0  0  0  0  0  0
   -0.4960   10.4399  -13.5561 C   0  0  0  0  0  0  0  0  0  0  0  0
    0.0030    9.1654  -13.6858 C   0  0  0  0  0  0  0  0  0  0  0  0
   -0.8440    8.0582  -13.8396 C   0  0  0  0  0  0  0  0  0  0  0  0
   -2.2020    8.2445  -13.8610 C   0  0  0  0  0  0  0  0  0  0  0  0
    1.4202    9.2538  -13.6344 N   0  0  0  0  0  0  0  0  0  0  0  0
    1.8253   10.6003  -13.4698 C   0  0  0  0  0  0  0  0  0  0  0  0
    2.9880   11.0641  -13.3814 O   0  0  0  0  0  0  0  0  0  0  0  0
    0.5965   11.4085  -13.4151 C   0  0  0  0  0  0  0  0  0  0  0  0
    0.5359   12.7143  -13.2690 C   0  0  0  0  0  0  0  0  0  0  0  0
    2.0836    8.4470  -13.7051 H   0  0  0  0  0  0  0  0  0  0  0  0
   -0.8538   17.1872  -12.3051 C   0  0  0  0  0  0  0  0  0  0  0  0
   -2.0948   17.7732  -12.5114 N   0  0  0  0  0  0  0  0  0  0  0  0
   -2.8159   18.6204  -11.7787 C   0  0  0  0  0  0  0  0  0  0  0  0
   -4.0268   18.8491  -12.4183 C   0  0  0  0  0  0  0  0  0  0  0  0
   -4.0096   18.1195  -13.5498 N   0  0  0  0  0  0  0  0  0  0  0  0
   -2.8635   17.4806  -13.6078 C   0  0  0  0  0  0  0  0  0  0  0  0
   -4.9527   19.7065  -11.8582 C   0  0  0  0  0  0  0  0  0  0  0  0
   -6.0420   19.8916  -12.4599 O   0  0  0  0  0  0  0  0  0  0  0  0
   -4.6347   20.2844  -10.7096 N   0  0  0  0  0  0  0  0  0  0  0  0
   -3.4577   20.0574  -10.1001 C   0  0  0  0  0  0  0  0  0  0  0  0
   -3.1961   20.6264   -9.0139 O   0  0  0  0  0  0  0  0  0  0  0  0
   -2.5102   19.2211  -10.6104 N   0  0  0  0  0  0  0  0  0  0  0  0
   -1.2489   19.0281   -9.9538 C   0  0  0  0  0  0  0  0  0  0  0  0
   -5.5874   21.2055  -10.0678 C   0  0  0  0  0  0  0  0  0  0  0  0
  7  8  1  0  0  0
  8  9  2  0  0  0
  8 13  1  0  0  0
  9 10  1  0  0  0
 10 11  2  0  0  0
 10 17  1  0  0  0
 11 12  1  0  0  0
 11 14  1  0  0  0
 12 13  2  0  0  0
 14 15  1  0  0  0
 15 16  2  0  0  0
 15 17  1  0  0  0
 17 18  2  0  0  0
 18  5  1  0  0  0
  5  1  1  0  0  0
  1  2  1  0  0  0
  2  3  2  0  0  0
  2 20  1  0  0  0
 20 21  1  0  0  0
 21 22  1  0  0  0
 21 25  1  0  0  0
 22 23  2  0  0  0
 22 31  1  0  0  0
 23 24  1  0  0  0
 23 26  1  0  0  0
 24 25  2  0  0  0
 26 27  2  0  0  0
 26 28  1  0  0  0
 28 29  1  0  0  0
 28 33  1  0  0  0
 29 30  2  0  0  0
 29 31  1  0  0  0
 31 32  1  0  0  0
 14 19  1  0  0  0
  5  6  1  0  0  0
  1  4  1  0  0  0
M  END
> <minimizedAffinity>
-9.65735

$$$$
526


 31 34  0  0  0  0  0  0  0  0999 V2000
   -1.9132    8.8270  -13.4660 N   0  0  0  0  0  0  0  0  0  0  0  0
   -3.1086    9.3871  -13.9533 C   0  0  0  0  0  0  0  0  0  0  0  0
   -3.0986   10.6197  -14.3062 O   0  0  0  0  0  0  0  0  0  0  0  0
   -1.9084    7.8162  -13.1595 H   0  0  0  0  0  0  0  0  0  0  0  0
    2.5036   14.3009  -12.0304 Br  0  0  0  0  0  0  0  0  0  0  0  0
    2.5315   12.5669  -12.8012 C   0  0  0  0  0  0  0  0  0  0  0  0
    1.4070   11.7971  -12.8930 C   0  0  0  0  0  0  0  0  0  0  0  0
    1.4409   10.5379  -13.4515 C   0  0  0  0  0  0  0  0  0  0  0  0
    2.5839    9.9903  -13.9416 C   0  0  0  0  0  0  0  0  0  0  0  0
    3.7403   10.7719  -13.8519 C   0  0  0  0  0  0  0  0  0  0  0  0
    3.7120   12.0263  -13.2968 C   0  0  0  0  0  0  0  0  0  0  0  0
    2.3662    8.6955  -14.4591 N   0  0  0  0  0  0  0  0  0  0  0  0
    0.9865    8.3554  -14.3000 C   0  0  0  0  0  0  0  0  0  0  0  0
    0.3656    7.3353  -14.6054 O   0  0  0  0  0  0  0  0  0  0  0  0
    0.3732    9.5483  -13.6434 C   0  0  0  0  0  0  0  0  0  0  0  0
   -0.7904    9.5714  -13.3899 N   0  0  0  0  0  0  0  0  0  0  0  0
    3.0720    8.0527  -14.8917 H   0  0  0  0  0  0  0  0  0  0  0  0
   -4.4023    8.7191  -14.1234 C   0  0  0  0  0  0  0  0  0  0  0  0
   -5.4325    9.4827  -14.7684 N   0  0  0  0  0  0  0  0  0  0  0  0
   -6.4762   10.1050  -14.0274 C   0  0  0  0  0  0  0  0  0  0  0  0
   -6.4334    9.9316  -12.7474 O   0  0  0  0  0  0  0  0  0  0  0  0
   -5.4709    9.5979  -15.7927 H   0  0  0  0  0  0  0  0  0  0  0  0
   -7.5488   10.8868  -14.5616 C   0  0  0  0  0  0  0  0  0  0  0  0
   -8.1537   10.6869  -15.7936 C   0  0  0  0  0  0  0  0  0  0  0  0
   -9.1720   11.4599  -16.2372 C   0  0  0  0  0  0  0  0  0  0  0  0
   -9.6639   12.4989  -15.4728 C   0  0  0  0  0  0  0  0  0  0  0  0
   -9.0984   12.7346  -14.2595 C   0  0  0  0  0  0  0  0  0  0  0  0
   -8.0441   11.9420  -13.7814 C   0  0  0  0  0  0  0  0  0  0  0  0
  -10.7127   13.1122  -16.1775 O   0  0  0  0  0  0  0  0  0  0  0  0
  -11.2639   12.0012  -16.9249 C   0  0  0  0  0  0  0  0  0  0  0  0
   -9.9818   11.4859  -17.4329 O   0  0  0  0  0  0  0  0  0  0  0  0
  5  6  1  0  0  0
  6  7  2  0  0  0
  6 11  1  0  0  0
  7  8  1  0  0  0
  8  9  2  0  0  0
  8 15  1  0  0  0
  9 10  1  0  0  0
  9 12  1  0  0  0
 10 11  2  0  0  0
 12 13  1  0  0  0
 13 14  2  0  0  0
 13 15  1  0  0  0
 15 16  2  0  0  0
 16  1  1  0  0  0
  1  2  1  0  0  0
  2  3  2  0  0  0
  2 18  1  0  0  0
 18 19  1  0  0  0
 19 20  1  0  0  0
 20 21  2  0  0  0
 20 23  1  0  0  0
 23 24  2  0  0  0
 23 28  1  0  0  0
 24 25  1  0  0  0
 25 26  2  0  0  0
 25 31  1  0  0  0
 26 27  1  0  0  0
 26 29  1  0  0  0
 27 28  2  0  0  0
 29 30  1  0  0  0
 30 31  1  0  0  0
 12 17  1  0  0  0
  1  4  1  0  0  0
 19 22  1  0  0  0
M  END
> <minimizedAffinity>
-11.22257

$$$$
550


 30 35  0  0  0  0  0  0  0  0999 V2000
    7.8347    6.1047  -11.5629 Br  0  0  0  0  0  0  0  0  0  0  0  0
    6.6611    6.8449  -12.8716 C   0  0  0  0  0  0  0  0  0  0  0  0
    5.3041    7.0240  -12.6302 C   0  0  0  0  0  0  0  0  0  0  0  0
    4.4673    7.5557  -13.5741 C   0  0  0  0  0  0  0  0  0  0  0  0
    5.0283    7.9130  -14.7910 C   0  0  0  0  0  0  0  0  0  0  0  0
    6.3738    7.7379  -15.0376 C   0  0  0  0  0  0  0  0  0  0  0  0
    7.2047    7.2018  -14.0815 C   0  0  0  0  0  0  0  0  0  0  0  0
    4.0255    8.4523  -15.6559 N   0  0  0  0  0  0  0  0  0  0  0  0
    2.7886    8.4407  -14.9757 C   0  0  0  0  0  0  0  0  0  0  0  0
    1.7225    8.8500  -15.4572 O   0  0  0  0  0  0  0  0  0  0  0  0
    3.0409    7.8640  -13.6380 C   0  0  0  0  0  0  0  0  0  0  0  0
    2.1492    6.7545  -13.4802 N   0  0  0  0  0  0  0  0  0  0  0  0
    0.8520    7.3760  -13.2209 C   0  0  0  0  0  0  0  0  0  0  0  0
    1.1319    8.6383  -12.4738 C   0  0  0  0  0  0  0  0  0  0  0  0
    2.6133    8.7847  -12.5223 C   0  0  0  0  0  0  0  0  0  0  0  0
    2.8438   10.1967  -12.8097 C   0  0  0  0  0  0  0  0  0  0  0  0
    3.9480   10.7855  -12.7955 O   0  0  0  0  0  0  0  0  0  0  0  0
    1.6196   10.8170  -13.1139 N   0  0  0  0  0  0  0  0  0  0  0  0
    0.5641    9.8442  -13.1574 C   0  0  0  0  0  0  0  0  0  0  0  0
   -0.5865    9.9469  -13.6515 O   0  0  0  0  0  0  0  0  0  0  0  0
    0.1242    6.4217  -12.2857 C   0  0  0  0  0  0  0  0  0  0  0  0
    1.0560    5.2452  -12.0824 C   0  0  0  0  0  0  0  0  0  0  0  0
    2.4106    5.9259  -12.3217 C   0  0  0  0  0  0  0  0  0  0  0  0
    4.2051    8.7977  -16.6443 H   0  0  0  0  0  0  0  0  0  0  0  0
    1.4183   12.2117  -13.3513 C   0  0  0  0  0  0  0  0  0  0  0  0
    1.7622   13.1051  -12.2158 C   0  0  0  0  0  0  0  0  0  0  0  0
    0.7572   14.0072  -11.8860 O   0  0  0  0  0  0  0  0  0  0  0  0
    1.3740   14.8727  -10.9927 C   0  0  0  0  0  0  0  0  0  0  0  0
    2.7897   15.0708  -11.4358 C   0  0  0  0  0  0  0  0  0  0  0  0
    3.0252   13.8819  -12.3670 C   0  0  0  0  0  0  0  0  0  0  0  0
  1  2  1  0  0  0
  2  3  2  0  0  0
  2  7  1  0  0  0
  3  4  1  0  0  0
  4  5  2  0  0  0
  4 11  1  0  0  0
  5  6  1  0  0  0
  5  8  1  0  0  0
  6  7  2  0  0  0
  8  9  1  0  0  0
  9 10  2  0  0  0
  9 11  1  0  0  0
 11 12  1  0  0  0
 11 15  1  0  0  0
 12 13  1  0  0  0
 12 23  1  0  0  0
 13 14  1  0  0  0
 13 21  1  0  0  0
 14 15  1  0  0  0
 14 19  1  0  0  0
 15 16  1  0  0  0
 16 17  2  0  0  0
 16 18  1  0  0  0
 18 19  1  0  0  0
 18 25  1  0  0  0
 19 20  2  0  0  0
 25 26  1  0  0  0
 26 27  1  0  0  0
 26 30  1  0  0  0
 27 28  1  0  0  0
 28 29  1  0  0  0
 29 30  1  0  0  0
 21 22  1  0  0  0
 22 23  1  0  0  0
  8 24  1  0  0  0
M  END
> <minimizedAffinity>
-5.91579

$$$$
556


 30 33  0  0  0  0  0  0  0  0999 V2000
    4.3934   12.7131  -11.1752 Br  0  0  0  0  0  0  0  0  0  0  0  0
    3.7691   11.7101  -12.6723 C   0  0  0  0  0  0  0  0  0  0  0  0
    2.7405   10.8275  -12.4506 C   0  0  0  0  0  0  0  0  0  0  0  0
    2.2474   10.0691  -13.5179 C   0  0  0  0  0  0  0  0  0  0  0  0
    2.7973   10.2214  -14.7490 C   0  0  0  0  0  0  0  0  0  0  0  0
    3.8519   11.1204  -14.9979 C   0  0  0  0  0  0  0  0  0  0  0  0
    4.3158   11.8521  -13.9303 C   0  0  0  0  0  0  0  0  0  0  0  0
    2.1693    9.3675  -15.6874 N   0  0  0  0  0  0  0  0  0  0  0  0
    1.1833    8.6487  -15.0091 C   0  0  0  0  0  0  0  0  0  0  0  0
    0.3893    7.7578  -15.5032 O   0  0  0  0  0  0  0  0  0  0  0  0
    1.1833    9.0800  -13.5792 C   0  0  0  0  0  0  0  0  0  0  0  0
   -0.1528    9.5384  -13.3017 C   0  0  0  0  0  0  0  0  0  0  0  0
   -0.9610    8.8730  -12.4581 C   0  0  0  0  0  0  0  0  0  0  0  0
   -2.1479    9.5639  -12.4141 N   0  0  0  0  0  0  0  0  0  0  0  0
   -2.0517   10.6093  -13.2071 N   0  0  0  0  0  0  0  0  0  0  0  0
   -0.8528   10.6611  -13.7886 C   0  0  0  0  0  0  0  0  0  0  0  0
   -0.3284   11.6721  -14.7517 C   0  0  0  0  0  0  0  0  0  0  0  0
   -0.5797    7.6963  -11.7877 O   0  0  0  0  0  0  0  0  0  0  0  0
    0.7066    7.2372  -12.0419 C   0  0  0  0  0  0  0  0  0  0  0  0
    1.5299    7.8377  -12.8469 C   0  0  0  0  0  0  0  0  0  0  0  0
    1.1719    6.0338  -11.3907 N   0  0  0  0  0  0  0  0  0  0  0  0
    2.3808    9.2643  -16.7208 H   0  0  0  0  0  0  0  0  0  0  0  0
   -2.9845    9.2993  -11.8462 H   0  0  0  0  0  0  0  0  0  0  0  0
    1.1493    5.1599  -11.9213 H   0  0  0  0  0  0  0  0  0  0  0  0
    1.5088    6.0850  -10.4288 H   0  0  0  0  0  0  0  0  0  0  0  0
    2.8905    7.2610  -13.0499 C   0  0  0  0  0  0  0  0  0  0  0  0
    3.0189    6.0273  -12.9542 O   0  0  0  0  0  0  0  0  0  0  0  0
    3.9917    8.0207  -13.3363 O   0  0  0  0  0  0  0  0  0  0  0  0
    4.9899    7.6707  -14.2647 C   0  0  0  0  0  0  0  0  0  0  0  0
    6.2551    7.3385  -13.4666 C   0  0  0  0  0  0  0  0  0  0  0  0
  1  2  1  0  0  0
  2  3  2  0  0  0
  2  7  1  0  0  0
  3  4  1  0  0  0
  4  5  2  0  0  0
  4 11  1  0  0  0
  5  6  1  0  0  0
  5  8  1  0  0  0
  6  7  2  0  0  0
  8  9  1  0  0  0
  9 10  2  0  0  0
  9 11  1  0  0  0
 11 12  1  0  0  0
 11 20  1  0  0  0
 12 13  2  0  0  0
 12 16  1  0  0  0
 13 14  1  0  0  0
 13 18  1  0  0  0
 14 15  1  0  0  0
 15 16  2  0  0  0
 16 17  1  0  0  0
 18 19  1  0  0  0
 19 20  2  0  0  0
 19 21  1  0  0  0
 20 26  1  0  0  0
 26 27  2  0  0  0
 26 28  1  0  0  0
 28 29  1  0  0  0
 29 30  1  0  0  0
  8 22  1  0  0  0
 14 23  1  0  0  0
 21 24  1  0  0  0
 21 25  1  0  0  0
M  END
> <minimizedAffinity>
-3.18088

$$$$
558


 29 32  0  0  0  0  0  0  0  0999 V2000
    2.8789    9.1061  -17.2799 Br  0  0  0  0  0  0  0  0  0  0  0  0
    2.3489    9.0480  -15.4571 C   0  0  0  0  0  0  0  0  0  0  0  0
    1.1875    8.3890  -15.0417 C   0  0  0  0  0  0  0  0  0  0  0  0
    0.8128    8.3513  -13.7249 C   0  0  0  0  0  0  0  0  0  0  0  0
    1.5888    8.9733  -12.7912 C   0  0  0  0  0  0  0  0  0  0  0  0
    2.7619    9.6475  -13.1576 C   0  0  0  0  0  0  0  0  0  0  0  0
    3.1131    9.6675  -14.4860 C   0  0  0  0  0  0  0  0  0  0  0  0
    1.0366    8.8232  -11.4943 N   0  0  0  0  0  0  0  0  0  0  0  0
   -0.1436    8.0704  -11.6243 C   0  0  0  0  0  0  0  0  0  0  0  0
   -0.9382    7.7126  -10.7153 O   0  0  0  0  0  0  0  0  0  0  0  0
   -0.3435    7.7337  -13.0509 C   0  0  0  0  0  0  0  0  0  0  0  0
   -1.6268    8.3408  -13.5321 C   0  0  0  0  0  0  0  0  0  0  0  0
   -2.6139    7.6871  -14.0858 C   0  0  0  0  0  0  0  0  0  0  0  0
   -2.4793    6.2887  -14.2541 N   0  0  0  0  0  0  0  0  0  0  0  0
   -1.2993    5.6255  -13.8287 C   0  0  0  0  0  0  0  0  0  0  0  0
   -0.3078    6.2780  -13.2734 C   0  0  0  0  0  0  0  0  0  0  0  0
   -1.1838    4.1880  -14.0120 N   0  0  0  0  0  0  0  0  0  0  0  0
   -3.6915    8.6517  -14.4153 C   0  0  0  0  0  0  0  0  0  0  0  0
   -3.2484    9.9201  -14.0074 O   0  0  0  0  0  0  0  0  0  0  0  0
   -1.9888    9.7674  -13.4618 C   0  0  0  0  0  0  0  0  0  0  0  0
   -1.2744   10.7146  -12.9839 O   0  0  0  0  0  0  0  0  0  0  0  0
   -4.9529    8.3559  -13.6009 C   0  0  0  0  0  0  0  0  0  0  0  0
   -4.0157    8.6237  -15.9024 C   0  0  0  0  0  0  0  0  0  0  0  0
    1.4573    9.2176  -10.5955 H   0  0  0  0  0  0  0  0  0  0  0  0
   -3.2411    5.7106  -14.6940 H   0  0  0  0  0  0  0  0  0  0  0  0
   -0.2787    3.6939  -14.0736 H   0  0  0  0  0  0  0  0  0  0  0  0
   -2.0577    3.6420  -14.0821 H   0  0  0  0  0  0  0  0  0  0  0  0
    0.8764    5.5178  -12.8620 C   0  0  0  0  0  0  0  0  0  0  0  0
    1.8168    4.9339  -12.5276 N   0  0  0  0  0  0  0  0  0  0  0  0
  1  2  1  0  0  0
  2  3  2  0  0  0
  2  7  1  0  0  0
  3  4  1  0  0  0
  4  5  2  0  0  0
  4 11  1  0  0  0
  5  6  1  0  0  0
  5  8  1  0  0  0
  6  7  2  0  0  0
  8  9  1  0  0  0
  9 10  2  0  0  0
  9 11  1  0  0  0
 11 12  1  0  0  0
 11 16  1  0  0  0
 12 13  2  0  0  0
 12 20  1  0  0  0
 13 14  1  0  0  0
 13 18  1  0  0  0
 14 15  1  0  0  0
 15 16  2  0  0  0
 15 17  1  0  0  0
 16 28  1  0  0  0
 28 29  3  0  0  0
 18 19  1  0  0  0
 18 22  1  0  0  0
 18 23  1  0  0  0
 19 20  1  0  0  0
 20 21  2  0  0  0
  8 24  1  0  0  0
 14 25  1  0  0  0
 17 26  1  0  0  0
 17 27  1  0  0  0
M  END
> <minimizedAffinity>
1.10775

$$$$
559


 32 35  0  0  0  0  0  0  0  0999 V2000
    1.3755   14.8311  -11.3435 Br  0  0  0  0  0  0  0  0  0  0  0  0
    2.4540   13.5537  -12.2868 C   0  0  0  0  0  0  0  0  0  0  0  0
    2.0468   12.2436  -12.4583 C   0  0  0  0  0  0  0  0  0  0  0  0
    2.8152   11.3181  -13.1344 C   0  0  0  0  0  0  0  0  0  0  0  0
    4.0195   11.7689  -13.6340 C   0  0  0  0  0  0  0  0  0  0  0  0
    4.4329   13.0864  -13.4631 C   0  0  0  0  0  0  0  0  0  0  0  0
    3.6554   13.9797  -12.7922 C   0  0  0  0  0  0  0  0  0  0  0  0
    4.6819   10.6791  -14.2949 N   0  0  0  0  0  0  0  0  0  0  0  0
    3.8712    9.5207  -14.2037 C   0  0  0  0  0  0  0  0  0  0  0  0
    4.1843    8.4041  -14.6783 O   0  0  0  0  0  0  0  0  0  0  0  0
    2.6418    9.8860  -13.4697 C   0  0  0  0  0  0  0  0  0  0  0  0
    2.4711    9.0628  -12.3030 N   0  0  0  0  0  0  0  0  0  0  0  0
    1.9000    7.8376  -12.8223 C   0  0  0  0  0  0  0  0  0  0  0  0
    0.8822    8.3172  -13.8227 C   0  0  0  0  0  0  0  0  0  0  0  0
    1.4605    9.6157  -14.3317 C   0  0  0  0  0  0  0  0  0  0  0  0
    0.3665   10.5925  -14.2368 C   0  0  0  0  0  0  0  0  0  0  0  0
    0.3716   11.7730  -14.6685 O   0  0  0  0  0  0  0  0  0  0  0  0
   -0.7614    9.9969  -13.5556 N   0  0  0  0  0  0  0  0  0  0  0  0
   -0.4163    8.6660  -13.2066 C   0  0  0  0  0  0  0  0  0  0  0  0
   -1.1228    7.9233  -12.4842 O   0  0  0  0  0  0  0  0  0  0  0  0
    5.6135   10.7745  -14.7543 H   0  0  0  0  0  0  0  0  0  0  0  0
    1.7800    9.5067  -11.6771 H   0  0  0  0  0  0  0  0  0  0  0  0
   -2.0268   10.6263  -13.2702 C   0  0  0  0  0  0  0  0  0  0  0  0
   -2.7402    9.9623  -12.1175 C   0  0  0  0  0  0  0  0  0  0  0  0
   -1.7817   12.1021  -12.9417 C   0  0  0  0  0  0  0  0  0  0  0  0
   -2.9475   10.5525  -14.4683 C   0  0  0  0  0  0  0  0  0  0  0  0
    1.3114    7.0181  -11.7059 C   0  0  0  0  0  0  0  0  0  0  0  0
    1.4019    5.5789  -12.0019 C   0  0  0  0  0  0  0  0  0  0  0  0
    0.3420    4.8950  -12.0111 O   0  0  0  0  0  0  0  0  0  0  0  0
    2.6074    4.8875  -12.2839 N   0  0  0  0  0  0  0  0  0  0  0  0
    3.4794    4.9637  -11.7404 H   0  0  0  0  0  0  0  0  0  0  0  0
    2.6028    4.2456  -13.1196 H   0  0  0  0  0  0  0  0  0  0  0  0
  1  2  1  0  0  0
  2  3  2  0  0  0
  2  7  1  0  0  0
  3  4  1  0  0  0
  4  5  2  0  0  0
  4 11  1  0  0  0
  5  6  1  0  0  0
  5  8  1  0  0  0
  6  7  2  0  0  0
  8  9  1  0  0  0
  9 10  2  0  0  0
  9 11  1  0  0  0
 11 12  1  0  0  0
 11 15  1  0  0  0
 12 13  1  0  0  0
 13 14  1  0  0  0
 13 27  1  0  0  0
 14 15  1  0  0  0
 14 19  1  0  0  0
 15 16  1  0  0  0
 16 17  2  0  0  0
 16 18  1  0  0  0
 18 19  1  0  0  0
 18 23  1  0  0  0
 19 20  2  0  0  0
 23 24  1  0  0  0
 23 25  1  0  0  0
 23 26  1  0  0  0
 27 28  1  0  0  0
 28 29  2  0  0  0
 28 30  1  0  0  0
  8 21  1  0  0  0
 12 22  1  0  0  0
 30 31  1  0  0  0
 30 32  1  0  0  0
M  END
> <minimizedAffinity>
-6.64030

$$$$
566


 30 33  0  0  0  0  0  0  0  0999 V2000
    2.2698   14.3652  -10.6174 Br  0  0  0  0  0  0  0  0  0  0  0  0
    2.7673   13.1333  -11.9869 C   0  0  0  0  0  0  0  0  0  0  0  0
    2.0650   11.9694  -12.1726 C   0  0  0  0  0  0  0  0  0  0  0  0
    2.4232   11.0538  -13.1787 C   0  0  0  0  0  0  0  0  0  0  0  0
    3.4840   11.2918  -14.0070 C   0  0  0  0  0  0  0  0  0  0  0  0
    4.2014   12.4817  -13.8173 C   0  0  0  0  0  0  0  0  0  0  0  0
    3.8344   13.3630  -12.8271 C   0  0  0  0  0  0  0  0  0  0  0  0
    3.6497   10.2316  -14.9378 N   0  0  0  0  0  0  0  0  0  0  0  0
    2.6376    9.2798  -14.6764 C   0  0  0  0  0  0  0  0  0  0  0  0
    2.5261    8.2057  -15.3557 O   0  0  0  0  0  0  0  0  0  0  0  0
    1.8305    9.7547  -13.5658 C   0  0  0  0  0  0  0  0  0  0  0  0
    0.4205    9.8732  -13.8827 N   0  0  0  0  0  0  0  0  0  0  0  0
   -0.1635    8.5825  -13.5664 C   0  0  0  0  0  0  0  0  0  0  0  0
    0.5234    8.2367  -12.2766 C   0  0  0  0  0  0  0  0  0  0  0  0
    1.9108    8.7616  -12.4254 C   0  0  0  0  0  0  0  0  0  0  0  0
    2.7490    7.5936  -12.7384 C   0  0  0  0  0  0  0  0  0  0  0  0
    3.9292    7.5642  -13.2191 O   0  0  0  0  0  0  0  0  0  0  0  0
    2.0410    6.4019  -12.4210 N   0  0  0  0  0  0  0  0  0  0  0  0
    0.7157    6.7803  -12.1073 C   0  0  0  0  0  0  0  0  0  0  0  0
   -0.2155    6.0075  -11.7271 O   0  0  0  0  0  0  0  0  0  0  0  0
    4.4071   10.2122  -15.6677 H   0  0  0  0  0  0  0  0  0  0  0  0
    0.2515   10.1651  -14.8622 H   0  0  0  0  0  0  0  0  0  0  0  0
   -1.6458    8.7325  -13.4286 C   0  0  0  0  0  0  0  0  0  0  0  0
   -2.2501    7.9021  -14.3807 O   0  0  0  0  0  0  0  0  0  0  0  0
   -2.0572   10.1485  -13.7483 C   0  0  0  0  0  0  0  0  0  0  0  0
   -2.9956    8.3705  -14.8367 H   0  0  0  0  0  0  0  0  0  0  0  0
    2.5697    5.0521  -12.4165 C   0  0  0  0  0  0  0  0  0  0  0  0
    4.0134    5.0029  -12.7995 C   0  0  0  0  0  0  0  0  0  0  0  0
    4.3210    3.5495  -13.1811 C   0  0  0  0  0  0  0  0  0  0  0  0
    5.7791    3.3910  -13.5134 C   0  0  0  0  0  0  0  0  0  0  0  0
  1  2  1  0  0  0
  2  3  2  0  0  0
  2  7  1  0  0  0
  3  4  1  0  0  0
  4  5  2  0  0  0
  4 11  1  0  0  0
  5  6  1  0  0  0
  5  8  1  0  0  0
  6  7  2  0  0  0
  8  9  1  0  0  0
  9 10  2  0  0  0
  9 11  1  0  0  0
 11 12  1  0  0  0
 11 15  1  0  0  0
 12 13  1  0  0  0
 13 14  1  0  0  0
 13 23  1  0  0  0
 14 15  1  0  0  0
 14 19  1  0  0  0
 15 16  1  0  0  0
 16 17  2  0  0  0
 16 18  1  0  0  0
 18 19  1  0  0  0
 18 27  1  0  0  0
 19 20  2  0  0  0
 27 28  1  0  0  0
 28 29  1  0  0  0
 29 30  1  0  0  0
 23 24  1  0  0  0
 23 25  1  0  0  0
  8 21  1  0  0  0
 12 22  1  0  0  0
 24 26  1  0  0  0
M  END
> <minimizedAffinity>
-7.07083

$$$$
571


 34 38  0  0  0  0  0  0  0  0999 V2000
   -4.3929   27.8089   -6.9384 Br  0  0  0  0  0  0  0  0  0  0  0  0
   -5.7389   27.2618   -5.6996 C   0  0  0  0  0  0  0  0  0  0  0  0
   -6.9861   26.8362   -6.0993 C   0  0  0  0  0  0  0  0  0  0  0  0
   -7.9740   26.4414   -5.1843 C   0  0  0  0  0  0  0  0  0  0  0  0
   -7.6525   26.4920   -3.8499 C   0  0  0  0  0  0  0  0  0  0  0  0
   -6.3974   26.9189   -3.4397 C   0  0  0  0  0  0  0  0  0  0  0  0
   -5.4360   27.3049   -4.3472 C   0  0  0  0  0  0  0  0  0  0  0  0
   -8.7444   26.0815   -3.0500 N   0  0  0  0  0  0  0  0  0  0  0  0
   -9.8070   25.7568   -3.9184 C   0  0  0  0  0  0  0  0  0  0  0  0
  -10.9288   25.3550   -3.4994 O   0  0  0  0  0  0  0  0  0  0  0  0
   -9.3547   25.9734   -5.3086 C   0  0  0  0  0  0  0  0  0  0  0  0
  -10.1917   26.9807   -5.9678 N   0  0  0  0  0  0  0  0  0  0  0  0
  -10.2443   26.5911   -7.3590 C   0  0  0  0  0  0  0  0  0  0  0  0
  -10.0178   25.1330   -7.4381 C   0  0  0  0  0  0  0  0  0  0  0  0
   -9.5659   24.7086   -6.0527 C   0  0  0  0  0  0  0  0  0  0  0  0
   -8.4141   23.8403   -6.2655 C   0  0  0  0  0  0  0  0  0  0  0  0
   -7.6591   23.3704   -5.3784 O   0  0  0  0  0  0  0  0  0  0  0  0
   -8.2426   23.5784   -7.6749 N   0  0  0  0  0  0  0  0  0  0  0  0
   -8.9123   24.6879   -8.3095 C   0  0  0  0  0  0  0  0  0  0  0  0
   -8.5955   25.1708   -9.4069 O   0  0  0  0  0  0  0  0  0  0  0  0
   -8.7572   26.0284   -1.9942 H   0  0  0  0  0  0  0  0  0  0  0  0
   -9.7941   27.9412   -5.8554 H   0  0  0  0  0  0  0  0  0  0  0  0
  -11.5455   27.0420   -7.9795 C   0  0  0  0  0  0  0  0  0  0  0  0
  -12.2755   25.9447   -8.3942 O   0  0  0  0  0  0  0  0  0  0  0  0
  -12.3336   27.9492   -7.0662 C   0  0  0  0  0  0  0  0  0  0  0  0
  -13.1600   26.1874   -8.7278 H   0  0  0  0  0  0  0  0  0  0  0  0
   -7.6005   22.4781   -8.3200 C   0  0  0  0  0  0  0  0  0  0  0  0
   -6.1221   22.6136   -8.5417 C   0  0  0  0  0  0  0  0  0  0  0  0
   -5.5486   21.6635   -9.5104 C   0  0  0  0  0  0  0  0  0  0  0  0
   -6.3157   21.2462  -10.5913 C   0  0  0  0  0  0  0  0  0  0  0  0
   -5.7909   20.3931  -11.5031 C   0  0  0  0  0  0  0  0  0  0  0  0
   -4.5166   19.9121  -11.4131 C   0  0  0  0  0  0  0  0  0  0  0  0
   -3.7597   20.3354  -10.3313 C   0  0  0  0  0  0  0  0  0  0  0  0
   -4.2664   21.1939   -9.3984 C   0  0  0  0  0  0  0  0  0  0  0  0
  1  2  1  0  0  0
  2  3  2  0  0  0
  2  7  1  0  0  0
  3  4  1  0  0  0
  4  5  2  0  0  0
  4 11  1  0  0  0
  5  6  1  0  0  0
  5  8  1  0  0  0
  6  7  2  0  0  0
  8  9  1  0  0  0
  9 10  2  0  0  0
  9 11  1  0  0  0
 11 12  1  0  0  0
 11 15  1  0  0  0
 12 13  1  0  0  0
 13 14  1  0  0  0
 13 23  1  0  0  0
 14 15  1  0  0  0
 14 19  1  0  0  0
 15 16  1  0  0  0
 16 17  2  0  0  0
 16 18  1  0  0  0
 18 19  1  0  0  0
 18 27  1  0  0  0
 19 20  2  0  0  0
 27 28  1  0  0  0
 28 29  1  0  0  0
 29 30  2  0  0  0
 29 34  1  0  0  0
 30 31  1  0  0  0
 31 32  2  0  0  0
 32 33  1  0  0  0
 33 34  2  0  0  0
 23 24  1  0  0  0
 23 25  1  0  0  0
  8 21  1  0  0  0
 12 22  1  0  0  0
 24 26  1  0  0  0
M  END
> <minimizedAffinity>
-7.49760

$$$$
578


 27 30  0  0  0  0  0  0  0  0999 V2000
   -2.4959    6.2651  -14.8608 Br  0  0  0  0  0  0  0  0  0  0  0  0
   -1.9769    8.0137  -14.2947 C   0  0  0  0  0  0  0  0  0  0  0  0
   -0.6631    8.3633  -14.1085 C   0  0  0  0  0  0  0  0  0  0  0  0
   -0.2442    9.6395  -13.6926 C   0  0  0  0  0  0  0  0  0  0  0  0
   -1.2216   10.5624  -13.4701 C   0  0  0  0  0  0  0  0  0  0  0  0
   -2.5748   10.2216  -13.6550 C   0  0  0  0  0  0  0  0  0  0  0  0
   -2.9522    8.9635  -14.0624 C   0  0  0  0  0  0  0  0  0  0  0  0
   -0.6603   11.8040  -13.0670 N   0  0  0  0  0  0  0  0  0  0  0  0
    0.7386   11.6409  -13.0394 C   0  0  0  0  0  0  0  0  0  0  0  0
    1.5921   12.5522  -12.7335 O   0  0  0  0  0  0  0  0  0  0  0  0
    1.0406   10.2499  -13.4226 C   0  0  0  0  0  0  0  0  0  0  0  0
    1.8088   10.3963  -14.6719 N   0  0  0  0  0  0  0  0  0  0  0  0
    3.1973   10.2310  -14.3737 C   0  0  0  0  0  0  0  0  0  0  0  0
    3.2175    9.3375  -13.1888 C   0  0  0  0  0  0  0  0  0  0  0  0
    1.9229    9.5544  -12.4531 C   0  0  0  0  0  0  0  0  0  0  0  0
    1.5520    8.2285  -12.0143 C   0  0  0  0  0  0  0  0  0  0  0  0
    0.6746    7.9710  -11.1384 O   0  0  0  0  0  0  0  0  0  0  0  0
    2.3276    7.2704  -12.7207 N   0  0  0  0  0  0  0  0  0  0  0  0
    3.1528    7.9230  -13.6748 C   0  0  0  0  0  0  0  0  0  0  0  0
    3.6720    7.3760  -14.6678 O   0  0  0  0  0  0  0  0  0  0  0  0
    3.9565   11.5197  -14.1610 C   0  0  0  0  0  0  0  0  0  0  0  0
   -1.1798   12.6988  -12.8270 H   0  0  0  0  0  0  0  0  0  0  0  0
    1.4791    9.7170  -15.3926 H   0  0  0  0  0  0  0  0  0  0  0  0
    2.2434    5.8397  -12.4598 C   0  0  0  0  0  0  0  0  0  0  0  0
    3.5941    5.2283  -12.2405 C   0  0  0  0  0  0  0  0  0  0  0  0
    3.7893    3.9374  -12.9890 C   0  0  0  0  0  0  0  0  0  0  0  0
    5.1717    4.0218  -13.6460 C   0  0  0  0  0  0  0  0  0  0  0  0
  1  2  1  0  0  0
  2  3  2  0  0  0
  2  7  1  0  0  0
  3  4  1  0  0  0
  4  5  2  0  0  0
  4 11  1  0  0  0
  5  6  1  0  0  0
  5  8  1  0  0  0
  6  7  2  0  0  0
  8  9  1  0  0  0
  9 10  2  0  0  0
  9 11  1  0  0  0
 11 12  1  0  0  0
 11 15  1  0  0  0
 12 13  1  0  0  0
 13 14  1  0  0  0
 13 21  1  0  0  0
 14 15  1  0  0  0
 14 19  1  0  0  0
 15 16  1  0  0  0
 16 17  2  0  0  0
 16 18  1  0  0  0
 18 19  1  0  0  0
 18 24  1  0  0  0
 19 20  2  0  0  0
 24 25  1  0  0  0
 25 26  1  0  0  0
 26 27  1  0  0  0
  8 22  1  0  0  0
 12 23  1  0  0  0
M  END
> <minimizedAffinity>
-7.75702

$$$$
579


 32 35  0  0  0  0  0  0  0  0999 V2000
    2.2364   14.3286  -10.9229 Br  0  0  0  0  0  0  0  0  0  0  0  0
    2.6646   12.9519  -12.1714 C   0  0  0  0  0  0  0  0  0  0  0  0
    1.9035   11.8138  -12.3198 C   0  0  0  0  0  0  0  0  0  0  0  0
    2.2217   10.8111  -13.2351 C   0  0  0  0  0  0  0  0  0  0  0  0
    3.3362   10.9533  -14.0232 C   0  0  0  0  0  0  0  0  0  0  0  0
    4.1223   12.0874  -13.8965 C   0  0  0  0  0  0  0  0  0  0  0  0
    3.7795   13.0791  -12.9699 C   0  0  0  0  0  0  0  0  0  0  0  0
    3.4740    9.8223  -14.8887 N   0  0  0  0  0  0  0  0  0  0  0  0
    2.3999    8.9338  -14.6310 C   0  0  0  0  0  0  0  0  0  0  0  0
    2.2406    7.8582  -15.2399 O   0  0  0  0  0  0  0  0  0  0  0  0
    1.5798    9.5091  -13.5770 C   0  0  0  0  0  0  0  0  0  0  0  0
    0.2457    9.7251  -14.1358 N   0  0  0  0  0  0  0  0  0  0  0  0
   -0.6718    9.4033  -13.0839 C   0  0  0  0  0  0  0  0  0  0  0  0
   -0.0330    8.2546  -12.3926 C   0  0  0  0  0  0  0  0  0  0  0  0
    1.4209    8.6635  -12.3488 C   0  0  0  0  0  0  0  0  0  0  0  0
    2.1571    7.4068  -12.3421 C   0  0  0  0  0  0  0  0  0  0  0  0
    3.3518    7.2589  -12.0064 O   0  0  0  0  0  0  0  0  0  0  0  0
    1.2751    6.3832  -12.7860 N   0  0  0  0  0  0  0  0  0  0  0  0
    0.0241    6.9971  -13.1779 C   0  0  0  0  0  0  0  0  0  0  0  0
   -0.7465    6.4801  -14.0029 O   0  0  0  0  0  0  0  0  0  0  0  0
    4.2564    9.6990  -15.5901 H   0  0  0  0  0  0  0  0  0  0  0  0
    0.0714    9.0620  -14.9281 H   0  0  0  0  0  0  0  0  0  0  0  0
    1.6065    4.9882  -12.8212 C   0  0  0  0  0  0  0  0  0  0  0  0
    2.9539    4.6370  -12.2842 C   0  0  0  0  0  0  0  0  0  0  0  0
    3.6586    3.7655  -13.0981 O   0  0  0  0  0  0  0  0  0  0  0  0
    4.9522    4.2208  -13.3415 C   0  0  0  0  0  0  0  0  0  0  0  0
   -2.0679    9.1738  -13.5518 C   0  0  0  0  0  0  0  0  0  0  0  0
   -2.6536   10.4378  -14.0118 C   0  0  0  0  0  0  0  0  0  0  0  0
   -2.0271   11.5200  -13.8293 O   0  0  0  0  0  0  0  0  0  0  0  0
   -3.9218   10.4625  -14.6639 N   0  0  0  0  0  0  0  0  0  0  0  0
   -4.1340   11.1955  -15.3709 H   0  0  0  0  0  0  0  0  0  0  0  0
   -4.6332    9.7412  -14.4271 H   0  0  0  0  0  0  0  0  0  0  0  0
  1  2  1  0  0  0
  2  3  2  0  0  0
  2  7  1  0  0  0
  3  4  1  0  0  0
  4  5  2  0  0  0
  4 11  1  0  0  0
  5  6  1  0  0  0
  5  8  1  0  0  0
  6  7  2  0  0  0
  8  9  1  0  0  0
  9 10  2  0  0  0
  9 11  1  0  0  0
 11 12  1  0  0  0
 11 15  1  0  0  0
 12 13  1  0  0  0
 13 14  1  0  0  0
 13 27  1  0  0  0
 14 15  1  0  0  0
 14 19  1  0  0  0
 15 16  1  0  0  0
 16 17  2  0  0  0
 16 18  1  0  0  0
 18 19  1  0  0  0
 18 23  1  0  0  0
 19 20  2  0  0  0
 23 24  1  0  0  0
 24 25  1  0  0  0
 25 26  1  0  0  0
 27 28  1  0  0  0
 28 29  2  0  0  0
 28 30  1  0  0  0
  8 21  1  0  0  0
 12 22  1  0  0  0
 30 31  1  0  0  0
 30 32  1  0  0  0
M  END
> <minimizedAffinity>
-5.81037

$$$$
588


 24 27  0  0  0  0  0  0  0  0999 V2000
    6.3550    5.2243  -13.2824 Br  0  0  0  0  0  0  0  0  0  0  0  0
    4.6659    6.1051  -13.2383 C   0  0  0  0  0  0  0  0  0  0  0  0
    4.5347    7.2887  -13.9046 C   0  0  0  0  0  0  0  0  0  0  0  0
    3.3186    7.9506  -13.8891 C   0  0  0  0  0  0  0  0  0  0  0  0
    2.2374    7.4147  -13.2001 C   0  0  0  0  0  0  0  0  0  0  0  0
    2.3543    6.2187  -12.5217 C   0  0  0  0  0  0  0  0  0  0  0  0
    3.5818    5.5966  -12.5643 C   0  0  0  0  0  0  0  0  0  0  0  0
    0.9528    7.9981  -13.1153 N   0  0  0  0  0  0  0  0  0  0  0  0
   -0.1256    7.2555  -12.8389 N   0  0  0  0  0  0  0  0  0  0  0  0
   -1.1372    8.0806  -12.8326 N   0  0  0  0  0  0  0  0  0  0  0  0
   -0.7309    9.3124  -13.0946 N   0  0  0  0  0  0  0  0  0  0  0  0
    0.6205    9.2671  -13.2784 C   0  0  0  0  0  0  0  0  0  0  0  0
    1.4163   10.5032  -13.5956 C   0  0  0  0  0  0  0  0  0  0  0  0
    2.4125   10.2257  -14.6272 N   0  0  0  0  0  0  0  0  0  0  0  0
    3.3933    9.1956  -14.6632 C   0  0  0  0  0  0  0  0  0  0  0  0
    4.3985    9.3583  -15.4099 O   0  0  0  0  0  0  0  0  0  0  0  0
    2.1872   10.8337  -12.3462 C   0  0  0  0  0  0  0  0  0  0  0  0
    2.6038   12.2678  -12.3747 C   0  0  0  0  0  0  0  0  0  0  0  0
    1.4610   13.0230  -12.3724 O   0  0  0  0  0  0  0  0  0  0  0  0
    0.6797   12.9173  -13.4912 C   0  0  0  0  0  0  0  0  0  0  0  0
    0.4985   11.5750  -14.0571 C   0  0  0  0  0  0  0  0  0  0  0  0
    3.3583   12.6012  -11.0814 C   0  0  0  0  0  0  0  0  0  0  0  0
    3.5408   12.5984  -13.5053 C   0  0  0  0  0  0  0  0  0  0  0  0
    2.4225   10.8706  -15.4745 H   0  0  0  0  0  0  0  0  0  0  0  0
  1  2  1  0  0  0
  2  3  2  0  0  0
  2  7  1  0  0  0
  3  4  1  0  0  0
  4  5  2  0  0  0
  4 15  1  0  0  0
  5  6  1  0  0  0
  5  8  1  0  0  0
  6  7  2  0  0  0
  8  9  1  0  0  0
  8 12  1  0  0  0
  9 10  2  0  0  0
 10 11  1  0  0  0
 11 12  2  0  0  0
 12 13  1  0  0  0
 13 14  1  0  0  0
 13 17  1  0  0  0
 13 21  1  0  0  0
 14 15  1  0  0  0
 15 16  2  0  0  0
 17 18  1  0  0  0
 18 19  1  0  0  0
 18 22  1  0  0  0
 18 23  1  0  0  0
 19 20  1  0  0  0
 20 21  1  0  0  0
 14 24  1  0  0  0
M  END
> <minimizedAffinity>
-7.77584

$$$$
591


 23 26  0  0  0  0  0  0  0  0999 V2000
   -0.0974    7.9844  -12.4334 Br  0  0  0  0  0  0  0  0  0  0  0  0
    1.5248    6.9787  -12.6424 C   0  0  0  0  0  0  0  0  0  0  0  0
    2.6421    7.5639  -13.1987 C   0  0  0  0  0  0  0  0  0  0  0  0
    3.8051    6.8371  -13.3460 C   0  0  0  0  0  0  0  0  0  0  0  0
    3.9164    5.5160  -12.9562 C   0  0  0  0  0  0  0  0  0  0  0  0
    2.7780    4.9405  -12.3971 C   0  0  0  0  0  0  0  0  0  0  0  0
    1.6119    5.6612  -12.2455 C   0  0  0  0  0  0  0  0  0  0  0  0
    5.0165    4.6395  -13.0353 N   0  0  0  0  0  0  0  0  0  0  0  0
    4.9205    3.3303  -12.8692 N   0  0  0  0  0  0  0  0  0  0  0  0
    6.1328    2.8167  -13.0066 N   0  0  0  0  0  0  0  0  0  0  0  0
    6.9751    3.7907  -13.2552 N   0  0  0  0  0  0  0  0  0  0  0  0
    6.3016    4.9676  -13.2813 C   0  0  0  0  0  0  0  0  0  0  0  0
    7.0064    6.2248  -13.5386 C   0  0  0  0  0  0  0  0  0  0  0  0
    6.2537    7.2664  -14.1475 N   0  0  0  0  0  0  0  0  0  0  0  0
    4.8912    7.6094  -13.9529 C   0  0  0  0  0  0  0  0  0  0  0  0
    4.4933    8.7403  -14.3413 O   0  0  0  0  0  0  0  0  0  0  0  0
    7.5952    6.8144  -12.2475 C   0  0  0  0  0  0  0  0  0  0  0  0
    8.8848    7.5201  -12.5823 C   0  0  0  0  0  0  0  0  0  0  0  0
    9.9018    6.5074  -12.7540 N   0  0  0  0  0  0  0  0  0  0  0  0
    9.3973    5.4776  -13.6232 C   0  0  0  0  0  0  0  0  0  0  0  0
    8.2022    5.9167  -14.4328 C   0  0  0  0  0  0  0  0  0  0  0  0
   10.2322    5.9837  -11.4295 C   0  0  0  0  0  0  0  0  0  0  0  0
    6.7772    7.8555  -14.8269 H   0  0  0  0  0  0  0  0  0  0  0  0
  1  2  1  0  0  0
  2  3  2  0  0  0
  2  7  1  0  0  0
  3  4  1  0  0  0
  4  5  2  0  0  0
  4 15  1  0  0  0
  5  6  1  0  0  0
  5  8  1  0  0  0
  6  7  2  0  0  0
  8  9  1  0  0  0
  8 12  1  0  0  0
  9 10  2  0  0  0
 10 11  1  0  0  0
 11 12  2  0  0  0
 12 13  1  0  0  0
 13 14  1  0  0  0
 13 17  1  0  0  0
 13 21  1  0  0  0
 14 15  1  0  0  0
 15 16  2  0  0  0
 17 18  1  0  0  0
 18 19  1  0  0  0
 19 20  1  0  0  0
 19 22  1  0  0  0
 20 21  1  0  0  0
 14 23  1  0  0  0
M  END
> <minimizedAffinity>
-7.62239

$$$$
592


 27 30  0  0  0  0  0  0  0  0999 V2000
    2.9989   13.4396  -11.9818 Br  0  0  0  0  0  0  0  0  0  0  0  0
    1.5851   12.3302  -12.5960 C   0  0  0  0  0  0  0  0  0  0  0  0
    1.7935   10.9820  -12.6868 C   0  0  0  0  0  0  0  0  0  0  0  0
    0.7518   10.1658  -13.1399 C   0  0  0  0  0  0  0  0  0  0  0  0
   -0.4311   10.7377  -13.4733 C   0  0  0  0  0  0  0  0  0  0  0  0
   -0.6422   12.1288  -13.3783 C   0  0  0  0  0  0  0  0  0  0  0  0
    0.3837   12.9273  -12.9337 C   0  0  0  0  0  0  0  0  0  0  0  0
   -1.4919    9.9741  -13.9258 O   0  0  0  0  0  0  0  0  0  0  0  0
   -1.3243    8.6104  -14.0327 C   0  0  0  0  0  0  0  0  0  0  0  0
   -0.2111    7.9872  -13.7284 C   0  0  0  0  0  0  0  0  0  0  0  0
    0.9593    8.7062  -13.2439 C   0  0  0  0  0  0  0  0  0  0  0  0
    2.1884    8.3873  -14.0095 C   0  0  0  0  0  0  0  0  0  0  0  0
    3.0815    7.7855  -13.1671 C   0  0  0  0  0  0  0  0  0  0  0  0
    4.2118    7.4928  -13.8755 N   0  0  0  0  0  0  0  0  0  0  0  0
    3.9977    7.9099  -15.1106 N   0  0  0  0  0  0  0  0  0  0  0  0
    2.7830    8.4591  -15.2380 C   0  0  0  0  0  0  0  0  0  0  0  0
    2.2445    9.0245  -16.5121 C   0  0  0  0  0  0  0  0  0  0  0  0
    2.5519    7.6652  -11.8644 N   0  0  0  0  0  0  0  0  0  0  0  0
    1.2610    8.2181  -11.8809 C   0  0  0  0  0  0  0  0  0  0  0  0
    0.4582    8.3033  -10.9135 O   0  0  0  0  0  0  0  0  0  0  0  0
   -2.4354    7.8310  -14.5047 N   0  0  0  0  0  0  0  0  0  0  0  0
    4.7281    7.7988  -15.8634 H   0  0  0  0  0  0  0  0  0  0  0  0
    3.0641    7.2270  -11.0284 H   0  0  0  0  0  0  0  0  0  0  0  0
   -3.1591    8.2797  -15.1069 H   0  0  0  0  0  0  0  0  0  0  0  0
   -2.5508    6.8204  -14.2669 H   0  0  0  0  0  0  0  0  0  0  0  0
   -0.1128    6.5538  -13.8671 C   0  0  0  0  0  0  0  0  0  0  0  0
   -0.0498    5.4018  -13.9665 N   0  0  0  0  0  0  0  0  0  0  0  0
  1  2  1  0  0  0
  2  3  2  0  0  0
  2  7  1  0  0  0
  3  4  1  0  0  0
  4  5  2  0  0  0
  4 11  1  0  0  0
  5  6  1  0  0  0
  5  8  1  0  0  0
  6  7  2  0  0  0
  8  9  1  0  0  0
  9 10  2  0  0  0
  9 21  1  0  0  0
 10 11  1  0  0  0
 10 26  1  0  0  0
 11 12  1  0  0  0
 11 19  1  0  0  0
 12 13  1  0  0  0
 12 16  2  0  0  0
 13 14  2  0  0  0
 13 18  1  0  0  0
 14 15  1  0  0  0
 15 16  1  0  0  0
 16 17  1  0  0  0
 18 19  1  0  0  0
 19 20  2  0  0  0
 26 27  3  0  0  0
 15 22  1  0  0  0
 18 23  1  0  0  0
 21 24  1  0  0  0
 21 25  1  0  0  0
M  END
> <minimizedAffinity>
-5.00728

$$$$
596


 29 32  0  0  0  0  0  0  0  0999 V2000
    1.0820   12.2506  -13.1258 C   0  0  0  0  0  0  0  0  0  0  0  0
    2.3937   11.8506  -13.3248 C   0  0  0  0  0  0  0  0  0  0  0  0
    2.6785   10.5512  -13.6876 C   0  0  0  0  0  0  0  0  0  0  0  0
    3.9055   10.2595  -13.8494 O   0  0  0  0  0  0  0  0  0  0  0  0
    1.7276    9.6835  -13.8512 O   0  0  0  0  0  0  0  0  0  0  0  0
    0.4982    9.9875  -13.6847 C   0  0  0  0  0  0  0  0  0  0  0  0
    0.1177   11.2913  -13.3133 C   0  0  0  0  0  0  0  0  0  0  0  0
   -1.2042   11.5897  -13.1547 C   0  0  0  0  0  0  0  0  0  0  0  0
   -2.1356   10.5674  -13.3669 C   0  0  0  0  0  0  0  0  0  0  0  0
   -1.7298    9.2977  -13.7266 C   0  0  0  0  0  0  0  0  0  0  0  0
   -0.4053    8.9628  -13.8979 C   0  0  0  0  0  0  0  0  0  0  0  0
   -2.7496    8.3391  -13.9110 O   0  0  0  0  0  0  0  0  0  0  0  0
   -3.4742   18.5161  -13.4064 Br  0  0  0  0  0  0  0  0  0  0  0  0
   -1.9936   17.5462  -12.7305 C   0  0  0  0  0  0  0  0  0  0  0  0
   -1.6917   16.2764  -13.1880 C   0  0  0  0  0  0  0  0  0  0  0  0
   -0.6157   15.5369  -12.7324 C   0  0  0  0  0  0  0  0  0  0  0  0
    0.1924   16.1090  -11.7711 C   0  0  0  0  0  0  0  0  0  0  0  0
   -0.0605   17.3786  -11.2734 C   0  0  0  0  0  0  0  0  0  0  0  0
   -1.1422   18.0800  -11.7524 C   0  0  0  0  0  0  0  0  0  0  0  0
    1.2375   15.4168  -11.3136 O   0  0  0  0  0  0  0  0  0  0  0  0
    1.5345   14.2347  -11.7244 C   0  0  0  0  0  0  0  0  0  0  0  0
    2.5286   13.5701  -11.2958 O   0  0  0  0  0  0  0  0  0  0  0  0
    0.7665   13.6075  -12.6823 C   0  0  0  0  0  0  0  0  0  0  0  0
   -0.3253   14.2756  -13.1886 C   0  0  0  0  0  0  0  0  0  0  0  0
   -0.0555    7.5957  -14.1748 C   0  0  0  0  0  0  0  0  0  0  0  0
   -0.4068    6.5091  -13.3552 N   0  0  0  0  0  0  0  0  0  0  0  0
   -1.0926    5.4063  -13.9700 C   0  0  0  0  0  0  0  0  0  0  0  0
    0.7166    6.0702  -12.4881 C   0  0  0  0  0  0  0  0  0  0  0  0
   -1.1137    6.8708  -12.6513 H   0  0  0  0  0  0  0  0  0  0  0  0
 13 14  1  0  0  0
 14 15  2  0  0  0
 14 19  1  0  0  0
 15 16  1  0  0  0
 16 17  2  0  0  0
 16 24  1  0  0  0
 17 18  1  0  0  0
 17 20  1  0  0  0
 18 19  2  0  0  0
 20 21  1  0  0  0
 21 22  2  0  0  0
 21 23  1  0  0  0
 23 24  2  0  0  0
 23  1  1  0  0  0
  1  2  2  0  0  0
  1  7  1  0  0  0
  2  3  1  0  0  0
  3  4  2  0  0  0
  3  5  1  0  0  0
  5  6  1  0  0  0
  6  7  2  0  0  0
  6 11  1  0  0  0
  7  8  1  0  0  0
  8  9  2  0  0  0
  9 10  1  0  0  0
 10 11  2  0  0  0
 10 12  1  0  0  0
 11 25  1  0  0  0
 25 26  1  0  0  0
 26 27  1  0  0  0
 26 28  1  0  0  0
 26 29  1  0  0  0
M  CHG 1  12  -1
M  CHG 1  26   1
M  END
> <minimizedAffinity>
-9.78258

$$$$
610


 32 35  0  0  0  0  0  0  0  0999 V2000
   -3.5472    9.0057  -14.1803 Br  0  0  0  0  0  0  0  0  0  0  0  0
   -1.9593   10.0171  -13.8692 C   0  0  0  0  0  0  0  0  0  0  0  0
   -0.7863    9.3900  -13.4588 C   0  0  0  0  0  0  0  0  0  0  0  0
    0.3697   10.1248  -13.2331 C   0  0  0  0  0  0  0  0  0  0  0  0
    0.3638   11.4910  -13.4147 C   0  0  0  0  0  0  0  0  0  0  0  0
    1.4939   12.2104  -13.1984 N   0  0  0  0  0  0  0  0  0  0  0  0
    2.6405   11.6275  -12.8056 C   0  0  0  0  0  0  0  0  0  0  0  0
    2.6273   10.3002  -12.6342 N   0  0  0  0  0  0  0  0  0  0  0  0
    1.5446    9.5251  -12.8293 C   0  0  0  0  0  0  0  0  0  0  0  0
   -0.8189   12.0937  -13.8236 C   0  0  0  0  0  0  0  0  0  0  0  0
   -1.9770   11.3835  -14.0538 C   0  0  0  0  0  0  0  0  0  0  0  0
    3.8149   12.4200  -12.5895 N   0  0  0  0  0  0  0  0  0  0  0  0
    3.8826   12.8354  -11.2148 C   0  0  0  0  0  0  0  0  0  0  0  0
    2.9380   13.9312  -10.8542 C   0  0  0  0  0  0  0  0  0  0  0  0
    2.3630   14.5726  -12.0157 N   0  0  0  0  0  0  0  0  0  0  0  0
    3.2325   14.7496  -13.1581 C   0  0  0  0  0  0  0  0  0  0  0  0
    3.9551   13.4912  -13.5270 C   0  0  0  0  0  0  0  0  0  0  0  0
    1.0087   14.9818  -11.9663 C   0  0  0  0  0  0  0  0  0  0  0  0
    0.3173   14.7941  -10.9412 O   0  0  0  0  0  0  0  0  0  0  0  0
    4.6198   11.7371  -12.7216 H   0  0  0  0  0  0  0  0  0  0  0  0
    0.4664   15.6397  -13.1904 C   0  0  0  0  0  0  0  0  0  0  0  0
   -1.0321   15.6173  -13.2092 C   0  0  0  0  0  0  0  0  0  0  0  0
   -1.6370   16.9346  -12.9598 C   0  0  0  0  0  0  0  0  0  0  0  0
   -1.2381   17.6720  -12.0346 O   0  0  0  0  0  0  0  0  0  0  0  0
   -2.6688   17.3686  -13.7666 O   0  0  0  0  0  0  0  0  0  0  0  0
    1.6364    8.0899  -12.6157 C   0  0  0  0  0  0  0  0  0  0  0  0
    2.6566    7.3560  -13.2052 C   0  0  0  0  0  0  0  0  0  0  0  0
    2.7840    5.9967  -13.0150 C   0  0  0  0  0  0  0  0  0  0  0  0
    1.8937    5.3035  -12.2212 C   0  0  0  0  0  0  0  0  0  0  0  0
    0.8732    6.0396  -11.6316 C   0  0  0  0  0  0  0  0  0  0  0  0
    0.7530    7.3977  -11.8276 C   0  0  0  0  0  0  0  0  0  0  0  0
    3.8109    8.2159  -14.2270 Cl  0  0  0  0  0  0  0  0  0  0  0  0
  1  2  1  0  0  0
  2  3  2  0  0  0
  2 11  1  0  0  0
  3  4  1  0  0  0
  4  5  2  0  0  0
  4  9  1  0  0  0
  5  6  1  0  0  0
  5 10  1  0  0  0
  6  7  2  0  0  0
  7  8  1  0  0  0
  7 12  1  0  0  0
  8  9  2  0  0  0
  9 26  1  0  0  0
 26 27  2  0  0  0
 26 31  1  0  0  0
 27 28  1  0  0  0
 27 32  1  0  0  0
 28 29  2  0  0  0
 29 30  1  0  0  0
 30 31  2  0  0  0
 12 13  1  0  0  0
 12 17  1  0  0  0
 13 14  1  0  0  0
 14 15  1  0  0  0
 15 16  1  0  0  0
 15 18  1  0  0  0
 16 17  1  0  0  0
 18 19  2  0  0  0
 18 21  1  0  0  0
 21 22  1  0  0  0
 22 23  1  0  0  0
 23 24  2  0  0  0
 23 25  1  0  0  0
 10 11  2  0  0  0
 12 20  1  0  0  0
M  CHG 1  12   1
M  END
> <minimizedAffinity>
-7.51312

$$$$
611


 33 36  0  0  0  0  0  0  0  0999 V2000
   -1.6055    6.4477  -13.8205 Br  0  0  0  0  0  0  0  0  0  0  0  0
   -1.5845    8.3469  -13.6021 C   0  0  0  0  0  0  0  0  0  0  0  0
   -0.4191    9.0852  -13.7078 C   0  0  0  0  0  0  0  0  0  0  0  0
   -0.3710   10.4537  -13.5557 C   0  0  0  0  0  0  0  0  0  0  0  0
   -1.5321   11.1533  -13.2827 C   0  0  0  0  0  0  0  0  0  0  0  0
   -1.5056   12.4995  -13.1214 N   0  0  0  0  0  0  0  0  0  0  0  0
   -0.3721   13.2146  -13.2173 C   0  0  0  0  0  0  0  0  0  0  0  0
    0.7582   12.5356  -13.4841 N   0  0  0  0  0  0  0  0  0  0  0  0
    0.7853   11.1927  -13.6534 C   0  0  0  0  0  0  0  0  0  0  0  0
   -2.6977   10.4271  -13.1765 C   0  0  0  0  0  0  0  0  0  0  0  0
   -2.7398    9.0466  -13.3305 C   0  0  0  0  0  0  0  0  0  0  0  0
   -0.3826   14.6270  -13.0426 N   0  0  0  0  0  0  0  0  0  0  0  0
   -0.3666   15.3075  -14.3183 C   0  0  0  0  0  0  0  0  0  0  0  0
   -0.8280   16.7154  -14.1115 C   0  0  0  0  0  0  0  0  0  0  0  0
   -0.7780   17.0158  -12.6952 N   0  0  0  0  0  0  0  0  0  0  0  0
    0.4061   16.5947  -11.9680 C   0  0  0  0  0  0  0  0  0  0  0  0
    0.7238   15.1245  -12.2668 C   0  0  0  0  0  0  0  0  0  0  0  0
   -1.8590   17.6890  -12.1022 C   0  0  0  0  0  0  0  0  0  0  0  0
   -1.7939   17.9343  -10.8721 O   0  0  0  0  0  0  0  0  0  0  0  0
   -1.2595   14.8661  -12.5344 H   0  0  0  0  0  0  0  0  0  0  0  0
   -3.0398   18.1048  -12.8619 C   0  0  0  0  0  0  0  0  0  0  0  0
   -3.4164   19.5104  -12.4917 C   0  0  0  0  0  0  0  0  0  0  0  0
   -4.7393   19.5855  -11.7620 C   0  0  0  0  0  0  0  0  0  0  0  0
   -4.7207   20.5254  -10.6236 C   0  0  0  0  0  0  0  0  0  0  0  0
   -3.6198   20.7251  -10.0583 O   0  0  0  0  0  0  0  0  0  0  0  0
   -5.8910   21.1488  -10.2174 O   0  0  0  0  0  0  0  0  0  0  0  0
    2.0373   10.5082  -13.9381 C   0  0  0  0  0  0  0  0  0  0  0  0
    3.1405   10.6235  -13.1063 C   0  0  0  0  0  0  0  0  0  0  0  0
    4.3423    9.9935  -13.3765 C   0  0  0  0  0  0  0  0  0  0  0  0
    4.4171    9.2173  -14.5390 C   0  0  0  0  0  0  0  0  0  0  0  0
    3.3386    9.0817  -15.3879 C   0  0  0  0  0  0  0  0  0  0  0  0
    2.1785    9.7194  -15.0829 C   0  0  0  0  0  0  0  0  0  0  0  0
    3.0192   11.6040  -11.6543 Cl  0  0  0  0  0  0  0  0  0  0  0  0
  1  2  1  0  0  0
  2  3  2  0  0  0
  2 11  1  0  0  0
  3  4  1  0  0  0
  4  5  2  0  0  0
  4  9  1  0  0  0
  5  6  1  0  0  0
  5 10  1  0  0  0
  6  7  2  0  0  0
  7  8  1  0  0  0
  7 12  1  0  0  0
  8  9  2  0  0  0
  9 27  1  0  0  0
 27 28  2  0  0  0
 27 32  1  0  0  0
 28 29  1  0  0  0
 28 33  1  0  0  0
 29 30  2  0  0  0
 30 31  1  0  0  0
 31 32  2  0  0  0
 12 13  1  0  0  0
 12 17  1  0  0  0
 13 14  1  0  0  0
 14 15  1  0  0  0
 15 16  1  0  0  0
 15 18  1  0  0  0
 16 17  1  0  0  0
 18 19  2  0  0  0
 18 21  1  0  0  0
 21 22  1  0  0  0
 22 23  1  0  0  0
 23 24  1  0  0  0
 24 25  2  0  0  0
 24 26  1  0  0  0
 10 11  2  0  0  0
 12 20  1  0  0  0
M  CHG 1  12   1
M  END
> <minimizedAffinity>
-9.61679

$$$$
616


 28 31  0  0  0  0  0  0  0  0999 V2000
   -2.4399   17.6383  -13.1998 C   0  0  0  0  0  0  0  0  0  0  0  0
   -3.1349   17.3131  -14.2365 O   0  0  0  0  0  0  0  0  0  0  0  0
   -1.1779   17.0503  -13.1091 N   0  0  0  0  0  0  0  0  0  0  0  0
   -0.2228   17.2363  -12.0503 C   0  0  0  0  0  0  0  0  0  0  0  0
    1.0375   16.3846  -12.2517 C   0  0  0  0  0  0  0  0  0  0  0  0
    0.6306   15.0243  -12.5685 N   0  0  0  0  0  0  0  0  0  0  0  0
   -0.4592   14.7935  -13.5179 C   0  0  0  0  0  0  0  0  0  0  0  0
   -0.7207   16.1420  -14.1946 C   0  0  0  0  0  0  0  0  0  0  0  0
    1.2665   13.9130  -11.9729 C   0  0  0  0  0  0  0  0  0  0  0  0
    2.1915   14.1504  -11.1598 O   0  0  0  0  0  0  0  0  0  0  0  0
   -7.2191   22.4524   -9.2165 Br  0  0  0  0  0  0  0  0  0  0  0  0
   -5.6969   21.4234   -9.7684 C   0  0  0  0  0  0  0  0  0  0  0  0
   -5.7183   20.6472  -10.8983 C   0  0  0  0  0  0  0  0  0  0  0  0
   -4.6051   19.9000  -11.2931 C   0  0  0  0  0  0  0  0  0  0  0  0
   -3.4620   19.9362  -10.5428 C   0  0  0  0  0  0  0  0  0  0  0  0
   -2.5309   19.1271  -11.1366 N   0  0  0  0  0  0  0  0  0  0  0  0
   -3.0185   18.5624  -12.2444 C   0  0  0  0  0  0  0  0  0  0  0  0
   -4.3425   19.0606  -12.3382 C   0  0  0  0  0  0  0  0  0  0  0  0
   -3.4320   20.7166   -9.4026 C   0  0  0  0  0  0  0  0  0  0  0  0
   -4.5422   21.4548   -9.0181 C   0  0  0  0  0  0  0  0  0  0  0  0
   -1.5907   19.0164  -10.7299 H   0  0  0  0  0  0  0  0  0  0  0  0
    0.8292   12.5697  -12.3183 C   0  0  0  0  0  0  0  0  0  0  0  0
    1.4169   12.0251  -13.5221 N   0  0  0  0  0  0  0  0  0  0  0  0
    0.7005   10.8015  -13.8893 C   0  0  0  0  0  0  0  0  0  0  0  0
    1.4141    9.5923  -13.3928 C   0  0  0  0  0  0  0  0  0  0  0  0
    2.0146    9.8446  -12.1617 O   0  0  0  0  0  0  0  0  0  0  0  0
    3.0916   10.7241  -12.2943 C   0  0  0  0  0  0  0  0  0  0  0  0
    2.8345   11.7422  -13.3815 C   0  0  0  0  0  0  0  0  0  0  0  0
 11 12  1  0  0  0
 12 13  2  0  0  0
 12 20  1  0  0  0
 13 14  1  0  0  0
 14 15  2  0  0  0
 14 18  1  0  0  0
 15 16  1  0  0  0
 15 19  1  0  0  0
 16 17  1  0  0  0
 17 18  2  0  0  0
 17  1  1  0  0  0
  1  2  2  0  0  0
  1  3  1  0  0  0
  3  4  1  0  0  0
  3  8  1  0  0  0
  4  5  1  0  0  0
  5  6  1  0  0  0
  6  7  1  0  0  0
  6  9  1  0  0  0
  7  8  1  0  0  0
  9 10  2  0  0  0
  9 22  1  0  0  0
 22 23  1  0  0  0
 23 24  1  0  0  0
 23 28  1  0  0  0
 24 25  1  0  0  0
 25 26  1  0  0  0
 26 27  1  0  0  0
 27 28  1  0  0  0
 19 20  2  0  0  0
 16 21  1  0  0  0
M  END
> <minimizedAffinity>
-9.06195

$$$$
617


 25 28  0  0  0  0  0  0  0  0999 V2000
   -5.6526   22.9279   -7.9256 Br  0  0  0  0  0  0  0  0  0  0  0  0
   -5.4614   21.7379   -9.3971 C   0  0  0  0  0  0  0  0  0  0  0  0
   -4.3124   20.9958   -9.5769 C   0  0  0  0  0  0  0  0  0  0  0  0
   -4.1581   20.1283  -10.6390 C   0  0  0  0  0  0  0  0  0  0  0  0
   -5.1986   20.0134  -11.5413 C   0  0  0  0  0  0  0  0  0  0  0  0
   -4.7844   19.1181  -12.4557 N   0  0  0  0  0  0  0  0  0  0  0  0
   -3.5375   18.6684  -12.1676 C   0  0  0  0  0  0  0  0  0  0  0  0
   -3.1226   19.3000  -11.0146 C   0  0  0  0  0  0  0  0  0  0  0  0
   -1.8994   19.0101  -10.5291 N   0  0  0  0  0  0  0  0  0  0  0  0
   -1.0812   18.1280  -11.1340 C   0  0  0  0  0  0  0  0  0  0  0  0
   -1.4582   17.4990  -12.2551 N   0  0  0  0  0  0  0  0  0  0  0  0
   -2.6718   17.7740  -12.7555 C   0  0  0  0  0  0  0  0  0  0  0  0
   -3.0423   17.1937  -13.8066 O   0  0  0  0  0  0  0  0  0  0  0  0
   -6.3442   20.7633  -11.3499 C   0  0  0  0  0  0  0  0  0  0  0  0
   -6.5072   21.6337  -10.2911 C   0  0  0  0  0  0  0  0  0  0  0  0
   -5.3255   18.7968  -13.2797 H   0  0  0  0  0  0  0  0  0  0  0  0
   -0.5672   16.5347  -12.9231 C   0  0  0  0  0  0  0  0  0  0  0  0
    0.5714   16.1872  -12.0437 C   0  0  0  0  0  0  0  0  0  0  0  0
    0.7206   14.8199  -11.7002 N   0  0  0  0  0  0  0  0  0  0  0  0
    1.8356   14.5156  -10.8720 C   0  0  0  0  0  0  0  0  0  0  0  0
    3.0387   14.0412  -11.6358 C   0  0  0  0  0  0  0  0  0  0  0  0
    2.6867   13.2102  -12.7672 N   0  0  0  0  0  0  0  0  0  0  0  0
    1.3256   12.7141  -12.6525 C   0  0  0  0  0  0  0  0  0  0  0  0
    0.4221   13.9185  -12.7548 C   0  0  0  0  0  0  0  0  0  0  0  0
    2.8293   13.7006  -13.6795 H   0  0  0  0  0  0  0  0  0  0  0  0
  1  2  1  0  0  0
  2  3  2  0  0  0
  2 15  1  0  0  0
  3  4  1  0  0  0
  4  5  2  0  0  0
  4  8  1  0  0  0
  5  6  1  0  0  0
  5 14  1  0  0  0
  6  7  1  0  0  0
  7  8  2  0  0  0
  7 12  1  0  0  0
  8  9  1  0  0  0
  9 10  2  0  0  0
 10 11  1  0  0  0
 11 12  1  0  0  0
 11 17  1  0  0  0
 12 13  2  0  0  0
 17 18  1  0  0  0
 18 19  1  0  0  0
 19 20  1  0  0  0
 19 24  1  0  0  0
 20 21  1  0  0  0
 21 22  1  0  0  0
 22 23  1  0  0  0
 23 24  1  0  0  0
 14 15  2  0  0  0
  6 16  1  0  0  0
 22 25  1  0  0  0
M  END
> <minimizedAffinity>
-9.06758

$$$$
624


 22 25  0  0  0  0  0  0  0  0999 V2000
   -0.1370   14.4673  -12.9176 Br  0  0  0  0  0  0  0  0  0  0  0  0
   -0.0643   12.5841  -13.1923 C   0  0  0  0  0  0  0  0  0  0  0  0
   -1.2449   11.8751  -13.2660 C   0  0  0  0  0  0  0  0  0  0  0  0
   -1.2248   10.4891  -13.4670 C   0  0  0  0  0  0  0  0  0  0  0  0
   -0.0196    9.8758  -13.5860 C   0  0  0  0  0  0  0  0  0  0  0  0
    1.1851   10.5410  -13.5193 C   0  0  0  0  0  0  0  0  0  0  0  0
    1.1401   11.8967  -13.3213 C   0  0  0  0  0  0  0  0  0  0  0  0
    2.3270    9.7973  -13.6548 C   0  0  0  0  0  0  0  0  0  0  0  0
    3.4197   10.3847  -13.5973 O   0  0  0  0  0  0  0  0  0  0  0  0
    2.3079    8.4249  -13.8534 C   0  0  0  0  0  0  0  0  0  0  0  0
    1.0706    7.8204  -13.9105 C   0  0  0  0  0  0  0  0  0  0  0  0
   -0.0790    8.5564  -13.7750 N   0  0  0  0  0  0  0  0  0  0  0  0
   -1.4769    8.1878  -13.7940 C   0  0  0  0  0  0  0  0  0  0  0  0
   -2.2648    9.4533  -13.5906 C   0  0  0  0  0  0  0  0  0  0  0  0
    3.5340    7.6473  -13.9971 C   0  0  0  0  0  0  0  0  0  0  0  0
    4.3629    7.9717  -14.8779 O   0  0  0  0  0  0  0  0  0  0  0  0
    3.7948    6.5235  -13.1448 N   0  0  0  0  0  0  0  0  0  0  0  0
    5.0023    5.7352  -13.2667 C   0  0  0  0  0  0  0  0  0  0  0  0
    4.5444    4.2798  -13.4266 C   0  0  0  0  0  0  0  0  0  0  0  0
    3.6929    3.9555  -12.3981 O   0  0  0  0  0  0  0  0  0  0  0  0
    2.5091    4.6627  -12.3994 C   0  0  0  0  0  0  0  0  0  0  0  0
    2.8501    6.1288  -12.1189 C   0  0  0  0  0  0  0  0  0  0  0  0
  1  2  1  0  0  0
  2  3  2  0  0  0
  2  7  1  0  0  0
  3  4  1  0  0  0
  4  5  2  0  0  0
  4 14  1  0  0  0
  5  6  1  0  0  0
  5 12  1  0  0  0
  6  7  2  0  0  0
  6  8  1  0  0  0
  8  9  2  0  0  0
  8 10  1  0  0  0
 10 11  2  0  0  0
 10 15  1  0  0  0
 11 12  1  0  0  0
 12 13  1  0  0  0
 13 14  1  0  0  0
 15 16  2  0  0  0
 15 17  1  0  0  0
 17 18  1  0  0  0
 17 22  1  0  0  0
 18 19  1  0  0  0
 19 20  1  0  0  0
 20 21  1  0  0  0
 21 22  1  0  0  0
M  END
> <minimizedAffinity>
-8.20531

$$$$
625


 31 34  0  0  0  0  0  0  0  0999 V2000
   -1.0131    7.9023  -12.5011 Br  0  0  0  0  0  0  0  0  0  0  0  0
    0.7425    7.2703  -12.7645 C   0  0  0  0  0  0  0  0  0  0  0  0
    1.7049    8.0540  -13.3798 C   0  0  0  0  0  0  0  0  0  0  0  0
    2.9782    7.6138  -13.5975 C   0  0  0  0  0  0  0  0  0  0  0  0
    4.0606    8.2583  -14.1280 N   0  0  0  0  0  0  0  0  0  0  0  0
    5.1035    7.4133  -14.0505 C   0  0  0  0  0  0  0  0  0  0  0  0
    4.6662    6.1861  -13.4828 C   0  0  0  0  0  0  0  0  0  0  0  0
    3.3350    6.3705  -13.2098 C   0  0  0  0  0  0  0  0  0  0  0  0
    2.3830    5.5608  -12.5849 C   0  0  0  0  0  0  0  0  0  0  0  0
    1.0859    5.9958  -12.3549 C   0  0  0  0  0  0  0  0  0  0  0  0
    0.1079    5.2088  -11.7205 O   0  0  0  0  0  0  0  0  0  0  0  0
   -0.8329    5.6028  -11.5749 H   0  0  0  0  0  0  0  0  0  0  0  0
    5.4061    4.9211  -13.3820 C   0  0  0  0  0  0  0  0  0  0  0  0
    6.2532    4.8207  -12.4542 O   0  0  0  0  0  0  0  0  0  0  0  0
    5.2479    3.8465  -14.1919 O   0  0  0  0  0  0  0  0  0  0  0  0
    5.1002    2.4991  -13.9211 C   0  0  0  0  0  0  0  0  0  0  0  0
    4.1133    2.1810  -12.8046 C   0  0  0  0  0  0  0  0  0  0  0  0
    3.9013    9.4996  -14.9102 C   0  0  0  0  0  0  0  0  0  0  0  0
    3.5509   10.5895  -13.8715 C   0  0  0  0  0  0  0  0  0  0  0  0
    2.3166   11.1547  -14.0106 C   0  0  0  0  0  0  0  0  0  0  0  0
    1.9228   12.1448  -13.0951 C   0  0  0  0  0  0  0  0  0  0  0  0
    2.7190   12.5598  -12.0698 C   0  0  0  0  0  0  0  0  0  0  0  0
    3.9694   11.9493  -11.9668 C   0  0  0  0  0  0  0  0  0  0  0  0
    4.3765   10.9646  -12.8756 C   0  0  0  0  0  0  0  0  0  0  0  0
    6.5096    7.6341  -14.3878 C   0  0  0  0  0  0  0  0  0  0  0  0
    7.5201    7.0984  -13.5296 N   0  0  0  0  0  0  0  0  0  0  0  0
    8.0068    7.5496  -12.3480 C   0  0  0  0  0  0  0  0  0  0  0  0
    9.5064    7.1716  -12.2812 C   0  0  0  0  0  0  0  0  0  0  0  0
    9.5146    5.9564  -13.2054 C   0  0  0  0  0  0  0  0  0  0  0  0
    8.6192    6.5033  -14.3087 C   0  0  0  0  0  0  0  0  0  0  0  0
    6.9918    6.0767  -13.2664 H   0  0  0  0  0  0  0  0  0  0  0  0
  1  2  1  0  0  0
  2  3  2  0  0  0
  2 10  1  0  0  0
  3  4  1  0  0  0
  4  5  1  0  0  0
  4  8  2  0  0  0
  5  6  1  0  0  0
  5 18  1  0  0  0
  6  7  2  0  0  0
  6 25  1  0  0  0
  7  8  1  0  0  0
  7 13  1  0  0  0
  8  9  1  0  0  0
  9 10  2  0  0  0
 10 11  1  0  0  0
 13 14  2  0  0  0
 13 15  1  0  0  0
 15 16  1  0  0  0
 16 17  1  0  0  0
 25 26  1  0  0  0
 26 27  1  0  0  0
 26 30  1  0  0  0
 27 28  1  0  0  0
 28 29  1  0  0  0
 29 30  1  0  0  0
 18 19  1  0  0  0
 19 20  2  0  0  0
 19 24  1  0  0  0
 20 21  1  0  0  0
 21 22  2  0  0  0
 22 23  1  0  0  0
 23 24  2  0  0  0
 11 12  1  0  0  0
 26 31  1  0  0  0
M  CHG 1  26   1
M  END
> <minimizedAffinity>
-7.37663

$$$$
626


 32 35  0  0  0  0  0  0  0  0999 V2000
    2.5396    8.8327  -14.0730 N   0  0  0  0  0  0  0  0  0  0  0  0
    2.1373    9.9055  -13.2670 C   0  0  0  0  0  0  0  0  0  0  0  0
    2.6686   10.0854  -12.1417 O   0  0  0  0  0  0  0  0  0  0  0  0
    2.0458    8.7737  -15.0155 H   0  0  0  0  0  0  0  0  0  0  0  0
    1.2634    6.4395  -12.8037 Br  0  0  0  0  0  0  0  0  0  0  0  0
    3.1270    6.6630  -13.1994 C   0  0  0  0  0  0  0  0  0  0  0  0
    3.9991    5.6450  -12.8879 C   0  0  0  0  0  0  0  0  0  0  0  0
    5.3416    5.7728  -13.1479 C   0  0  0  0  0  0  0  0  0  0  0  0
    6.4361    5.0067  -12.9816 N   0  0  0  0  0  0  0  0  0  0  0  0
    7.5311    5.6486  -13.4301 C   0  0  0  0  0  0  0  0  0  0  0  0
    7.0848    6.8346  -13.8796 N   0  0  0  0  0  0  0  0  0  0  0  0
    5.7496    6.9433  -13.7220 C   0  0  0  0  0  0  0  0  0  0  0  0
    4.8650    7.9832  -14.0418 C   0  0  0  0  0  0  0  0  0  0  0  0
    3.5191    7.8576  -13.7825 C   0  0  0  0  0  0  0  0  0  0  0  0
    8.8543    5.1647  -13.4228 O   0  0  0  0  0  0  0  0  0  0  0  0
    7.6909    7.5911  -14.3030 H   0  0  0  0  0  0  0  0  0  0  0  0
    9.1482    4.6860  -14.2845 H   0  0  0  0  0  0  0  0  0  0  0  0
    1.1044   10.8744  -13.6495 C   0  0  0  0  0  0  0  0  0  0  0  0
   -0.2243   10.4215  -13.7624 N   0  0  0  0  0  0  0  0  0  0  0  0
   -0.6072    9.2705  -13.0280 C   0  0  0  0  0  0  0  0  0  0  0  0
   -1.8799    8.6290  -13.5816 C   0  0  0  0  0  0  0  0  0  0  0  0
   -2.8731    9.6147  -13.6363 N   0  0  0  0  0  0  0  0  0  0  0  0
   -2.5230   10.9496  -13.3449 C   0  0  0  0  0  0  0  0  0  0  0  0
   -1.2151   11.4355  -13.8933 C   0  0  0  0  0  0  0  0  0  0  0  0
   -3.9952    9.3330  -14.4113 C   0  0  0  0  0  0  0  0  0  0  0  0
   -5.3106    9.7434  -13.9188 C   0  0  0  0  0  0  0  0  0  0  0  0
   -5.5751    9.3911  -12.7042 O   0  0  0  0  0  0  0  0  0  0  0  0
   -6.2951   10.4584  -14.5916 N   0  0  0  0  0  0  0  0  0  0  0  0
   -6.1383   10.7790  -15.5688 H   0  0  0  0  0  0  0  0  0  0  0  0
   -7.5783   10.8133  -13.9927 C   0  0  0  0  0  0  0  0  0  0  0  0
   -7.8346   12.1787  -13.5077 C   0  0  0  0  0  0  0  0  0  0  0  0
   -8.4992   11.7125  -14.7894 C   0  0  0  0  0  0  0  0  0  0  0  0
  5  6  1  0  0  0
  6  7  2  0  0  0
  6 14  1  0  0  0
  7  8  1  0  0  0
  8  9  1  0  0  0
  8 12  2  0  0  0
  9 10  2  0  0  0
 10 11  1  0  0  0
 10 15  1  0  0  0
 11 12  1  0  0  0
 12 13  1  0  0  0
 13 14  2  0  0  0
 14  1  1  0  0  0
  1  2  1  0  0  0
  2  3  2  0  0  0
  2 18  1  0  0  0
 18 19  1  0  0  0
 19 20  1  0  0  0
 19 24  1  0  0  0
 20 21  1  0  0  0
 21 22  1  0  0  0
 22 23  1  0  0  0
 22 25  1  0  0  0
 23 24  1  0  0  0
 25 26  1  0  0  0
 26 27  2  0  0  0
 26 28  1  0  0  0
 28 30  1  0  0  0
 30 31  1  0  0  0
 30 32  1  0  0  0
 31 32  1  0  0  0
 11 16  1  0  0  0
  1  4  1  0  0  0
 28 29  1  0  0  0
 15 17  1  0  0  0
M  END
> <minimizedAffinity>
-8.16906

$$$$
631


 29 32  0  0  0  0  0  0  0  0999 V2000
    2.1882    9.8242  -13.1606 N   0  0  0  0  0  0  0  0  0  0  0  0
    1.1367    8.9717  -12.5634 C   0  0  0  0  0  0  0  0  0  0  0  0
    1.8042    7.6077  -12.4920 C   0  0  0  0  0  0  0  0  0  0  0  0
    2.7039    7.6114  -13.7097 C   0  0  0  0  0  0  0  0  0  0  0  0
    2.8539    9.0263  -14.1368 C   0  0  0  0  0  0  0  0  0  0  0  0
    3.4380    9.4511  -15.1429 O   0  0  0  0  0  0  0  0  0  0  0  0
   -0.9749   16.1474  -13.0292 Br  0  0  0  0  0  0  0  0  0  0  0  0
    0.0681   14.5429  -12.9503 C   0  0  0  0  0  0  0  0  0  0  0  0
    1.3356   14.5404  -12.3714 C   0  0  0  0  0  0  0  0  0  0  0  0
    2.0229   13.3488  -12.3540 C   0  0  0  0  0  0  0  0  0  0  0  0
    3.2354   13.0009  -11.8881 N   0  0  0  0  0  0  0  0  0  0  0  0
    3.4467   11.7074  -12.1139 N   0  0  0  0  0  0  0  0  0  0  0  0
    2.3963   11.1475  -12.7309 C   0  0  0  0  0  0  0  0  0  0  0  0
    1.4825   12.2089  -12.8830 C   0  0  0  0  0  0  0  0  0  0  0  0
    0.2402   12.1998  -13.4524 C   0  0  0  0  0  0  0  0  0  0  0  0
   -0.4649   13.3772  -13.4828 C   0  0  0  0  0  0  0  0  0  0  0  0
    4.3244   11.2277  -11.8342 H   0  0  0  0  0  0  0  0  0  0  0  0
    0.7058    6.6297  -12.5467 C   0  0  0  0  0  0  0  0  0  0  0  0
    0.6988    5.6192  -11.8061 O   0  0  0  0  0  0  0  0  0  0  0  0
   -0.3532    6.8634  -13.4653 N   0  0  0  0  0  0  0  0  0  0  0  0
   -0.3026    7.7093  -14.0658 H   0  0  0  0  0  0  0  0  0  0  0  0
   -1.4753    5.9577  -13.5778 C   0  0  0  0  0  0  0  0  0  0  0  0
   -2.1516    6.0319  -14.9303 C   0  0  0  0  0  0  0  0  0  0  0  0
   -3.1137    7.1503  -14.9751 C   0  0  0  0  0  0  0  0  0  0  0  0
   -2.9708    8.2872  -14.2752 N   0  0  0  0  0  0  0  0  0  0  0  0
   -3.9916    9.1087  -14.5227 C   0  0  0  0  0  0  0  0  0  0  0  0
   -4.8167    8.4853  -15.4066 N   0  0  0  0  0  0  0  0  0  0  0  0
   -4.2717    7.2948  -15.6748 C   0  0  0  0  0  0  0  0  0  0  0  0
   -5.6960    8.9270  -15.7591 H   0  0  0  0  0  0  0  0  0  0  0  0
  7  8  1  0  0  0
  8  9  2  0  0  0
  8 16  1  0  0  0
  9 10  1  0  0  0
 10 11  2  0  0  0
 10 14  1  0  0  0
 11 12  1  0  0  0
 12 13  1  0  0  0
 13 14  2  0  0  0
 13  1  1  0  0  0
 14 15  1  0  0  0
 15 16  2  0  0  0
  1  2  1  0  0  0
  1  5  1  0  0  0
  2  3  1  0  0  0
  3  4  1  0  0  0
  3 18  1  0  0  0
  4  5  1  0  0  0
  5  6  2  0  0  0
 18 19  2  0  0  0
 18 20  1  0  0  0
 20 22  1  0  0  0
 22 23  1  0  0  0
 23 24  1  0  0  0
 24 25  1  0  0  0
 24 28  2  0  0  0
 25 26  2  0  0  0
 26 27  1  0  0  0
 27 28  1  0  0  0
 12 17  1  0  0  0
 20 21  1  0  0  0
 27 29  1  0  0  0
M  END
> <minimizedAffinity>
-8.99541

$$$$
648


 32 35  0  0  0  0  0  0  0  0999 V2000
    0.9957    8.2048  -14.3276 C   0  0  0  0  0  0  0  0  0  0  0  0
    1.5093    8.4610  -15.4759 O   0  0  0  0  0  0  0  0  0  0  0  0
    1.8425    8.1432  -13.2529 N   0  0  0  0  0  0  0  0  0  0  0  0
    1.4647    7.8561  -11.9040 C   0  0  0  0  0  0  0  0  0  0  0  0
    1.9517    6.4895  -11.5492 C   0  0  0  0  0  0  0  0  0  0  0  0
    3.1277    6.1233  -12.3250 N   0  0  0  0  0  0  0  0  0  0  0  0
    3.9873    7.0764  -12.9443 C   0  0  0  0  0  0  0  0  0  0  0  0
    3.2968    8.3585  -13.3989 C   0  0  0  0  0  0  0  0  0  0  0  0
    3.3064    4.7049  -12.4603 C   0  0  0  0  0  0  0  0  0  0  0  0
    2.3707    3.9484  -11.9643 O   0  0  0  0  0  0  0  0  0  0  0  0
   -1.0560   10.7716  -13.5010 Br  0  0  0  0  0  0  0  0  0  0  0  0
   -1.4190    8.9498  -14.0005 C   0  0  0  0  0  0  0  0  0  0  0  0
   -2.6455    8.3533  -14.1109 C   0  0  0  0  0  0  0  0  0  0  0  0
   -2.4351    7.0858  -14.4809 N   0  0  0  0  0  0  0  0  0  0  0  0
   -1.1497    6.8843  -14.5995 N   0  0  0  0  0  0  0  0  0  0  0  0
   -0.4319    8.0101  -14.3145 C   0  0  0  0  0  0  0  0  0  0  0  0
   -3.5355    6.1519  -14.6862 C   0  0  0  0  0  0  0  0  0  0  0  0
   -4.8870    6.8078  -14.5896 C   0  0  0  0  0  0  0  0  0  0  0  0
    4.4166    4.0797  -13.0907 C   0  0  0  0  0  0  0  0  0  0  0  0
    4.2943    2.9649  -13.9102 N   0  0  0  0  0  0  0  0  0  0  0  0
    5.4650    2.5738  -14.2950 N   0  0  0  0  0  0  0  0  0  0  0  0
    6.4231    3.3481  -13.7942 C   0  0  0  0  0  0  0  0  0  0  0  0
    5.7452    4.3125  -13.0214 C   0  0  0  0  0  0  0  0  0  0  0  0
    3.0522    2.3323  -14.2863 C   0  0  0  0  0  0  0  0  0  0  0  0
    7.8609    3.2828  -13.9842 C   0  0  0  0  0  0  0  0  0  0  0  0
    8.3737    2.1087  -14.0451 O   0  0  0  0  0  0  0  0  0  0  0  0
    8.7090    4.3729  -14.1012 N   0  0  0  0  0  0  0  0  0  0  0  0
   10.1370    4.1156  -14.3134 C   0  0  0  0  0  0  0  0  0  0  0  0
   10.8606    4.8969  -13.2368 C   0  0  0  0  0  0  0  0  0  0  0  0
   10.6306    6.2510  -13.5417 O   0  0  0  0  0  0  0  0  0  0  0  0
    9.3318    6.5772  -13.2661 C   0  0  0  0  0  0  0  0  0  0  0  0
    8.2997    5.7395  -14.0098 C   0  0  0  0  0  0  0  0  0  0  0  0
 11 12  1  0  0  0
 12 13  2  0  0  0
 12 16  1  0  0  0
 13 14  1  0  0  0
 14 15  1  0  0  0
 14 17  1  0  0  0
 15 16  2  0  0  0
 16  1  1  0  0  0
  1  2  2  0  0  0
  1  3  1  0  0  0
  3  4  1  0  0  0
  3  8  1  0  0  0
  4  5  1  0  0  0
  5  6  1  0  0  0
  6  7  1  0  0  0
  6  9  1  0  0  0
  7  8  1  0  0  0
  9 10  2  0  0  0
  9 19  1  0  0  0
 19 20  1  0  0  0
 19 23  2  0  0  0
 20 21  1  0  0  0
 20 24  1  0  0  0
 21 22  2  0  0  0
 22 23  1  0  0  0
 22 25  1  0  0  0
 25 26  2  0  0  0
 25 27  1  0  0  0
 27 28  1  0  0  0
 27 32  1  0  0  0
 28 29  1  0  0  0
 29 30  1  0  0  0
 30 31  1  0  0  0
 31 32  1  0  0  0
 17 18  1  0  0  0
M  END
> <minimizedAffinity>
-6.31726

$$$$
653


 29 32  0  0  0  0  0  0  0  0999 V2000
   -0.0036   12.1965  -13.2985 C   0  0  0  0  0  0  0  0  0  0  0  0
    1.3176   12.3901  -12.9852 C   0  0  0  0  0  0  0  0  0  0  0  0
    2.1903   11.3241  -12.8642 C   0  0  0  0  0  0  0  0  0  0  0  0
    1.7582   10.0303  -13.0540 C   0  0  0  0  0  0  0  0  0  0  0  0
    0.4040    9.8168  -13.3750 C   0  0  0  0  0  0  0  0  0  0  0  0
   -0.4596   10.8733  -13.4955 C   0  0  0  0  0  0  0  0  0  0  0  0
   -1.8640   10.6387  -13.8397 C   0  0  0  0  0  0  0  0  0  0  0  0
   -2.4162    9.2935  -13.5824 C   0  0  0  0  0  0  0  0  0  0  0  0
   -1.4548    8.2142  -13.7702 N   0  0  0  0  0  0  0  0  0  0  0  0
   -0.0765    8.4459  -13.5132 C   0  0  0  0  0  0  0  0  0  0  0  0
    0.7065    7.4538  -13.4090 O   0  0  0  0  0  0  0  0  0  0  0  0
   -1.9818    6.9390  -14.1989 C   0  0  0  0  0  0  0  0  0  0  0  0
    3.4236   11.8602  -12.5498 O   0  0  0  0  0  0  0  0  0  0  0  0
    3.3923   13.2617  -12.6475 C   0  0  0  0  0  0  0  0  0  0  0  0
    2.0107   13.5983  -12.7417 O   0  0  0  0  0  0  0  0  0  0  0  0
    2.6021    8.9398  -12.9434 O   0  0  0  0  0  0  0  0  0  0  0  0
    3.6729    8.7486  -13.8443 C   0  0  0  0  0  0  0  0  0  0  0  0
   -0.9698   13.3117  -13.3919 C   0  0  0  0  0  0  0  0  0  0  0  0
   -0.2923   15.7361  -12.9369 C   0  0  0  0  0  0  0  0  0  0  0  0
   -0.2605   16.0882  -14.1599 O   0  0  0  0  0  0  0  0  0  0  0  0
   -0.6183   14.4505  -12.5631 N   0  0  0  0  0  0  0  0  0  0  0  0
   -0.6304   14.2225  -11.5189 H   0  0  0  0  0  0  0  0  0  0  0  0
    0.0393   16.7704  -11.9202 C   0  0  0  0  0  0  0  0  0  0  0  0
   -3.5630   20.3532   -9.9866 Br  0  0  0  0  0  0  0  0  0  0  0  0
   -2.6492   19.0460  -11.0363 C   0  0  0  0  0  0  0  0  0  0  0  0
   -1.4221   18.4756  -10.7882 C   0  0  0  0  0  0  0  0  0  0  0  0
   -1.1624   17.6126  -11.7651 N   0  0  0  0  0  0  0  0  0  0  0  0
   -2.1943   17.6367  -12.6049 N   0  0  0  0  0  0  0  0  0  0  0  0
   -3.1369   18.5020  -12.2021 C   0  0  0  0  0  0  0  0  0  0  0  0
 24 25  1  0  0  0
 25 26  2  0  0  0
 25 29  1  0  0  0
 26 27  1  0  0  0
 27 28  1  0  0  0
 27 23  1  0  0  0
 28 29  2  0  0  0
 23 19  1  0  0  0
 19 20  2  0  0  0
 19 21  1  0  0  0
 21 18  1  0  0  0
 18  1  1  0  0  0
  1  2  2  0  0  0
  1  6  1  0  0  0
  2  3  1  0  0  0
  2 15  1  0  0  0
  3  4  2  0  0  0
  3 13  1  0  0  0
  4  5  1  0  0  0
  4 16  1  0  0  0
  5  6  2  0  0  0
  5 10  1  0  0  0
  6  7  1  0  0  0
  7  8  1  0  0  0
  8  9  1  0  0  0
  9 10  1  0  0  0
  9 12  1  0  0  0
 10 11  2  0  0  0
 16 17  1  0  0  0
 13 14  1  0  0  0
 14 15  1  0  0  0
 21 22  1  0  0  0
M  END
> <minimizedAffinity>
-9.00455

$$$$
662


 25 29  0  0  0  0  0  0  0  0999 V2000
   -5.7930   21.7879   -9.4790 C   0  0  0  0  0  0  0  0  0  0  0  0
   -6.2399   21.2090  -10.6049 N   0  0  0  0  0  0  0  0  0  0  0  0
   -5.3266   20.3623  -11.0802 N   0  0  0  0  0  0  0  0  0  0  0  0
   -4.2584   20.3971  -10.2329 C   0  0  0  0  0  0  0  0  0  0  0  0
   -4.5700   21.2774   -9.2620 N   0  0  0  0  0  0  0  0  0  0  0  0
   -3.1720   19.5963  -10.5151 C   0  0  0  0  0  0  0  0  0  0  0  0
   -3.1259   18.7636  -11.6192 C   0  0  0  0  0  0  0  0  0  0  0  0
   -1.9506   18.1122  -11.6311 N   0  0  0  0  0  0  0  0  0  0  0  0
   -1.2704   18.5156  -10.5700 N   0  0  0  0  0  0  0  0  0  0  0  0
   -1.9805   19.4202   -9.8641 C   0  0  0  0  0  0  0  0  0  0  0  0
   -4.2000   18.7630  -12.4244 N   0  0  0  0  0  0  0  0  0  0  0  0
   -5.2564   19.5441  -12.1456 C   0  0  0  0  0  0  0  0  0  0  0  0
   -1.6116   17.4162  -12.3290 H   0  0  0  0  0  0  0  0  0  0  0  0
   -6.9711   24.3173   -7.1755 N   0  0  0  0  0  0  0  0  0  0  0  0
   -6.0246   23.5483   -7.6846 N   0  0  0  0  0  0  0  0  0  0  0  0
   -6.5092   22.7715   -8.6683 C   0  0  0  0  0  0  0  0  0  0  0  0
   -7.8470   23.0918   -8.7633 C   0  0  0  0  0  0  0  0  0  0  0  0
   -8.1269   24.0708   -7.8154 C   0  0  0  0  0  0  0  0  0  0  0  0
   -6.7850   25.2828   -6.0891 C   0  0  0  0  0  0  0  0  0  0  0  0
   -1.7929   27.0392   -5.0667 Br  0  0  0  0  0  0  0  0  0  0  0  0
   -3.4874   26.7446   -5.8534 C   0  0  0  0  0  0  0  0  0  0  0  0
   -4.4872   25.9225   -5.3743 C   0  0  0  0  0  0  0  0  0  0  0  0
   -5.5287   25.9911   -6.2198 N   0  0  0  0  0  0  0  0  0  0  0  0
   -5.2160   26.8188   -7.2005 N   0  0  0  0  0  0  0  0  0  0  0  0
   -3.9683   27.3069   -7.0146 C   0  0  0  0  0  0  0  0  0  0  0  0
 20 21  1  0  0  0
 21 22  2  0  0  0
 21 25  1  0  0  0
 22 23  1  0  0  0
 23 24  1  0  0  0
 23 19  1  0  0  0
 24 25  2  0  0  0
 19 14  1  0  0  0
 14 15  1  0  0  0
 14 18  1  0  0  0
 15 16  2  0  0  0
 16 17  1  0  0  0
 16  1  1  0  0  0
 17 18  2  0  0  0
  1  2  2  0  0  0
  1  5  1  0  0  0
  2  3  1  0  0  0
  3  4  1  0  0  0
  3 12  1  0  0  0
  4  5  2  0  0  0
  4  6  1  0  0  0
  6  7  2  0  0  0
  6 10  1  0  0  0
  7  8  1  0  0  0
  7 11  1  0  0  0
  8  9  1  0  0  0
  9 10  2  0  0  0
 11 12  2  0  0  0
  8 13  1  0  0  0
M  END
> <minimizedAffinity>
-9.02750

$$$$
663


 28 31  0  0  0  0  0  0  0  0999 V2000
    2.5391    9.2401  -13.0672 C   0  0  0  0  0  0  0  0  0  0  0  0
    3.4633    9.0439  -13.9529 O   0  0  0  0  0  0  0  0  0  0  0  0
    2.1056    8.1116  -12.3923 N   0  0  0  0  0  0  0  0  0  0  0  0
    1.1549    7.9459  -11.3261 C   0  0  0  0  0  0  0  0  0  0  0  0
   -0.1386    7.4634  -11.9536 C   0  0  0  0  0  0  0  0  0  0  0  0
    0.1517    6.4981  -13.0852 C   0  0  0  0  0  0  0  0  0  0  0  0
   -0.8499    5.4560  -13.0254 N   0  0  0  0  0  0  0  0  0  0  0  0
   -1.9952    5.9110  -13.7303 C   0  0  0  0  0  0  0  0  0  0  0  0
   -3.1934    5.4883  -13.6375 O   0  0  0  0  0  0  0  0  0  0  0  0
   -1.5510    6.9666  -14.5972 N   0  0  0  0  0  0  0  0  0  0  0  0
   -0.1311    7.1245  -14.3900 C   0  0  0  0  0  0  0  0  0  0  0  0
    0.6392    7.6878  -15.1970 O   0  0  0  0  0  0  0  0  0  0  0  0
    1.5019    5.8632  -12.9958 C   0  0  0  0  0  0  0  0  0  0  0  0
    2.6559    6.7953  -12.8443 C   0  0  0  0  0  0  0  0  0  0  0  0
   -0.7873    4.5286  -12.5623 H   0  0  0  0  0  0  0  0  0  0  0  0
   -2.1045    7.5433  -15.2678 H   0  0  0  0  0  0  0  0  0  0  0  0
    1.0934   13.2743  -12.6994 C   0  0  0  0  0  0  0  0  0  0  0  0
    0.3662   12.2747  -13.2977 C   0  0  0  0  0  0  0  0  0  0  0  0
    0.8494   10.9991  -13.4168 C   0  0  0  0  0  0  0  0  0  0  0  0
    2.1204   10.6174  -12.9396 C   0  0  0  0  0  0  0  0  0  0  0  0
    2.8377   11.6268  -12.3415 C   0  0  0  0  0  0  0  0  0  0  0  0
    2.3311   12.9310  -12.2267 C   0  0  0  0  0  0  0  0  0  0  0  0
   -2.0951   17.6281  -13.2725 Br  0  0  0  0  0  0  0  0  0  0  0  0
   -0.6854   16.4147  -12.7749 C   0  0  0  0  0  0  0  0  0  0  0  0
   -0.5514   15.0934  -13.1413 C   0  0  0  0  0  0  0  0  0  0  0  0
    0.5666   14.5884  -12.5897 N   0  0  0  0  0  0  0  0  0  0  0  0
    1.1175   15.5639  -11.8988 N   0  0  0  0  0  0  0  0  0  0  0  0
    0.4037   16.6851  -11.9766 C   0  0  0  0  0  0  0  0  0  0  0  0
 23 24  1  0  0  0
 24 25  2  0  0  0
 24 28  1  0  0  0
 25 26  1  0  0  0
 26 27  1  0  0  0
 26 17  1  0  0  0
 27 28  2  0  0  0
 17 18  2  0  0  0
 17 22  1  0  0  0
 18 19  1  0  0  0
 19 20  2  0  0  0
 20 21  1  0  0  0
 20  1  1  0  0  0
 21 22  2  0  0  0
  1  2  2  0  0  0
  1  3  1  0  0  0
  3  4  1  0  0  0
  3 14  1  0  0  0
  4  5  1  0  0  0
  5  6  1  0  0  0
  6  7  1  0  0  0
  6 11  1  0  0  0
  6 13  1  0  0  0
  7  8  1  0  0  0
  8  9  2  0  0  0
  8 10  1  0  0  0
 10 11  1  0  0  0
 11 12  2  0  0  0
 13 14  1  0  0  0
  7 15  1  0  0  0
 10 16  1  0  0  0
M  END
> <minimizedAffinity>
-8.44296

$$$$
666


 28 31  0  0  0  0  0  0  0  0999 V2000
    2.3085    6.5181  -12.5180 C   0  0  0  0  0  0  0  0  0  0  0  0
    2.9863    7.4146  -13.1720 C   0  0  0  0  0  0  0  0  0  0  0  0
    4.2252    6.7670  -13.6065 C   0  0  0  0  0  0  0  0  0  0  0  0
    5.1329    7.3523  -14.2755 O   0  0  0  0  0  0  0  0  0  0  0  0
    4.2700    5.3988  -13.1760 N   0  0  0  0  0  0  0  0  0  0  0  0
    3.0390    5.2284  -12.4747 C   0  0  0  0  0  0  0  0  0  0  0  0
    2.6454    4.1692  -11.9187 O   0  0  0  0  0  0  0  0  0  0  0  0
    5.3065    4.4554  -13.3953 C   0  0  0  0  0  0  0  0  0  0  0  0
    6.6014    4.6472  -12.9865 C   0  0  0  0  0  0  0  0  0  0  0  0
    7.6030    3.6787  -13.2070 C   0  0  0  0  0  0  0  0  0  0  0  0
    7.3022    2.4982  -13.8472 C   0  0  0  0  0  0  0  0  0  0  0  0
    6.0085    2.3015  -14.2578 C   0  0  0  0  0  0  0  0  0  0  0  0
    5.0302    3.2708  -14.0315 C   0  0  0  0  0  0  0  0  0  0  0  0
    2.6346    8.7715  -13.4501 N   0  0  0  0  0  0  0  0  0  0  0  0
    2.1936    9.1131  -14.6743 C   0  0  0  0  0  0  0  0  0  0  0  0
    1.8473   10.4400  -14.9836 C   0  0  0  0  0  0  0  0  0  0  0  0
    1.9597   11.4232  -14.0184 C   0  0  0  0  0  0  0  0  0  0  0  0
    2.4134   11.0482  -12.7720 C   0  0  0  0  0  0  0  0  0  0  0  0
    2.7396    9.7434  -12.5113 C   0  0  0  0  0  0  0  0  0  0  0  0
    1.0440    6.6381  -11.8944 N   0  0  0  0  0  0  0  0  0  0  0  0
    0.9597    6.6299  -10.8783 H   0  0  0  0  0  0  0  0  0  0  0  0
   -3.8496    7.1024  -15.5459 Br  0  0  0  0  0  0  0  0  0  0  0  0
   -2.3300    6.9610  -14.3948 C   0  0  0  0  0  0  0  0  0  0  0  0
   -1.6659    5.7772  -14.2094 C   0  0  0  0  0  0  0  0  0  0  0  0
   -0.6000    5.7043  -13.4044 N   0  0  0  0  0  0  0  0  0  0  0  0
   -0.0970    6.7664  -12.7200 C   0  0  0  0  0  0  0  0  0  0  0  0
   -0.7838    7.9712  -12.9141 C   0  0  0  0  0  0  0  0  0  0  0  0
   -1.8758    8.0776  -13.7319 C   0  0  0  0  0  0  0  0  0  0  0  0
 22 23  1  0  0  0
 23 24  2  0  0  0
 23 28  1  0  0  0
 24 25  1  0  0  0
 25 26  2  0  0  0
 26 27  1  0  0  0
 26 20  1  0  0  0
 27 28  2  0  0  0
 20  1  1  0  0  0
  1  2  2  0  0  0
  1  6  1  0  0  0
  2  3  1  0  0  0
  2 14  1  0  0  0
  3  4  2  0  0  0
  3  5  1  0  0  0
  5  6  1  0  0  0
  5  8  1  0  0  0
  6  7  2  0  0  0
  8  9  2  0  0  0
  8 13  1  0  0  0
  9 10  1  0  0  0
 10 11  2  0  0  0
 11 12  1  0  0  0
 12 13  2  0  0  0
 14 15  2  0  0  0
 14 19  1  0  0  0
 15 16  1  0  0  0
 16 17  2  0  0  0
 17 18  1  0  0  0
 18 19  2  0  0  0
 20 21  1  0  0  0
M  END
> <minimizedAffinity>
-8.51012

$$$$
670


 23 26  0  0  0  0  0  0  0  0999 V2000
    2.1728   13.7716  -12.6879 C   0  0  0  0  0  0  0  0  0  0  0  0
    1.7873   12.3947  -12.8516 N   0  0  0  0  0  0  0  0  0  0  0  0
    0.4637   12.0626  -13.1403 N   0  0  0  0  0  0  0  0  0  0  0  0
    0.0358   10.7184  -13.3107 C   0  0  0  0  0  0  0  0  0  0  0  0
   -1.2288   10.4595  -13.5829 C   0  0  0  0  0  0  0  0  0  0  0  0
   -2.6446   10.7824  -13.8499 C   0  0  0  0  0  0  0  0  0  0  0  0
   -2.2565    9.3806  -13.8589 C   0  0  0  0  0  0  0  0  0  0  0  0
    0.9832    9.6281  -13.1867 C   0  0  0  0  0  0  0  0  0  0  0  0
    2.2445    9.9195  -12.9126 C   0  0  0  0  0  0  0  0  0  0  0  0
    2.6998   11.3136  -12.7345 C   0  0  0  0  0  0  0  0  0  0  0  0
    3.9065   11.5641  -12.4741 O   0  0  0  0  0  0  0  0  0  0  0  0
   -0.2236   12.8668  -13.2293 H   0  0  0  0  0  0  0  0  0  0  0  0
    0.0264   16.3387  -12.3440 N   0  0  0  0  0  0  0  0  0  0  0  0
    1.1786   15.8699  -11.6297 C   0  0  0  0  0  0  0  0  0  0  0  0
    0.9449   14.5572  -12.3507 C   0  0  0  0  0  0  0  0  0  0  0  0
    0.4781   15.5224  -13.4347 C   0  0  0  0  0  0  0  0  0  0  0  0
   -4.6444   20.0896  -11.2355 Br  0  0  0  0  0  0  0  0  0  0  0  0
   -3.1837   18.9080  -11.5956 C   0  0  0  0  0  0  0  0  0  0  0  0
   -2.1383   18.7983  -10.7068 C   0  0  0  0  0  0  0  0  0  0  0  0
   -1.1356   17.9730  -10.9757 N   0  0  0  0  0  0  0  0  0  0  0  0
   -1.0425   17.2021  -12.0807 C   0  0  0  0  0  0  0  0  0  0  0  0
   -2.0825   17.3166  -12.9588 N   0  0  0  0  0  0  0  0  0  0  0  0
   -3.1250   18.1370  -12.7367 C   0  0  0  0  0  0  0  0  0  0  0  0
 17 18  1  0  0  0
 18 19  2  0  0  0
 18 23  1  0  0  0
 19 20  1  0  0  0
 20 21  2  0  0  0
 21 22  1  0  0  0
 21 13  1  0  0  0
 22 23  2  0  0  0
 13 14  1  0  0  0
 13 16  1  0  0  0
 14 15  1  0  0  0
 15 16  1  0  0  0
 15  1  1  0  0  0
  1  2  1  0  0  0
  2  3  1  0  0  0
  2 10  1  0  0  0
  3  4  1  0  0  0
  4  5  2  0  0  0
  4  8  1  0  0  0
  5  6  1  0  0  0
  5  7  1  0  0  0
  6  7  1  0  0  0
  8  9  2  0  0  0
  9 10  1  0  0  0
 10 11  2  0  0  0
  3 12  1  0  0  0
M  END
> <minimizedAffinity>
-8.08058

$$$$
677


 29 32  0  0  0  0  0  0  0  0999 V2000
   -2.1159    9.4366  -13.4957 C   0  0  0  0  0  0  0  0  0  0  0  0
   -1.7766    8.0865  -13.8648 C   0  0  0  0  0  0  0  0  0  0  0  0
   -0.4962    7.7644  -14.1294 C   0  0  0  0  0  0  0  0  0  0  0  0
    0.5267    8.7273  -14.0520 C   0  0  0  0  0  0  0  0  0  0  0  0
    0.2206   10.0203  -13.7035 C   0  0  0  0  0  0  0  0  0  0  0  0
   -1.1114   10.3685  -13.4280 C   0  0  0  0  0  0  0  0  0  0  0  0
   -1.4736   11.7807  -13.1429 C   0  0  0  0  0  0  0  0  0  0  0  0
   -0.4137   12.7847  -13.5836 C   0  0  0  0  0  0  0  0  0  0  0  0
    0.9112   12.3736  -13.1825 N   0  0  0  0  0  0  0  0  0  0  0  0
    1.2581   11.0396  -13.5795 C   0  0  0  0  0  0  0  0  0  0  0  0
    2.4670   10.8219  -13.8022 O   0  0  0  0  0  0  0  0  0  0  0  0
    1.8091   13.2345  -12.4430 C   0  0  0  0  0  0  0  0  0  0  0  0
    1.7801    8.3262  -14.3300 O   0  0  0  0  0  0  0  0  0  0  0  0
   -0.4720    6.3998  -14.4562 O   0  0  0  0  0  0  0  0  0  0  0  0
   -1.7169    5.8101  -14.1467 C   0  0  0  0  0  0  0  0  0  0  0  0
   -2.5594    6.9385  -14.0198 O   0  0  0  0  0  0  0  0  0  0  0  0
    2.6160    8.8015  -14.3417 H   0  0  0  0  0  0  0  0  0  0  0  0
   -3.5341    9.5727  -13.2408 C   0  0  0  0  0  0  0  0  0  0  0  0
   -5.8889    9.9907  -13.6821 C   0  0  0  0  0  0  0  0  0  0  0  0
   -6.1079    9.6468  -12.5085 O   0  0  0  0  0  0  0  0  0  0  0  0
   -4.4943    9.9812  -14.1696 N   0  0  0  0  0  0  0  0  0  0  0  0
   -4.4357   10.3221  -15.1402 H   0  0  0  0  0  0  0  0  0  0  0  0
   -9.8066   13.3682  -14.9770 Br  0  0  0  0  0  0  0  0  0  0  0  0
   -8.7409   11.8067  -15.2473 C   0  0  0  0  0  0  0  0  0  0  0  0
   -8.9685   10.9901  -16.3092 C   0  0  0  0  0  0  0  0  0  0  0  0
   -8.2331    9.8975  -16.5105 N   0  0  0  0  0  0  0  0  0  0  0  0
   -7.2486    9.5920  -15.6530 C   0  0  0  0  0  0  0  0  0  0  0  0
   -6.9710   10.3913  -14.5497 C   0  0  0  0  0  0  0  0  0  0  0  0
   -7.7258   11.5218  -14.3351 C   0  0  0  0  0  0  0  0  0  0  0  0
 23 24  1  0  0  0
 24 25  2  0  0  0
 24 29  1  0  0  0
 25 26  1  0  0  0
 26 27  2  0  0  0
 27 28  1  0  0  0
 28 29  2  0  0  0
 28 19  1  0  0  0
 19 20  2  0  0  0
 19 21  1  0  0  0
 21 18  1  0  0  0
 18  1  1  0  0  0
  1  2  2  0  0  0
  1  6  1  0  0  0
  2  3  1  0  0  0
  2 16  1  0  0  0
  3  4  2  0  0  0
  3 14  1  0  0  0
  4  5  1  0  0  0
  4 13  1  0  0  0
  5  6  2  0  0  0
  5 10  1  0  0  0
  6  7  1  0  0  0
  7  8  1  0  0  0
  8  9  1  0  0  0
  9 10  1  0  0  0
  9 12  1  0  0  0
 10 11  2  0  0  0
 14 15  1  0  0  0
 15 16  1  0  0  0
 21 22  1  0  0  0
 13 17  1  0  0  0
M  END
> <minimizedAffinity>
-9.69964

$$$$
680


 24 27  0  0  0  0  0  0  0  0999 V2000
   -4.2993    8.5088  -14.2968 C   0  0  0  0  0  0  0  0  0  0  0  0
   -4.4609    7.3104  -14.7340 O   0  0  0  0  0  0  0  0  0  0  0  0
   -2.9850    8.9174  -14.0024 N   0  0  0  0  0  0  0  0  0  0  0  0
   -2.2853   10.0594  -13.5022 C   0  0  0  0  0  0  0  0  0  0  0  0
   -1.2048    9.0876  -12.9946 C   0  0  0  0  0  0  0  0  0  0  0  0
   -1.6667    8.2646  -14.1368 C   0  0  0  0  0  0  0  0  0  0  0  0
    0.1103    9.6606  -13.0771 N   0  0  0  0  0  0  0  0  0  0  0  0
    0.4839   10.9818  -13.5112 C   0  0  0  0  0  0  0  0  0  0  0  0
   -0.2588   11.9781  -13.4743 O   0  0  0  0  0  0  0  0  0  0  0  0
    1.9053   10.8615  -13.9870 C   0  0  0  0  0  0  0  0  0  0  0  0
    2.4524    9.9112  -12.9482 C   0  0  0  0  0  0  0  0  0  0  0  0
    3.6941    9.2206  -13.4400 C   0  0  0  0  0  0  0  0  0  0  0  0
    3.3858    8.4658  -14.6842 C   0  0  0  0  0  0  0  0  0  0  0  0
    2.5366    9.0054  -15.5344 C   0  0  0  0  0  0  0  0  0  0  0  0
    1.8576   10.2980  -15.3661 C   0  0  0  0  0  0  0  0  0  0  0  0
    1.3182    8.9930  -12.7293 C   0  0  0  0  0  0  0  0  0  0  0  0
    1.4548    7.8198  -12.3031 O   0  0  0  0  0  0  0  0  0  0  0  0
   -8.7476   10.6676  -16.4705 Br  0  0  0  0  0  0  0  0  0  0  0  0
   -7.5528   10.2988  -15.0353 C   0  0  0  0  0  0  0  0  0  0  0  0
   -7.8438   10.7774  -13.7802 C   0  0  0  0  0  0  0  0  0  0  0  0
   -7.0033   10.5223  -12.7452 N   0  0  0  0  0  0  0  0  0  0  0  0
   -5.8853    9.8101  -12.9226 C   0  0  0  0  0  0  0  0  0  0  0  0
   -5.5101    9.2844  -14.1663 C   0  0  0  0  0  0  0  0  0  0  0  0
   -6.3881    9.5631  -15.1889 C   0  0  0  0  0  0  0  0  0  0  0  0
 18 19  1  0  0  0
 19 20  2  0  0  0
 19 24  1  0  0  0
 20 21  1  0  0  0
 21 22  2  0  0  0
 22 23  1  0  0  0
 23 24  2  0  0  0
 23  1  1  0  0  0
  1  2  2  0  0  0
  1  3  1  0  0  0
  3  4  1  0  0  0
  3  6  1  0  0  0
  4  5  1  0  0  0
  5  6  1  0  0  0
  5  7  1  0  0  0
  7  8  1  0  0  0
  7 16  1  0  0  0
  8  9  2  0  0  0
  8 10  1  0  0  0
 10 11  1  0  0  0
 10 15  1  0  0  0
 11 12  1  0  0  0
 11 16  1  0  0  0
 12 13  1  0  0  0
 13 14  2  0  0  0
 14 15  1  0  0  0
 16 17  2  0  0  0
M  END
> <minimizedAffinity>
-8.36308

$$$$
681


 25 28  0  0  0  0  0  0  0  0999 V2000
   -2.9378    7.3311  -14.5311 C   0  0  0  0  0  0  0  0  0  0  0  0
   -2.8772    6.1814  -15.0675 O   0  0  0  0  0  0  0  0  0  0  0  0
   -4.1499    8.0308  -14.5811 N   0  0  0  0  0  0  0  0  0  0  0  0
   -4.7394    9.2721  -14.1550 C   0  0  0  0  0  0  0  0  0  0  0  0
   -6.1333    8.8273  -14.5711 C   0  0  0  0  0  0  0  0  0  0  0  0
   -5.4339    7.6678  -15.2131 C   0  0  0  0  0  0  0  0  0  0  0  0
    1.6074    6.1027  -12.0585 Br  0  0  0  0  0  0  0  0  0  0  0  0
    0.3453    7.3726  -12.7583 C   0  0  0  0  0  0  0  0  0  0  0  0
    0.6213    8.7140  -12.6243 C   0  0  0  0  0  0  0  0  0  0  0  0
   -0.2719    9.5780  -13.1195 N   0  0  0  0  0  0  0  0  0  0  0  0
   -1.4187    9.1698  -13.7373 C   0  0  0  0  0  0  0  0  0  0  0  0
   -1.7484    7.8482  -13.9016 C   0  0  0  0  0  0  0  0  0  0  0  0
   -0.8024    6.9476  -13.3778 C   0  0  0  0  0  0  0  0  0  0  0  0
   -6.8368    9.6733  -15.4260 O   0  0  0  0  0  0  0  0  0  0  0  0
   -7.6436   10.7262  -15.0459 C   0  0  0  0  0  0  0  0  0  0  0  0
   -7.3720   11.3966  -13.9292 C   0  0  0  0  0  0  0  0  0  0  0  0
   -8.1855   12.5172  -13.4749 C   0  0  0  0  0  0  0  0  0  0  0  0
   -7.8860   13.1617  -12.3609 C   0  0  0  0  0  0  0  0  0  0  0  0
   -9.3032   12.8827  -14.2720 N   0  0  0  0  0  0  0  0  0  0  0  0
   -9.5724   12.1404  -15.4715 C   0  0  0  0  0  0  0  0  0  0  0  0
   -8.7847   11.1183  -15.8350 N   0  0  0  0  0  0  0  0  0  0  0  0
   -9.2522   10.5995  -16.9752 N   0  0  0  0  0  0  0  0  0  0  0  0
  -10.3354   11.3075  -17.3138 C   0  0  0  0  0  0  0  0  0  0  0  0
  -10.5346   12.2548  -16.3920 N   0  0  0  0  0  0  0  0  0  0  0  0
   -9.8873   13.6765  -13.9597 H   0  0  0  0  0  0  0  0  0  0  0  0
  7  8  1  0  0  0
  8  9  2  0  0  0
  8 13  1  0  0  0
  9 10  1  0  0  0
 10 11  2  0  0  0
 11 12  1  0  0  0
 12 13  2  0  0  0
 12  1  1  0  0  0
  1  2  2  0  0  0
  1  3  1  0  0  0
  3  4  1  0  0  0
  3  6  1  0  0  0
  4  5  1  0  0  0
  5  6  1  0  0  0
  5 14  1  0  0  0
 14 15  1  0  0  0
 15 16  2  0  0  0
 15 21  1  0  0  0
 16 17  1  0  0  0
 17 18  2  0  0  0
 17 19  1  0  0  0
 19 20  1  0  0  0
 20 21  1  0  0  0
 20 24  2  0  0  0
 21 22  1  0  0  0
 22 23  2  0  0  0
 23 24  1  0  0  0
 19 25  1  0  0  0
M  END
> <minimizedAffinity>
-8.96987

$$$$
683


 20 22  0  0  0  0  0  0  0  0999 V2000
   -1.3805    6.2690  -13.5244 N   0  0  0  0  0  0  0  0  0  0  0  0
   -1.9856    5.5703  -14.6463 C   0  0  0  0  0  0  0  0  0  0  0  0
   -2.5359    6.5256  -15.6812 C   0  0  0  0  0  0  0  0  0  0  0  0
   -3.9790    6.8696  -15.3564 C   0  0  0  0  0  0  0  0  0  0  0  0
   -4.0532    7.8307  -14.1916 C   0  0  0  0  0  0  0  0  0  0  0  0
   -2.7179    8.3926  -13.9344 C   0  0  0  0  0  0  0  0  0  0  0  0
   -1.5694    7.6955  -13.6458 C   0  0  0  0  0  0  0  0  0  0  0  0
   -0.4317    8.3629  -13.4375 N   0  0  0  0  0  0  0  0  0  0  0  0
   -0.3664    9.6958  -13.4983 C   0  0  0  0  0  0  0  0  0  0  0  0
   -1.5004   10.4120  -13.7843 C   0  0  0  0  0  0  0  0  0  0  0  0
   -2.6906    9.7489  -14.0040 C   0  0  0  0  0  0  0  0  0  0  0  0
   -3.8663   10.5189  -14.3017 N   0  0  0  0  0  0  0  0  0  0  0  0
   -1.4897   11.8022  -13.8601 C   0  0  0  0  0  0  0  0  0  0  0  0
   -0.2990   12.4480  -13.6384 C   0  0  0  0  0  0  0  0  0  0  0  0
    0.8359   11.7299  -13.3522 C   0  0  0  0  0  0  0  0  0  0  0  0
    0.8140   10.3378  -13.2791 C   0  0  0  0  0  0  0  0  0  0  0  0
    0.0554    6.0147  -13.5672 C   0  0  0  0  0  0  0  0  0  0  0  0
   -1.7804    5.9243  -12.6217 H   0  0  0  0  0  0  0  0  0  0  0  0
   -4.3158   10.4308  -15.2266 H   0  0  0  0  0  0  0  0  0  0  0  0
   -4.2767   11.1720  -13.5953 H   0  0  0  0  0  0  0  0  0  0  0  0
  1  2  1  0  0  0
  1  7  1  0  0  0
  1 17  1  0  0  0
  2  3  1  0  0  0
  3  4  1  0  0  0
  4  5  1  0  0  0
  5  6  1  0  0  0
  6  7  2  0  0  0
  6 11  1  0  0  0
  7  8  1  0  0  0
  8  9  2  0  0  0
  9 10  1  0  0  0
  9 16  1  0  0  0
 10 11  2  0  0  0
 10 13  1  0  0  0
 11 12  1  0  0  0
 13 14  2  0  0  0
 14 15  1  0  0  0
 15 16  2  0  0  0
  1 18  1  0  0  0
 12 19  1  0  0  0
 12 20  1  0  0  0
M  CHG 1   1   1
M  END
> <minimizedAffinity>
-7.52522

$$$$
684


 19 21  0  0  0  0  0  0  0  0999 V2000
   -2.9163   17.8058  -13.6679 N   0  0  0  0  0  0  0  0  0  0  0  0
   -2.2898   16.6349  -13.0268 C   0  0  0  0  0  0  0  0  0  0  0  0
   -0.9375   17.0298  -12.5312 C   0  0  0  0  0  0  0  0  0  0  0  0
   -1.0830   18.1263  -11.5105 C   0  0  0  0  0  0  0  0  0  0  0  0
   -2.3987   18.7867  -11.5056 C   0  0  0  0  0  0  0  0  0  0  0  0
   -3.2859   18.6355  -12.5477 C   0  0  0  0  0  0  0  0  0  0  0  0
   -4.4589   19.2618  -12.4807 N   0  0  0  0  0  0  0  0  0  0  0  0
   -4.8315   20.0421  -11.4439 C   0  0  0  0  0  0  0  0  0  0  0  0
   -3.9681   20.2164  -10.3828 C   0  0  0  0  0  0  0  0  0  0  0  0
   -2.7432   19.5872  -10.4082 C   0  0  0  0  0  0  0  0  0  0  0  0
   -1.8552   19.7695   -9.3115 N   0  0  0  0  0  0  0  0  0  0  0  0
   -4.3503   21.0228   -9.3089 C   0  0  0  0  0  0  0  0  0  0  0  0
   -5.5703   21.6601   -9.2636 C   0  0  0  0  0  0  0  0  0  0  0  0
   -6.4299   21.4826  -10.3286 C   0  0  0  0  0  0  0  0  0  0  0  0
   -6.0513   20.6818  -11.3956 C   0  0  0  0  0  0  0  0  0  0  0  0
   -4.0847   17.3025  -14.3607 C   0  0  0  0  0  0  0  0  0  0  0  0
   -2.2472   18.2776  -14.2988 H   0  0  0  0  0  0  0  0  0  0  0  0
   -2.1267   19.3269   -8.4060 H   0  0  0  0  0  0  0  0  0  0  0  0
   -0.9739   20.3013   -9.3476 H   0  0  0  0  0  0  0  0  0  0  0  0
  1  2  1  0  0  0
  1  6  1  0  0  0
  1 16  1  0  0  0
  2  3  1  0  0  0
  3  4  1  0  0  0
  4  5  1  0  0  0
  5  6  2  0  0  0
  5 10  1  0  0  0
  6  7  1  0  0  0
  7  8  2  0  0  0
  8  9  1  0  0  0
  8 15  1  0  0  0
  9 10  2  0  0  0
  9 12  1  0  0  0
 10 11  1  0  0  0
 12 13  2  0  0  0
 13 14  1  0  0  0
 14 15  2  0  0  0
  1 17  1  0  0  0
 11 18  1  0  0  0
 11 19  1  0  0  0
M  CHG 1   1   1
M  END
> <minimizedAffinity>
-9.02553

$$$$
692


 29 32  0  0  0  0  0  0  0  0999 V2000
    7.7768    5.5481  -14.2221 Br  0  0  0  0  0  0  0  0  0  0  0  0
    6.0694    5.1096  -13.5138 C   0  0  0  0  0  0  0  0  0  0  0  0
    5.0989    6.0890  -13.4235 C   0  0  0  0  0  0  0  0  0  0  0  0
    3.8190    5.8325  -12.9093 C   0  0  0  0  0  0  0  0  0  0  0  0
    3.5143    4.5652  -12.4792 C   0  0  0  0  0  0  0  0  0  0  0  0
    4.4802    3.5811  -12.5669 C   0  0  0  0  0  0  0  0  0  0  0  0
    5.7371    3.8325  -13.0716 C   0  0  0  0  0  0  0  0  0  0  0  0
    4.0916    1.8128  -11.9801 Br  0  0  0  0  0  0  0  0  0  0  0  0
    2.8330    6.9027  -12.8212 C   0  0  0  0  0  0  0  0  0  0  0  0
    1.9116    6.7333  -11.9763 O   0  0  0  0  0  0  0  0  0  0  0  0
    2.8985    8.0989  -13.6533 C   0  0  0  0  0  0  0  0  0  0  0  0
    4.2298    8.0744  -14.4505 C   0  0  0  0  0  0  0  0  0  0  0  0
    5.2583    7.4066  -13.8163 O   0  0  0  0  0  0  0  0  0  0  0  0
    1.8761    8.2722  -14.6801 C   0  0  0  0  0  0  0  0  0  0  0  0
    0.5020    8.3257  -14.4864 N   0  0  0  0  0  0  0  0  0  0  0  0
   -0.0568    9.0594  -13.3942 C   0  0  0  0  0  0  0  0  0  0  0  0
   -1.5020    9.4261  -13.8192 C   0  0  0  0  0  0  0  0  0  0  0  0
   -2.2796    8.1294  -13.7318 C   0  0  0  0  0  0  0  0  0  0  0  0
   -1.3636    6.9260  -13.7071 C   0  0  0  0  0  0  0  0  0  0  0  0
   -0.2138    7.0731  -14.6804 C   0  0  0  0  0  0  0  0  0  0  0  0
    0.1530    8.9064  -15.3354 H   0  0  0  0  0  0  0  0  0  0  0  0
    2.9123    9.3076  -12.7305 C   0  0  0  0  0  0  0  0  0  0  0  0
    3.8518   10.3207  -13.1442 N   0  0  0  0  0  0  0  0  0  0  0  0
    4.0452   11.2325  -12.0257 C   0  0  0  0  0  0  0  0  0  0  0  0
    2.7157   11.7368  -11.5718 C   0  0  0  0  0  0  0  0  0  0  0  0
    1.8724   12.3415  -12.6335 C   0  0  0  0  0  0  0  0  0  0  0  0
    1.9865   11.7134  -13.9794 C   0  0  0  0  0  0  0  0  0  0  0  0
    3.3769   11.1700  -14.2213 C   0  0  0  0  0  0  0  0  0  0  0  0
    4.7436    9.9064  -13.4683 H   0  0  0  0  0  0  0  0  0  0  0  0
  1  2  1  0  0  0
  2  3  2  0  0  0
  2  7  1  0  0  0
  3  4  1  0  0  0
  3 13  1  0  0  0
  4  5  2  0  0  0
  4  9  1  0  0  0
  5  6  1  0  0  0
  6  7  2  0  0  0
  6  8  1  0  0  0
  9 10  2  0  0  0
  9 11  1  0  0  0
 11 12  1  0  0  0
 11 14  1  0  0  0
 11 22  1  0  0  0
 12 13  1  0  0  0
 14 15  1  0  0  0
 15 16  1  0  0  0
 15 20  1  0  0  0
 16 17  1  0  0  0
 17 18  1  0  0  0
 18 19  1  0  0  0
 19 20  1  0  0  0
 22 23  1  0  0  0
 23 24  1  0  0  0
 23 28  1  0  0  0
 24 25  1  0  0  0
 25 26  1  0  0  0
 26 27  1  0  0  0
 27 28  1  0  0  0
 15 21  1  0  0  0
 23 29  1  0  0  0
M  CHG 1  15   1
M  CHG 1  23   1
M  END
> <minimizedAffinity>
-6.21343

$$$$
693


 33 36  0  0  0  0  0  0  0  0999 V2000
    2.5056    6.8305  -12.9688 N   0  0  0  0  0  0  0  0  0  0  0  0
    1.3019    6.5250  -12.2956 C   0  0  0  0  0  0  0  0  0  0  0  0
    1.1852    5.4564  -11.6607 O   0  0  0  0  0  0  0  0  0  0  0  0
    2.6730    7.7012  -13.5167 H   0  0  0  0  0  0  0  0  0  0  0  0
    9.7910    6.4673  -14.4995 Br  0  0  0  0  0  0  0  0  0  0  0  0
    8.2893    5.4827  -13.8370 C   0  0  0  0  0  0  0  0  0  0  0  0
    7.0363    6.0518  -13.7364 C   0  0  0  0  0  0  0  0  0  0  0  0
    5.9424    5.3488  -13.2610 C   0  0  0  0  0  0  0  0  0  0  0  0
    6.1670    4.0413  -12.8886 C   0  0  0  0  0  0  0  0  0  0  0  0
    7.4023    3.4394  -12.9734 C   0  0  0  0  0  0  0  0  0  0  0  0
    8.4866    4.1565  -13.4519 C   0  0  0  0  0  0  0  0  0  0  0  0
    7.6457    1.6199  -12.4405 Br  0  0  0  0  0  0  0  0  0  0  0  0
    4.7467    6.1784  -13.2611 C   0  0  0  0  0  0  0  0  0  0  0  0
    3.5494    5.9027  -12.9018 N   0  0  0  0  0  0  0  0  0  0  0  0
    5.1704    7.4828  -13.7817 C   0  0  0  0  0  0  0  0  0  0  0  0
    4.3958    8.4662  -13.9269 O   0  0  0  0  0  0  0  0  0  0  0  0
    6.5521    7.3530  -14.0512 N   0  0  0  0  0  0  0  0  0  0  0  0
    7.1436    8.1112  -14.4313 H   0  0  0  0  0  0  0  0  0  0  0  0
    0.1225    7.4472  -12.3060 C   0  0  0  0  0  0  0  0  0  0  0  0
    0.4408    8.7206  -12.8911 N   0  0  0  0  0  0  0  0  0  0  0  0
   -0.5512    9.6629  -13.2760 C   0  0  0  0  0  0  0  0  0  0  0  0
   -1.7525    9.3670  -13.0954 O   0  0  0  0  0  0  0  0  0  0  0  0
    1.4334    9.0089  -13.0582 H   0  0  0  0  0  0  0  0  0  0  0  0
   -0.2359   10.9887  -13.8877 C   0  0  0  0  0  0  0  0  0  0  0  0
    1.1235   11.2962  -13.7949 O   0  0  0  0  0  0  0  0  0  0  0  0
    1.6617   12.2877  -12.9775 C   0  0  0  0  0  0  0  0  0  0  0  0
    0.8018   13.2521  -12.5225 C   0  0  0  0  0  0  0  0  0  0  0  0
    1.3135   14.2583  -11.7029 C   0  0  0  0  0  0  0  0  0  0  0  0
    2.6403   14.3137  -11.3414 C   0  0  0  0  0  0  0  0  0  0  0  0
    3.4772   13.3241  -11.8197 C   0  0  0  0  0  0  0  0  0  0  0  0
    2.9782   12.3295  -12.6277 C   0  0  0  0  0  0  0  0  0  0  0  0
   -0.5184   13.2063  -12.8764 O   0  0  0  0  0  0  0  0  0  0  0  0
   -1.1403   12.0692  -13.4081 C   0  0  0  0  0  0  0  0  0  0  0  0
  5  6  1  0  0  0
  6  7  2  0  0  0
  6 11  1  0  0  0
  7  8  1  0  0  0
  7 17  1  0  0  0
  8  9  2  0  0  0
  8 13  1  0  0  0
  9 10  1  0  0  0
 10 11  2  0  0  0
 10 12  1  0  0  0
 13 14  2  0  0  0
 13 15  1  0  0  0
 14  1  1  0  0  0
  1  2  1  0  0  0
  2  3  2  0  0  0
  2 19  1  0  0  0
 19 20  1  0  0  0
 20 21  1  0  0  0
 21 22  2  0  0  0
 21 24  1  0  0  0
 24 25  1  0  0  0
 24 33  1  0  0  0
 25 26  1  0  0  0
 26 27  2  0  0  0
 26 31  1  0  0  0
 27 28  1  0  0  0
 27 32  1  0  0  0
 28 29  2  0  0  0
 29 30  1  0  0  0
 30 31  2  0  0  0
 32 33  1  0  0  0
 15 16  2  0  0  0
 15 17  1  0  0  0
  1  4  1  0  0  0
 20 23  1  0  0  0
 17 18  1  0  0  0
M  END
> <minimizedAffinity>
-9.58338

$$$$
695


 22 25  0  0  0  0  0  0  0  0999 V2000
   -6.4596   10.4355  -13.7359 C   0  0  0  0  0  0  0  0  0  0  0  0
   -1.1108   10.2360  -13.4652 Br  0  0  0  0  0  0  0  0  0  0  0  0
   -2.8237    9.4514  -13.8396 C   0  0  0  0  0  0  0  0  0  0  0  0
   -2.8419    8.1459  -14.2831 C   0  0  0  0  0  0  0  0  0  0  0  0
   -4.0660    7.5843  -14.5506 C   0  0  0  0  0  0  0  0  0  0  0  0
   -5.2373    8.3237  -14.3754 C   0  0  0  0  0  0  0  0  0  0  0  0
   -5.2300    9.6265  -13.9338 C   0  0  0  0  0  0  0  0  0  0  0  0
   -3.9782   10.1877  -13.6647 C   0  0  0  0  0  0  0  0  0  0  0  0
   -3.8141    6.2788  -14.9764 O   0  0  0  0  0  0  0  0  0  0  0  0
   -2.4609    6.2439  -15.4557 C   0  0  0  0  0  0  0  0  0  0  0  0
   -1.8639    7.1796  -14.5466 O   0  0  0  0  0  0  0  0  0  0  0  0
   -7.1716   10.5390  -14.9860 N   0  0  0  0  0  0  0  0  0  0  0  0
   -6.9325    9.9526  -15.8033 H   0  0  0  0  0  0  0  0  0  0  0  0
   -8.2453   11.4934  -15.0845 C   0  0  0  0  0  0  0  0  0  0  0  0
   -8.3731   12.4852  -14.1927 N   0  0  0  0  0  0  0  0  0  0  0  0
   -9.3790   13.3725  -14.2922 C   0  0  0  0  0  0  0  0  0  0  0  0
  -10.3156   13.2912  -15.3182 C   0  0  0  0  0  0  0  0  0  0  0  0
  -10.1817   12.3023  -16.2015 N   0  0  0  0  0  0  0  0  0  0  0  0
   -9.1673   11.4046  -16.1038 C   0  0  0  0  0  0  0  0  0  0  0  0
   -9.2909   10.5368  -17.1212 N   0  0  0  0  0  0  0  0  0  0  0  0
  -10.3441   10.8543  -17.8553 N   0  0  0  0  0  0  0  0  0  0  0  0
  -10.8856   11.9352  -17.2874 C   0  0  0  0  0  0  0  0  0  0  0  0
  2  3  1  0  0  0
  3  4  2  0  0  0
  3  8  1  0  0  0
  4  5  1  0  0  0
  4 11  1  0  0  0
  5  6  2  0  0  0
  5  9  1  0  0  0
  6  7  1  0  0  0
  7  8  2  0  0  0
  7  1  1  0  0  0
  1 12  1  0  0  0
 12 14  1  0  0  0
 14 15  2  0  0  0
 14 19  1  0  0  0
 15 16  1  0  0  0
 16 17  2  0  0  0
 17 18  1  0  0  0
 18 19  1  0  0  0
 18 22  1  0  0  0
 19 20  2  0  0  0
 20 21  1  0  0  0
 21 22  2  0  0  0
  9 10  1  0  0  0
 10 11  1  0  0  0
 12 13  1  0  0  0
M  END
> <minimizedAffinity>
-8.25426

$$$$
696


 28 31  0  0  0  0  0  0  0  0999 V2000
    0.0813   13.5144  -12.3721 Br  0  0  0  0  0  0  0  0  0  0  0  0
    1.5577   12.4955  -12.9929 C   0  0  0  0  0  0  0  0  0  0  0  0
    1.3646   11.1504  -13.3357 C   0  0  0  0  0  0  0  0  0  0  0  0
    2.3835   10.3729  -13.7947 C   0  0  0  0  0  0  0  0  0  0  0  0
    3.6413   10.9363  -13.9201 C   0  0  0  0  0  0  0  0  0  0  0  0
    3.8420   12.2699  -13.5820 C   0  0  0  0  0  0  0  0  0  0  0  0
    2.8103   13.0534  -13.1197 C   0  0  0  0  0  0  0  0  0  0  0  0
    5.1810   12.9142  -13.7028 C   0  0  0  0  0  0  0  0  0  0  0  0
    2.1450    8.9586  -14.1927 C   0  0  0  0  0  0  0  0  0  0  0  0
    1.0695    8.2335  -13.4668 C   0  0  0  0  0  0  0  0  0  0  0  0
    0.1922    9.2116  -12.6490 C   0  0  0  0  0  0  0  0  0  0  0  0
    0.1424   10.5005  -13.2383 O   0  0  0  0  0  0  0  0  0  0  0  0
    1.9087    9.0725  -15.5915 O   0  0  0  0  0  0  0  0  0  0  0  0
    2.7425    9.1602  -16.0843 H   0  0  0  0  0  0  0  0  0  0  0  0
    1.6029    7.2964  -12.3998 C   0  0  0  0  0  0  0  0  0  0  0  0
    2.3089    6.1409  -12.9104 N   0  0  0  0  0  0  0  0  0  0  0  0
    1.9940    4.9732  -12.0870 C   0  0  0  0  0  0  0  0  0  0  0  0
    3.1077    4.0036  -12.2330 C   0  0  0  0  0  0  0  0  0  0  0  0
    4.1549    4.7616  -12.9764 C   0  0  0  0  0  0  0  0  0  0  0  0
    3.7437    6.2116  -12.6897 C   0  0  0  0  0  0  0  0  0  0  0  0
    2.1734    5.9449  -13.9125 H   0  0  0  0  0  0  0  0  0  0  0  0
    0.1034    7.5827  -14.3823 C   0  0  0  0  0  0  0  0  0  0  0  0
   -1.1016    6.9879  -14.1130 N   0  0  0  0  0  0  0  0  0  0  0  0
   -2.1997    7.9703  -14.2563 C   0  0  0  0  0  0  0  0  0  0  0  0
   -3.3686    7.2255  -14.7733 C   0  0  0  0  0  0  0  0  0  0  0  0
   -2.8379    6.0291  -15.4654 C   0  0  0  0  0  0  0  0  0  0  0  0
   -1.4716    5.8278  -14.8125 C   0  0  0  0  0  0  0  0  0  0  0  0
   -1.2145    6.7842  -13.0243 H   0  0  0  0  0  0  0  0  0  0  0  0
  1  2  1  0  0  0
  2  3  2  0  0  0
  2  7  1  0  0  0
  3  4  1  0  0  0
  3 12  1  0  0  0
  4  5  2  0  0  0
  4  9  1  0  0  0
  5  6  1  0  0  0
  6  7  2  0  0  0
  6  8  1  0  0  0
  9 10  1  0  0  0
  9 13  1  0  0  0
 10 11  1  0  0  0
 10 15  1  0  0  0
 10 22  1  0  0  0
 11 12  1  0  0  0
 15 16  1  0  0  0
 16 17  1  0  0  0
 16 20  1  0  0  0
 17 18  1  0  0  0
 18 19  1  0  0  0
 19 20  1  0  0  0
 22 23  1  0  0  0
 23 24  1  0  0  0
 23 27  1  0  0  0
 24 25  1  0  0  0
 25 26  1  0  0  0
 26 27  1  0  0  0
 16 21  1  0  0  0
 23 28  1  0  0  0
 13 14  1  0  0  0
M  CHG 1  16   1
M  CHG 1  23   1
M  END
> <minimizedAffinity>
-6.35579

$$$$
699


 32 35  0  0  0  0  0  0  0  0999 V2000
   -4.5849    9.0351  -14.7239 C   0  0  0  0  0  0  0  0  0  0  0  0
   -4.7667    8.4320  -15.9414 O   0  0  0  0  0  0  0  0  0  0  0  0
   -5.4611    7.7490  -15.9648 H   0  0  0  0  0  0  0  0  0  0  0  0
   -5.8208    9.0121  -13.8604 C   0  0  0  0  0  0  0  0  0  0  0  0
   -6.3914   10.2981  -13.7139 O   0  0  0  0  0  0  0  0  0  0  0  0
   -7.7729   12.8943  -12.9113 Br  0  0  0  0  0  0  0  0  0  0  0  0
   -8.1443   11.8124  -14.4316 C   0  0  0  0  0  0  0  0  0  0  0  0
   -9.1412   12.1954  -15.3069 C   0  0  0  0  0  0  0  0  0  0  0  0
   -9.4317   11.4307  -16.4174 C   0  0  0  0  0  0  0  0  0  0  0  0
   -8.6868   10.2841  -16.6037 C   0  0  0  0  0  0  0  0  0  0  0  0
   -7.6914    9.9084  -15.7238 C   0  0  0  0  0  0  0  0  0  0  0  0
   -7.3934   10.6668  -14.6096 C   0  0  0  0  0  0  0  0  0  0  0  0
  -10.4316   11.8152  -17.2951 C   0  0  0  0  0  0  0  0  0  0  0  0
  -11.1767   12.9618  -17.1102 C   0  0  0  0  0  0  0  0  0  0  0  0
  -10.8869   13.7276  -15.9982 C   0  0  0  0  0  0  0  0  0  0  0  0
   -9.8900   13.3446  -15.1228 C   0  0  0  0  0  0  0  0  0  0  0  0
   -3.4126    8.4859  -13.9874 C   0  0  0  0  0  0  0  0  0  0  0  0
   -2.6462    9.4852  -13.2767 N   0  0  0  0  0  0  0  0  0  0  0  0
   -2.5862   10.6571  -14.1321 C   0  0  0  0  0  0  0  0  0  0  0  0
   -1.5896   11.7008  -13.6074 C   0  0  0  0  0  0  0  0  0  0  0  0
   -0.3104   11.0966  -13.4974 N   0  0  0  0  0  0  0  0  0  0  0  0
   -0.2731    9.6590  -13.8377 C   0  0  0  0  0  0  0  0  0  0  0  0
   -1.3128    8.9571  -13.0290 C   0  0  0  0  0  0  0  0  0  0  0  0
    0.8626   11.7517  -13.1056 C   0  0  0  0  0  0  0  0  0  0  0  0
    1.9208   10.9575  -13.0842 O   0  0  0  0  0  0  0  0  0  0  0  0
   -3.0721    9.7765  -12.3716 H   0  0  0  0  0  0  0  0  0  0  0  0
    1.1290   13.1016  -12.7272 C   0  0  0  0  0  0  0  0  0  0  0  0
    0.3024   14.1763  -12.8911 C   0  0  0  0  0  0  0  0  0  0  0  0
    0.6242   15.4685  -12.4996 C   0  0  0  0  0  0  0  0  0  0  0  0
    1.8222   15.7244  -11.9136 C   0  0  0  0  0  0  0  0  0  0  0  0
    2.6807   14.6594  -11.7335 C   0  0  0  0  0  0  0  0  0  0  0  0
    2.3630   13.3822  -12.1213 C   0  0  0  0  0  0  0  0  0  0  0  0
  6  7  1  0  0  0
  7  8  2  0  0  0
  7 12  1  0  0  0
  8  9  1  0  0  0
  8 16  1  0  0  0
  9 10  2  0  0  0
  9 13  1  0  0  0
 10 11  1  0  0  0
 11 12  2  0  0  0
 12  5  1  0  0  0
  5  4  1  0  0  0
  4  1  1  0  0  0
  1  2  1  0  0  0
  1 17  1  0  0  0
 17 18  1  0  0  0
 18 19  1  0  0  0
 18 23  1  0  0  0
 19 20  1  0  0  0
 20 21  1  0  0  0
 21 22  1  0  0  0
 21 24  1  0  0  0
 22 23  1  0  0  0
 24 25  2  0  0  0
 24 27  1  0  0  0
 27 28  2  0  0  0
 27 32  1  0  0  0
 28 29  1  0  0  0
 29 30  2  0  0  0
 30 31  1  0  0  0
 31 32  2  0  0  0
 13 14  2  0  0  0
 14 15  1  0  0  0
 15 16  2  0  0  0
  2  3  1  0  0  0
 18 26  1  0  0  0
M  CHG 1  18   1
M  END
> <minimizedAffinity>
-10.99859

$$$$
706


 30 33  0  0  0  0  0  0  0  0999 V2000
    2.2323    8.0062  -14.0853 C   0  0  0  0  0  0  0  0  0  0  0  0
   -0.9501    7.1660  -14.3689 Br  0  0  0  0  0  0  0  0  0  0  0  0
   -0.0582    8.8180  -13.9266 C   0  0  0  0  0  0  0  0  0  0  0  0
    1.2690    9.0259  -13.8408 N   0  0  0  0  0  0  0  0  0  0  0  0
    1.5005   10.3062  -13.5102 C   0  0  0  0  0  0  0  0  0  0  0  0
    0.2723   10.9255  -13.3836 C   0  0  0  0  0  0  0  0  0  0  0  0
   -0.6514    9.9908  -13.6430 N   0  0  0  0  0  0  0  0  0  0  0  0
    0.2364   12.2332  -13.0560 N   0  0  0  0  0  0  0  0  0  0  0  0
    1.3529   12.9656  -12.8474 C   0  0  0  0  0  0  0  0  0  0  0  0
    1.2748   14.1926  -12.5411 O   0  0  0  0  0  0  0  0  0  0  0  0
    2.5657   12.3946  -12.9631 N   0  0  0  0  0  0  0  0  0  0  0  0
    2.6127   11.0915  -13.2896 C   0  0  0  0  0  0  0  0  0  0  0  0
    3.7327   10.5525  -13.4016 O   0  0  0  0  0  0  0  0  0  0  0  0
    3.7490   13.2015  -12.7356 C   0  0  0  0  0  0  0  0  0  0  0  0
   -1.0561   12.8738  -12.9243 C   0  0  0  0  0  0  0  0  0  0  0  0
    3.0731    7.5748  -12.9396 C   0  0  0  0  0  0  0  0  0  0  0  0
    3.4406    6.2002  -12.8742 N   0  0  0  0  0  0  0  0  0  0  0  0
    4.6801    5.7042  -13.1139 C   0  0  0  0  0  0  0  0  0  0  0  0
    4.6603    4.3392  -12.9659 C   0  0  0  0  0  0  0  0  0  0  0  0
    3.3931    4.0404  -12.6345 N   0  0  0  0  0  0  0  0  0  0  0  0
    2.6571    5.1591  -12.5794 C   0  0  0  0  0  0  0  0  0  0  0  0
    0.7818    5.3066  -12.1573 Br  0  0  0  0  0  0  0  0  0  0  0  0
    5.7572    3.5549  -13.1411 N   0  0  0  0  0  0  0  0  0  0  0  0
    6.9004    4.1796  -13.4761 C   0  0  0  0  0  0  0  0  0  0  0  0
    7.9252    3.4633  -13.6416 O   0  0  0  0  0  0  0  0  0  0  0  0
    6.9791    5.5124  -13.6348 N   0  0  0  0  0  0  0  0  0  0  0  0
    5.8991    6.2726  -13.4611 C   0  0  0  0  0  0  0  0  0  0  0  0
    5.9050    7.5258  -13.5947 O   0  0  0  0  0  0  0  0  0  0  0  0
    8.2346    6.1361  -13.9959 C   0  0  0  0  0  0  0  0  0  0  0  0
    5.6991    2.1087  -12.9745 C   0  0  0  0  0  0  0  0  0  0  0  0
  2  3  1  0  0  0
  3  4  1  0  0  0
  3  7  2  0  0  0
  4  5  1  0  0  0
  4  1  1  0  0  0
  5  6  2  0  0  0
  5 12  1  0  0  0
  6  7  1  0  0  0
  6  8  1  0  0  0
  8  9  1  0  0  0
  8 15  1  0  0  0
  9 10  2  0  0  0
  9 11  1  0  0  0
 11 12  1  0  0  0
 11 14  1  0  0  0
 12 13  2  0  0  0
  1 16  1  0  0  0
 16 17  1  0  0  0
 17 18  1  0  0  0
 17 21  1  0  0  0
 18 19  2  0  0  0
 18 27  1  0  0  0
 19 20  1  0  0  0
 19 23  1  0  0  0
 20 21  2  0  0  0
 21 22  1  0  0  0
 23 24  1  0  0  0
 23 30  1  0  0  0
 24 25  2  0  0  0
 24 26  1  0  0  0
 26 27  1  0  0  0
 26 29  1  0  0  0
 27 28  2  0  0  0
M  END
> <minimizedAffinity>
-7.88801

$$$$
708


 31 34  0  0  0  0  0  0  0  0999 V2000
   -5.0535   10.2755  -13.2718 C   0  0  0  0  0  0  0  0  0  0  0  0
   -6.4738    9.7911  -13.2700 C   0  0  0  0  0  0  0  0  0  0  0  0
   -7.1671   12.2636  -11.2717 Br  0  0  0  0  0  0  0  0  0  0  0  0
   -7.8355   11.8673  -13.0100 C   0  0  0  0  0  0  0  0  0  0  0  0
   -7.4304   10.7767  -13.7298 N   0  0  0  0  0  0  0  0  0  0  0  0
   -8.1237   10.8518  -14.8832 C   0  0  0  0  0  0  0  0  0  0  0  0
   -8.9476   11.9657  -14.8934 C   0  0  0  0  0  0  0  0  0  0  0  0
   -8.7387   12.5735  -13.7057 N   0  0  0  0  0  0  0  0  0  0  0  0
   -9.7609   12.2953  -15.9116 N   0  0  0  0  0  0  0  0  0  0  0  0
   -9.7559   11.4722  -16.9754 C   0  0  0  0  0  0  0  0  0  0  0  0
  -10.5105   11.7425  -17.9693 O   0  0  0  0  0  0  0  0  0  0  0  0
   -8.9721   10.3787  -17.0071 N   0  0  0  0  0  0  0  0  0  0  0  0
   -8.1469   10.0419  -15.9769 C   0  0  0  0  0  0  0  0  0  0  0  0
   -7.4274    9.0228  -16.0213 O   0  0  0  0  0  0  0  0  0  0  0  0
  -10.6174   13.4620  -15.9142 C   0  0  0  0  0  0  0  0  0  0  0  0
   -8.9563    9.7311  -17.8236 H   0  0  0  0  0  0  0  0  0  0  0  0
   -4.2901    9.9727  -14.5292 C   0  0  0  0  0  0  0  0  0  0  0  0
   -3.2279    9.0164  -14.2498 N   0  0  0  0  0  0  0  0  0  0  0  0
   -1.9583    9.2631  -13.8539 C   0  0  0  0  0  0  0  0  0  0  0  0
   -1.2700    8.0826  -13.6965 C   0  0  0  0  0  0  0  0  0  0  0  0
   -2.1468    7.1089  -14.0055 N   0  0  0  0  0  0  0  0  0  0  0  0
   -3.3243    7.6801  -14.3383 C   0  0  0  0  0  0  0  0  0  0  0  0
   -4.9242    6.7788  -14.8625 Br  0  0  0  0  0  0  0  0  0  0  0  0
    0.0174    8.0153  -13.3093 N   0  0  0  0  0  0  0  0  0  0  0  0
    0.6391    9.1959  -13.0696 C   0  0  0  0  0  0  0  0  0  0  0  0
    1.8526    9.1367  -12.7032 O   0  0  0  0  0  0  0  0  0  0  0  0
    0.0007   10.3763  -13.2117 N   0  0  0  0  0  0  0  0  0  0  0  0
   -1.2898   10.4317  -13.6001 C   0  0  0  0  0  0  0  0  0  0  0  0
   -1.9119   11.5125  -13.7415 O   0  0  0  0  0  0  0  0  0  0  0  0
    0.7082    6.7373  -13.1558 C   0  0  0  0  0  0  0  0  0  0  0  0
    0.5283   11.2494  -13.0130 H   0  0  0  0  0  0  0  0  0  0  0  0
  3  4  1  0  0  0
  4  5  1  0  0  0
  4  8  2  0  0  0
  5  6  1  0  0  0
  5  2  1  0  0  0
  6  7  2  0  0  0
  6 13  1  0  0  0
  7  8  1  0  0  0
  7  9  1  0  0  0
  9 10  1  0  0  0
  9 15  1  0  0  0
 10 11  2  0  0  0
 10 12  1  0  0  0
 12 13  1  0  0  0
 13 14  2  0  0  0
  2  1  1  0  0  0
  1 17  1  0  0  0
 17 18  1  0  0  0
 18 19  1  0  0  0
 18 22  1  0  0  0
 19 20  2  0  0  0
 19 28  1  0  0  0
 20 21  1  0  0  0
 20 24  1  0  0  0
 21 22  2  0  0  0
 22 23  1  0  0  0
 24 25  1  0  0  0
 24 30  1  0  0  0
 25 26  2  0  0  0
 25 27  1  0  0  0
 27 28  1  0  0  0
 28 29  2  0  0  0
 12 16  1  0  0  0
 27 31  1  0  0  0
M  END
> <minimizedAffinity>
-7.13394

$$$$
709


 30 33  0  0  0  0  0  0  0  0999 V2000
    1.1413    8.7957  -12.7645 C   0  0  0  0  0  0  0  0  0  0  0  0
    3.6371   10.2489  -14.2420 Br  0  0  0  0  0  0  0  0  0  0  0  0
    3.4175    8.4480  -13.6464 C   0  0  0  0  0  0  0  0  0  0  0  0
    2.2942    8.0059  -13.0330 N   0  0  0  0  0  0  0  0  0  0  0  0
    2.5053    6.6968  -12.7621 C   0  0  0  0  0  0  0  0  0  0  0  0
    3.7676    6.3147  -13.2072 C   0  0  0  0  0  0  0  0  0  0  0  0
    4.2940    7.4367  -13.7480 N   0  0  0  0  0  0  0  0  0  0  0  0
    4.2052    5.0519  -13.0552 N   0  0  0  0  0  0  0  0  0  0  0  0
    3.4282    4.1251  -12.4677 C   0  0  0  0  0  0  0  0  0  0  0  0
    3.8342    2.9288  -12.3195 O   0  0  0  0  0  0  0  0  0  0  0  0
    2.1985    4.4370  -12.0201 N   0  0  0  0  0  0  0  0  0  0  0  0
    1.7523    5.7108  -12.1708 C   0  0  0  0  0  0  0  0  0  0  0  0
    0.5999    6.0427  -11.7651 O   0  0  0  0  0  0  0  0  0  0  0  0
    5.5146    4.6482  -13.5140 C   0  0  0  0  0  0  0  0  0  0  0  0
    1.5795    3.7341  -11.5620 H   0  0  0  0  0  0  0  0  0  0  0  0
    0.4839    9.4512  -13.9262 C   0  0  0  0  0  0  0  0  0  0  0  0
   -0.9167    9.6792  -13.8688 N   0  0  0  0  0  0  0  0  0  0  0  0
   -1.9038    8.7977  -14.0989 C   0  0  0  0  0  0  0  0  0  0  0  0
   -3.1187    9.4324  -13.9455 C   0  0  0  0  0  0  0  0  0  0  0  0
   -2.8046   10.7026  -13.6186 N   0  0  0  0  0  0  0  0  0  0  0  0
   -1.4898   10.8809  -13.5641 C   0  0  0  0  0  0  0  0  0  0  0  0
   -0.5415   12.5043  -13.1420 Br  0  0  0  0  0  0  0  0  0  0  0  0
   -4.2549    8.7581  -14.1175 N   0  0  0  0  0  0  0  0  0  0  0  0
   -4.2328    7.4624  -14.4405 C   0  0  0  0  0  0  0  0  0  0  0  0
   -5.3037    6.7911  -14.6136 O   0  0  0  0  0  0  0  0  0  0  0  0
   -3.0904    6.7729  -14.6078 N   0  0  0  0  0  0  0  0  0  0  0  0
   -1.9501    7.4531  -14.4329 C   0  0  0  0  0  0  0  0  0  0  0  0
   -0.8821    6.8193  -14.5834 O   0  0  0  0  0  0  0  0  0  0  0  0
   -5.5341    9.4103  -13.9614 C   0  0  0  0  0  0  0  0  0  0  0  0
   -3.1084    5.7522  -14.8619 H   0  0  0  0  0  0  0  0  0  0  0  0
  2  3  1  0  0  0
  3  4  1  0  0  0
  3  7  2  0  0  0
  4  5  1  0  0  0
  4  1  1  0  0  0
  5  6  2  0  0  0
  5 12  1  0  0  0
  6  7  1  0  0  0
  6  8  1  0  0  0
  8  9  1  0  0  0
  8 14  1  0  0  0
  9 10  2  0  0  0
  9 11  1  0  0  0
 11 12  1  0  0  0
 12 13  2  0  0  0
  1 16  1  0  0  0
 16 17  1  0  0  0
 17 18  1  0  0  0
 17 21  1  0  0  0
 18 19  2  0  0  0
 18 27  1  0  0  0
 19 20  1  0  0  0
 19 23  1  0  0  0
 20 21  2  0  0  0
 21 22  1  0  0  0
 23 24  1  0  0  0
 23 29  1  0  0  0
 24 25  2  0  0  0
 24 26  1  0  0  0
 26 27  1  0  0  0
 27 28  2  0  0  0
 11 15  1  0  0  0
 26 30  1  0  0  0
M  END
> <minimizedAffinity>
-8.17389

$$$$
716


 31 35  0  0  0  0  0  0  0  0999 V2000
    2.6285   10.2982  -13.3798 C   0  0  0  0  0  0  0  0  0  0  0  0
    3.9672    9.5968  -13.4231 C   0  0  0  0  0  0  0  0  0  0  0  0
    3.7789    8.1920  -13.9165 C   0  0  0  0  0  0  0  0  0  0  0  0
    3.3187    8.3107  -15.3760 C   0  0  0  0  0  0  0  0  0  0  0  0
    2.0357    9.1017  -15.4146 C   0  0  0  0  0  0  0  0  0  0  0  0
    2.1746   10.4761  -14.8127 C   0  0  0  0  0  0  0  0  0  0  0  0
    0.9762    8.3282  -14.6965 C   0  0  0  0  0  0  0  0  0  0  0  0
    1.4018    8.1526  -13.2559 C   0  0  0  0  0  0  0  0  0  0  0  0
    1.5843    9.5065  -12.6564 C   0  0  0  0  0  0  0  0  0  0  0  0
    2.7247    7.4213  -13.1942 C   0  0  0  0  0  0  0  0  0  0  0  0
    1.5636   15.3111  -11.6193 Br  0  0  0  0  0  0  0  0  0  0  0  0
    2.4013   13.6202  -11.9610 C   0  0  0  0  0  0  0  0  0  0  0  0
    1.9202   12.5961  -12.6891 N   0  0  0  0  0  0  0  0  0  0  0  0
    2.7805   11.5858  -12.7040 N   0  0  0  0  0  0  0  0  0  0  0  0
    3.8264   11.9944  -11.9626 C   0  0  0  0  0  0  0  0  0  0  0  0
    3.6134   13.2357  -11.5005 N   0  0  0  0  0  0  0  0  0  0  0  0
    5.0451    7.4294  -13.8791 C   0  0  0  0  0  0  0  0  0  0  0  0
    6.0177    7.8667  -14.5446 O   0  0  0  0  0  0  0  0  0  0  0  0
    5.1586    6.2345  -13.1116 N   0  0  0  0  0  0  0  0  0  0  0  0
    4.3115    5.9394  -12.5912 H   0  0  0  0  0  0  0  0  0  0  0  0
    6.3299    5.4377  -13.0159 C   0  0  0  0  0  0  0  0  0  0  0  0
    6.3555    4.0796  -13.1621 C   0  0  0  0  0  0  0  0  0  0  0  0
    7.6411    3.6848  -13.0035 N   0  0  0  0  0  0  0  0  0  0  0  0
    8.3840    4.7452  -12.7686 N   0  0  0  0  0  0  0  0  0  0  0  0
    7.6241    5.8454  -12.7655 C   0  0  0  0  0  0  0  0  0  0  0  0
    8.1701    2.3339  -13.0703 C   0  0  0  0  0  0  0  0  0  0  0  0
    5.2955    3.1299  -13.4348 C   0  0  0  0  0  0  0  0  0  0  0  0
    4.8836    2.9307  -14.6048 O   0  0  0  0  0  0  0  0  0  0  0  0
    4.6514    2.3652  -12.4247 N   0  0  0  0  0  0  0  0  0  0  0  0
    4.9516    1.3545  -12.3036 H   0  0  0  0  0  0  0  0  0  0  0  0
    3.9061    2.7172  -11.7938 H   0  0  0  0  0  0  0  0  0  0  0  0
 11 12  1  0  0  0
 12 13  2  0  0  0
 12 16  1  0  0  0
 13 14  1  0  0  0
 14 15  1  0  0  0
 14  1  1  0  0  0
 15 16  2  0  0  0
  1  2  1  0  0  0
  1  6  1  0  0  0
  1  9  1  0  0  0
  2  3  1  0  0  0
  3  4  1  0  0  0
  3 10  1  0  0  0
  3 17  1  0  0  0
  4  5  1  0  0  0
  5  6  1  0  0  0
  5  7  1  0  0  0
  7  8  1  0  0  0
  8  9  1  0  0  0
  8 10  1  0  0  0
 17 18  2  0  0  0
 17 19  1  0  0  0
 19 21  1  0  0  0
 21 22  2  0  0  0
 21 25  1  0  0  0
 22 23  1  0  0  0
 22 27  1  0  0  0
 23 24  1  0  0  0
 23 26  1  0  0  0
 24 25  2  0  0  0
 27 28  2  0  0  0
 27 29  1  0  0  0
 19 20  1  0  0  0
 29 30  1  0  0  0
 29 31  1  0  0  0
M  END
> <minimizedAffinity>
-8.26978

$$$$
723


 23 26  0  0  0  0  0  0  0  0999 V2000
   -1.3068    7.7484  -14.0339 N   0  0  0  0  0  0  0  0  0  0  0  0
   -1.2455    6.6319  -13.1438 C   0  0  0  0  0  0  0  0  0  0  0  0
   -1.7758    5.3811  -13.7314 C   0  0  0  0  0  0  0  0  0  0  0  0
   -2.4279    5.4777  -14.9304 O   0  0  0  0  0  0  0  0  0  0  0  0
   -3.1863    6.6373  -15.0457 C   0  0  0  0  0  0  0  0  0  0  0  0
   -2.3459    7.8730  -15.0093 C   0  0  0  0  0  0  0  0  0  0  0  0
   -3.4457    9.8753  -12.8541 Br  0  0  0  0  0  0  0  0  0  0  0  0
   -1.7717   10.7290  -13.1571 C   0  0  0  0  0  0  0  0  0  0  0  0
   -1.4631   12.0270  -12.9399 N   0  0  0  0  0  0  0  0  0  0  0  0
   -0.2066   12.2767  -13.2281 N   0  0  0  0  0  0  0  0  0  0  0  0
    0.3209   11.1117  -13.6458 C   0  0  0  0  0  0  0  0  0  0  0  0
    1.5548   10.7869  -14.0451 N   0  0  0  0  0  0  0  0  0  0  0  0
    1.8674    9.5302  -14.4093 C   0  0  0  0  0  0  0  0  0  0  0  0
    0.9396    8.5572  -14.3827 N   0  0  0  0  0  0  0  0  0  0  0  0
   -0.3451    8.8133  -13.9860 C   0  0  0  0  0  0  0  0  0  0  0  0
   -0.6426   10.0956  -13.6182 C   0  0  0  0  0  0  0  0  0  0  0  0
    0.4593   13.5607  -13.1126 C   0  0  0  0  0  0  0  0  0  0  0  0
    0.1000    6.4823  -12.5452 C   0  0  0  0  0  0  0  0  0  0  0  0
    1.1004    5.7506  -13.0377 N   0  0  0  0  0  0  0  0  0  0  0  0
    2.1454    5.8974  -12.1738 C   0  0  0  0  0  0  0  0  0  0  0  0
    1.7196    6.7163  -11.1952 N   0  0  0  0  0  0  0  0  0  0  0  0
    0.4873    7.0534  -11.4417 O   0  0  0  0  0  0  0  0  0  0  0  0
    3.4889    5.2836  -12.2788 C   0  0  0  0  0  0  0  0  0  0  0  0
  7  8  1  0  0  0
  8  9  2  0  0  0
  8 16  1  0  0  0
  9 10  1  0  0  0
 10 11  1  0  0  0
 10 17  1  0  0  0
 11 12  1  0  0  0
 11 16  2  0  0  0
 12 13  2  0  0  0
 13 14  1  0  0  0
 14 15  2  0  0  0
 15 16  1  0  0  0
 15  1  1  0  0  0
  1  2  1  0  0  0
  1  6  1  0  0  0
  2  3  1  0  0  0
  2 18  1  0  0  0
  3  4  1  0  0  0
  4  5  1  0  0  0
  5  6  1  0  0  0
 18 19  2  0  0  0
 18 22  1  0  0  0
 19 20  1  0  0  0
 20 21  2  0  0  0
 20 23  1  0  0  0
 21 22  1  0  0  0
M  END
> <minimizedAffinity>
-6.21301

$$$$
727


 21 24  0  0  0  0  0  0  0  0999 V2000
    2.2574    5.1800  -12.0673 Br  0  0  0  0  0  0  0  0  0  0  0  0
    3.3567    6.3722  -13.0643 C   0  0  0  0  0  0  0  0  0  0  0  0
    4.7163    6.3077  -13.1715 N   0  0  0  0  0  0  0  0  0  0  0  0
    5.1224    7.2778  -13.9555 N   0  0  0  0  0  0  0  0  0  0  0  0
    4.0692    7.9957  -14.3787 C   0  0  0  0  0  0  0  0  0  0  0  0
    3.9336    9.0603  -15.1856 N   0  0  0  0  0  0  0  0  0  0  0  0
    2.7433    9.5868  -15.4608 C   0  0  0  0  0  0  0  0  0  0  0  0
    1.6474    9.0547  -14.9279 N   0  0  0  0  0  0  0  0  0  0  0  0
    1.6726    7.9660  -14.0896 C   0  0  0  0  0  0  0  0  0  0  0  0
    2.9089    7.4354  -13.8189 C   0  0  0  0  0  0  0  0  0  0  0  0
    6.4990    7.6005  -14.3593 C   0  0  0  0  0  0  0  0  0  0  0  0
    0.4991    7.4685  -13.5229 N   0  0  0  0  0  0  0  0  0  0  0  0
   -0.1293    8.1261  -12.3984 C   0  0  0  0  0  0  0  0  0  0  0  0
   -1.4127    8.8023  -12.9245 C   0  0  0  0  0  0  0  0  0  0  0  0
   -2.0404    7.9318  -13.9421 C   0  0  0  0  0  0  0  0  0  0  0  0
   -3.2426    8.1130  -14.5359 N   0  0  0  0  0  0  0  0  0  0  0  0
   -3.4333    7.0969  -15.3942 C   0  0  0  0  0  0  0  0  0  0  0  0
   -2.3899    6.2700  -15.3680 N   0  0  0  0  0  0  0  0  0  0  0  0
   -1.5242    6.7854  -14.4676 C   0  0  0  0  0  0  0  0  0  0  0  0
   -0.1952    6.3064  -14.0158 C   0  0  0  0  0  0  0  0  0  0  0  0
   -4.1881    9.1797  -14.3282 C   0  0  0  0  0  0  0  0  0  0  0  0
  1  2  1  0  0  0
  2  3  2  0  0  0
  2 10  1  0  0  0
  3  4  1  0  0  0
  4  5  1  0  0  0
  4 11  1  0  0  0
  5  6  1  0  0  0
  5 10  2  0  0  0
  6  7  2  0  0  0
  7  8  1  0  0  0
  8  9  2  0  0  0
  9 10  1  0  0  0
  9 12  1  0  0  0
 12 13  1  0  0  0
 12 20  1  0  0  0
 13 14  1  0  0  0
 14 15  1  0  0  0
 15 16  1  0  0  0
 15 19  2  0  0  0
 16 17  1  0  0  0
 16 21  1  0  0  0
 17 18  2  0  0  0
 18 19  1  0  0  0
 19 20  1  0  0  0
M  END
> <minimizedAffinity>
-7.41265

$$$$
729


 27 30  0  0  0  0  0  0  0  0999 V2000
    1.7012   10.1300  -13.4693 N   0  0  0  0  0  0  0  0  0  0  0  0
    0.9763    9.2088  -12.6407 C   0  0  0  0  0  0  0  0  0  0  0  0
    1.9139    8.0113  -12.4641 C   0  0  0  0  0  0  0  0  0  0  0  0
    2.9344    7.9866  -13.5180 N   0  0  0  0  0  0  0  0  0  0  0  0
    2.3112    8.2897  -14.8089 C   0  0  0  0  0  0  0  0  0  0  0  0
    1.8763    9.7431  -14.8481 C   0  0  0  0  0  0  0  0  0  0  0  0
   -1.1353   11.5558  -13.8480 Br  0  0  0  0  0  0  0  0  0  0  0  0
    0.1175   12.7450  -13.0662 C   0  0  0  0  0  0  0  0  0  0  0  0
   -0.0659   14.0221  -12.6857 N   0  0  0  0  0  0  0  0  0  0  0  0
    1.0272   14.5454  -12.1994 N   0  0  0  0  0  0  0  0  0  0  0  0
    1.9838   13.5988  -12.2489 C   0  0  0  0  0  0  0  0  0  0  0  0
    3.2811   13.5838  -11.8971 N   0  0  0  0  0  0  0  0  0  0  0  0
    4.0538   12.5053  -12.0532 C   0  0  0  0  0  0  0  0  0  0  0  0
    3.5283   11.4024  -12.5727 N   0  0  0  0  0  0  0  0  0  0  0  0
    2.2327   11.3188  -12.9573 C   0  0  0  0  0  0  0  0  0  0  0  0
    1.4320   12.4434  -12.7945 C   0  0  0  0  0  0  0  0  0  0  0  0
    1.2663   15.8844  -11.6795 C   0  0  0  0  0  0  0  0  0  0  0  0
    3.4417    6.6241  -13.5660 C   0  0  0  0  0  0  0  0  0  0  0  0
    2.9595    5.9212  -12.2675 C   0  0  0  0  0  0  0  0  0  0  0  0
    4.9150    6.6038  -13.5873 C   0  0  0  0  0  0  0  0  0  0  0  0
    5.4489    7.7878  -13.5117 O   0  0  0  0  0  0  0  0  0  0  0  0
    5.7778    5.5002  -13.6816 N   0  0  0  0  0  0  0  0  0  0  0  0
    5.4444    4.1139  -13.8109 C   0  0  0  0  0  0  0  0  0  0  0  0
    6.2385    3.1939  -12.9072 C   0  0  0  0  0  0  0  0  0  0  0  0
    7.6497    3.6154  -12.6829 C   0  0  0  0  0  0  0  0  0  0  0  0
    7.7739    5.1027  -12.4293 C   0  0  0  0  0  0  0  0  0  0  0  0
    7.2308    5.7850  -13.6578 C   0  0  0  0  0  0  0  0  0  0  0  0
  7  8  1  0  0  0
  8  9  2  0  0  0
  8 16  1  0  0  0
  9 10  1  0  0  0
 10 11  1  0  0  0
 10 17  1  0  0  0
 11 12  1  0  0  0
 11 16  2  0  0  0
 12 13  2  0  0  0
 13 14  1  0  0  0
 14 15  2  0  0  0
 15 16  1  0  0  0
 15  1  1  0  0  0
  1  2  1  0  0  0
  1  6  1  0  0  0
  2  3  1  0  0  0
  3  4  1  0  0  0
  4  5  1  0  0  0
  4 18  1  0  0  0
  5  6  1  0  0  0
 18 19  1  0  0  0
 18 20  1  0  0  0
 20 21  2  0  0  0
 20 22  1  0  0  0
 22 23  1  0  0  0
 22 27  1  0  0  0
 23 24  1  0  0  0
 24 25  1  0  0  0
 25 26  1  0  0  0
 26 27  1  0  0  0
M  END
> <minimizedAffinity>
-7.94981

$$$$
737


 21 24  0  0  0  0  0  0  0  0999 V2000
    0.0899   13.3314  -12.9776 C   0  0  0  0  0  0  0  0  0  0  0  0
   -0.8269   14.2239  -13.2754 C   0  0  0  0  0  0  0  0  0  0  0  0
   -0.7042   15.6288  -12.8566 C   0  0  0  0  0  0  0  0  0  0  0  0
   -1.6183   16.5369  -13.1487 C   0  0  0  0  0  0  0  0  0  0  0  0
    0.4661   15.9413  -12.1165 N   0  0  0  0  0  0  0  0  0  0  0  0
    1.4562   14.9530  -11.8015 C   0  0  0  0  0  0  0  0  0  0  0  0
    1.2423   13.6830  -12.2383 N   0  0  0  0  0  0  0  0  0  0  0  0
    2.2965   12.9747  -11.8173 N   0  0  0  0  0  0  0  0  0  0  0  0
    3.1571   13.7470  -11.1381 C   0  0  0  0  0  0  0  0  0  0  0  0
    2.6231   14.9795  -11.1344 N   0  0  0  0  0  0  0  0  0  0  0  0
    0.6119   16.9206  -11.7905 H   0  0  0  0  0  0  0  0  0  0  0  0
   -1.3513    6.5784  -13.4572 Br  0  0  0  0  0  0  0  0  0  0  0  0
   -0.0367    7.9556  -13.6834 C   0  0  0  0  0  0  0  0  0  0  0  0
   -0.2302    9.2740  -13.8025 N   0  0  0  0  0  0  0  0  0  0  0  0
    0.9445    9.8857  -13.9418 C   0  0  0  0  0  0  0  0  0  0  0  0
    1.9022    8.9221  -13.9087 N   0  0  0  0  0  0  0  0  0  0  0  0
    1.3211    7.7199  -13.7487 C   0  0  0  0  0  0  0  0  0  0  0  0
    1.0175   11.3688  -14.0967 C   0  0  0  0  0  0  0  0  0  0  0  0
   -0.0786   11.9999  -13.4042 N   0  0  0  0  0  0  0  0  0  0  0  0
   -1.3375   11.3497  -13.1249 C   0  0  0  0  0  0  0  0  0  0  0  0
   -1.4759   10.0145  -13.7952 C   0  0  0  0  0  0  0  0  0  0  0  0
 12 13  1  0  0  0
 13 14  1  0  0  0
 13 17  2  0  0  0
 14 15  1  0  0  0
 14 21  1  0  0  0
 15 16  2  0  0  0
 15 18  1  0  0  0
 16 17  1  0  0  0
 18 19  1  0  0  0
 19 20  1  0  0  0
 19  1  1  0  0  0
 20 21  1  0  0  0
  1  2  2  0  0  0
  1  7  1  0  0  0
  2  3  1  0  0  0
  3  4  2  0  0  0
  3  5  1  0  0  0
  5  6  1  0  0  0
  6  7  1  0  0  0
  6 10  2  0  0  0
  7  8  1  0  0  0
  8  9  2  0  0  0
  9 10  1  0  0  0
  5 11  1  0  0  0
M  END
> <minimizedAffinity>
-7.45257

$$$$
743


 30 33  0  0  0  0  0  0  0  0999 V2000
   -3.0992    8.3477  -14.5018 C   0  0  0  0  0  0  0  0  0  0  0  0
   -3.8521    7.9106  -15.4348 O   0  0  0  0  0  0  0  0  0  0  0  0
   -2.1211    7.5014  -13.9133 N   0  0  0  0  0  0  0  0  0  0  0  0
   -1.9830    6.1477  -14.3747 C   0  0  0  0  0  0  0  0  0  0  0  0
   -0.5805    5.6239  -14.3202 C   0  0  0  0  0  0  0  0  0  0  0  0
    0.2828    6.3224  -13.3113 C   0  0  0  0  0  0  0  0  0  0  0  0
    1.2968    5.4431  -12.8139 N   0  0  0  0  0  0  0  0  0  0  0  0
    2.1361    6.0149  -11.8167 C   0  0  0  0  0  0  0  0  0  0  0  0
    2.6029    7.4059  -12.0927 C   0  0  0  0  0  0  0  0  0  0  0  0
    2.0928    7.9489  -13.3776 C   0  0  0  0  0  0  0  0  0  0  0  0
    2.5341    8.9343  -14.1606 N   0  0  0  0  0  0  0  0  0  0  0  0
    1.7276    9.0498  -15.2247 C   0  0  0  0  0  0  0  0  0  0  0  0
    0.7552    8.1327  -15.1321 N   0  0  0  0  0  0  0  0  0  0  0  0
    0.9732    7.4527  -13.9994 C   0  0  0  0  0  0  0  0  0  0  0  0
   -0.5779    6.9206  -12.2100 C   0  0  0  0  0  0  0  0  0  0  0  0
   -1.3042    8.0836  -12.8530 C   0  0  0  0  0  0  0  0  0  0  0  0
    0.8276    4.6004  -12.4150 H   0  0  0  0  0  0  0  0  0  0  0  0
   -0.0431    7.9712  -15.8266 H   0  0  0  0  0  0  0  0  0  0  0  0
   -3.3066    9.7446  -14.0885 C   0  0  0  0  0  0  0  0  0  0  0  0
   -4.6715    9.9957  -13.5256 C   0  0  0  0  0  0  0  0  0  0  0  0
   -6.9574   10.7400  -14.2103 C   0  0  0  0  0  0  0  0  0  0  0  0
   -7.2209   10.9684  -12.9926 O   0  0  0  0  0  0  0  0  0  0  0  0
   -5.6642   10.2416  -14.5246 N   0  0  0  0  0  0  0  0  0  0  0  0
   -5.4453   10.0533  -15.5214 H   0  0  0  0  0  0  0  0  0  0  0  0
  -10.9168   13.2375  -16.8026 Br  0  0  0  0  0  0  0  0  0  0  0  0
   -9.5687   11.9715  -16.2705 C   0  0  0  0  0  0  0  0  0  0  0  0
   -8.7537   12.0241  -15.2600 O   0  0  0  0  0  0  0  0  0  0  0  0
   -7.9737   10.9966  -15.1995 C   0  0  0  0  0  0  0  0  0  0  0  0
   -8.2853   10.1552  -16.2744 C   0  0  0  0  0  0  0  0  0  0  0  0
   -9.3049   10.7996  -16.9424 C   0  0  0  0  0  0  0  0  0  0  0  0
 25 26  1  0  0  0
 26 27  1  0  0  0
 26 30  2  0  0  0
 27 28  1  0  0  0
 28 29  2  0  0  0
 28 21  1  0  0  0
 29 30  1  0  0  0
 21 22  2  0  0  0
 21 23  1  0  0  0
 23 20  1  0  0  0
 20 19  1  0  0  0
 19  1  1  0  0  0
  1  2  2  0  0  0
  1  3  1  0  0  0
  3  4  1  0  0  0
  3 16  1  0  0  0
  4  5  1  0  0  0
  5  6  1  0  0  0
  6  7  1  0  0  0
  6 14  1  0  0  0
  6 15  1  0  0  0
  7  8  1  0  0  0
  8  9  1  0  0  0
  9 10  1  0  0  0
 10 11  1  0  0  0
 10 14  2  0  0  0
 11 12  2  0  0  0
 12 13  1  0  0  0
 13 14  1  0  0  0
 15 16  1  0  0  0
 23 24  1  0  0  0
  7 17  1  0  0  0
 13 18  1  0  0  0
M  END
> <minimizedAffinity>
-8.59816

$$$$
746


 30 33  0  0  0  0  0  0  0  0999 V2000
    1.4809   11.7007  -13.5893 C   0  0  0  0  0  0  0  0  0  0  0  0
    0.2149   11.5410  -13.6962 O   0  0  0  0  0  0  0  0  0  0  0  0
    2.2953   10.7908  -14.2729 N   0  0  0  0  0  0  0  0  0  0  0  0
    3.7421   10.8551  -14.2446 C   0  0  0  0  0  0  0  0  0  0  0  0
    4.2470    9.5904  -13.6218 C   0  0  0  0  0  0  0  0  0  0  0  0
    3.6785    8.3718  -14.2770 C   0  0  0  0  0  0  0  0  0  0  0  0
    4.7783    7.5439  -14.7402 N   0  0  0  0  0  0  0  0  0  0  0  0
    5.5050    7.0743  -13.5749 C   0  0  0  0  0  0  0  0  0  0  0  0
    4.7197    5.8712  -13.0405 C   0  0  0  0  0  0  0  0  0  0  0  0
    3.3516    6.3735  -12.7684 C   0  0  0  0  0  0  0  0  0  0  0  0
    2.3890    5.8548  -11.9821 N   0  0  0  0  0  0  0  0  0  0  0  0
    1.3269    6.6717  -12.0607 C   0  0  0  0  0  0  0  0  0  0  0  0
    1.6382    7.6838  -12.8904 N   0  0  0  0  0  0  0  0  0  0  0  0
    2.8915    7.5299  -13.3487 C   0  0  0  0  0  0  0  0  0  0  0  0
    2.8351    8.7823  -15.4841 C   0  0  0  0  0  0  0  0  0  0  0  0
    1.7414    9.7126  -15.0718 C   0  0  0  0  0  0  0  0  0  0  0  0
    5.4705    8.1100  -15.3059 H   0  0  0  0  0  0  0  0  0  0  0  0
    2.4077    4.9824  -11.3959 H   0  0  0  0  0  0  0  0  0  0  0  0
    1.9173   12.8326  -12.7542 C   0  0  0  0  0  0  0  0  0  0  0  0
    2.4602   12.4678  -11.4203 C   0  0  0  0  0  0  0  0  0  0  0  0
    1.0969   15.2069  -12.6542 C   0  0  0  0  0  0  0  0  0  0  0  0
    2.2481   15.6330  -12.8796 O   0  0  0  0  0  0  0  0  0  0  0  0
    0.8718   13.8206  -12.5800 N   0  0  0  0  0  0  0  0  0  0  0  0
   -0.0917   13.4760  -12.3914 H   0  0  0  0  0  0  0  0  0  0  0  0
   -1.7878   19.0635  -10.3248 Br  0  0  0  0  0  0  0  0  0  0  0  0
   -1.1996   17.7089  -11.5599 C   0  0  0  0  0  0  0  0  0  0  0  0
   -0.1098   16.9948  -11.4457 O   0  0  0  0  0  0  0  0  0  0  0  0
    0.0033   16.1478  -12.4696 C   0  0  0  0  0  0  0  0  0  0  0  0
   -1.0952   16.3527  -13.2746 C   0  0  0  0  0  0  0  0  0  0  0  0
   -1.8687   17.3381  -12.7154 C   0  0  0  0  0  0  0  0  0  0  0  0
 25 26  1  0  0  0
 26 27  1  0  0  0
 26 30  2  0  0  0
 27 28  1  0  0  0
 28 29  2  0  0  0
 28 21  1  0  0  0
 29 30  1  0  0  0
 21 22  2  0  0  0
 21 23  1  0  0  0
 23 19  1  0  0  0
 19 20  1  0  0  0
 19  1  1  0  0  0
  1  2  2  0  0  0
  1  3  1  0  0  0
  3  4  1  0  0  0
  3 16  1  0  0  0
  4  5  1  0  0  0
  5  6  1  0  0  0
  6  7  1  0  0  0
  6 14  1  0  0  0
  6 15  1  0  0  0
  7  8  1  0  0  0
  8  9  1  0  0  0
  9 10  1  0  0  0
 10 11  1  0  0  0
 10 14  2  0  0  0
 11 12  1  0  0  0
 12 13  2  0  0  0
 13 14  1  0  0  0
 15 16  1  0  0  0
 23 24  1  0  0  0
  7 17  1  0  0  0
 11 18  1  0  0  0
M  END
> <minimizedAffinity>
-8.17455

$$$$
754


 27 30  0  0  0  0  0  0  0  0999 V2000
   -0.3184    7.4675  -13.2428 C   0  0  0  0  0  0  0  0  0  0  0  0
   -0.3106    6.6740  -12.2909 O   0  0  0  0  0  0  0  0  0  0  0  0
    0.8893    7.7693  -13.9186 N   0  0  0  0  0  0  0  0  0  0  0  0
    2.1268    7.1466  -13.4948 C   0  0  0  0  0  0  0  0  0  0  0  0
    3.1542    8.1609  -13.0548 C   0  0  0  0  0  0  0  0  0  0  0  0
    2.8834    9.3870  -13.8238 N   0  0  0  0  0  0  0  0  0  0  0  0
    2.4346    9.2011  -15.1611 C   0  0  0  0  0  0  0  0  0  0  0  0
    0.9891    8.6838  -15.0399 C   0  0  0  0  0  0  0  0  0  0  0  0
    3.0968   10.6184  -13.1582 C   0  0  0  0  0  0  0  0  0  0  0  0
    2.0916   11.5223  -12.9927 N   0  0  0  0  0  0  0  0  0  0  0  0
    2.2805   12.6940  -12.3660 C   0  0  0  0  0  0  0  0  0  0  0  0
    3.4980   13.0110  -11.8747 N   0  0  0  0  0  0  0  0  0  0  0  0
    4.5492   12.1810  -11.9905 C   0  0  0  0  0  0  0  0  0  0  0  0
    4.3158   10.9660  -12.6519 C   0  0  0  0  0  0  0  0  0  0  0  0
    5.8986   12.5094  -11.4567 C   0  0  0  0  0  0  0  0  0  0  0  0
    1.2010   13.6009  -12.2185 N   0  0  0  0  0  0  0  0  0  0  0  0
    1.2591   14.7698  -11.3748 C   0  0  0  0  0  0  0  0  0  0  0  0
    0.8655   15.9879  -12.1557 C   0  0  0  0  0  0  0  0  0  0  0  0
    0.3234   15.6846  -13.4032 O   0  0  0  0  0  0  0  0  0  0  0  0
   -0.6458   14.6917  -13.2909 C   0  0  0  0  0  0  0  0  0  0  0  0
   -0.0283   13.3593  -12.9426 C   0  0  0  0  0  0  0  0  0  0  0  0
   -5.2397    8.0270  -15.3664 Br  0  0  0  0  0  0  0  0  0  0  0  0
   -3.5551    8.3503  -14.4734 C   0  0  0  0  0  0  0  0  0  0  0  0
   -2.5867    7.5286  -14.2848 O   0  0  0  0  0  0  0  0  0  0  0  0
   -1.5985    8.0773  -13.6450 C   0  0  0  0  0  0  0  0  0  0  0  0
   -1.9551    9.3822  -13.3923 C   0  0  0  0  0  0  0  0  0  0  0  0
   -3.2079    9.5587  -13.9214 C   0  0  0  0  0  0  0  0  0  0  0  0
 22 23  1  0  0  0
 23 24  1  0  0  0
 23 27  2  0  0  0
 24 25  1  0  0  0
 25 26  2  0  0  0
 25  1  1  0  0  0
 26 27  1  0  0  0
  1  2  2  0  0  0
  1  3  1  0  0  0
  3  4  1  0  0  0
  3  8  1  0  0  0
  4  5  1  0  0  0
  5  6  1  0  0  0
  6  7  1  0  0  0
  6  9  1  0  0  0
  7  8  1  0  0  0
  9 10  2  0  0  0
  9 14  1  0  0  0
 10 11  1  0  0  0
 11 12  2  0  0  0
 11 16  1  0  0  0
 12 13  1  0  0  0
 13 14  2  0  0  0
 13 15  1  0  0  0
 16 17  1  0  0  0
 16 21  1  0  0  0
 17 18  1  0  0  0
 18 19  1  0  0  0
 19 20  1  0  0  0
 20 21  1  0  0  0
M  END
> <minimizedAffinity>
-6.61274

$$$$
755


 28 31  0  0  0  0  0  0  0  0999 V2000
    0.6879   11.1333  -13.4644 C   0  0  0  0  0  0  0  0  0  0  0  0
    0.8355   12.1580  -12.7818 O   0  0  0  0  0  0  0  0  0  0  0  0
    1.8012   10.4883  -14.0648 N   0  0  0  0  0  0  0  0  0  0  0  0
    1.6182    9.2820  -14.8677 C   0  0  0  0  0  0  0  0  0  0  0  0
    2.9737    8.7579  -15.3369 C   0  0  0  0  0  0  0  0  0  0  0  0
    3.8339    8.6879  -14.1721 N   0  0  0  0  0  0  0  0  0  0  0  0
    4.0611    9.8855  -13.4101 C   0  0  0  0  0  0  0  0  0  0  0  0
    3.1567   10.9793  -13.9175 C   0  0  0  0  0  0  0  0  0  0  0  0
    4.4539    7.4584  -13.7738 C   0  0  0  0  0  0  0  0  0  0  0  0
    3.7314    6.4071  -13.3622 N   0  0  0  0  0  0  0  0  0  0  0  0
    4.3380    5.2726  -12.9953 C   0  0  0  0  0  0  0  0  0  0  0  0
    5.6789    5.1438  -13.0233 N   0  0  0  0  0  0  0  0  0  0  0  0
    6.4621    6.1603  -13.4259 C   0  0  0  0  0  0  0  0  0  0  0  0
    5.8179    7.3206  -13.8004 C   0  0  0  0  0  0  0  0  0  0  0  0
    3.5289    4.1139  -12.5419 C   0  0  0  0  0  0  0  0  0  0  0  0
    7.8752    6.0739  -13.4733 N   0  0  0  0  0  0  0  0  0  0  0  0
    8.5954    6.4990  -14.6560 C   0  0  0  0  0  0  0  0  0  0  0  0
   10.0617    6.5779  -14.2856 C   0  0  0  0  0  0  0  0  0  0  0  0
   10.5108    5.2692  -13.8940 N   0  0  0  0  0  0  0  0  0  0  0  0
    9.6612    4.5910  -12.9663 C   0  0  0  0  0  0  0  0  0  0  0  0
    8.6695    5.5674  -12.3707 C   0  0  0  0  0  0  0  0  0  0  0  0
   10.8605    4.4985  -15.0601 C   0  0  0  0  0  0  0  0  0  0  0  0
   -3.1245    7.4650  -14.3660 Br  0  0  0  0  0  0  0  0  0  0  0  0
   -2.2607    9.1336  -14.0188 C   0  0  0  0  0  0  0  0  0  0  0  0
   -0.9708    9.3182  -13.8944 O   0  0  0  0  0  0  0  0  0  0  0  0
   -0.6684   10.5707  -13.6587 C   0  0  0  0  0  0  0  0  0  0  0  0
   -1.8591   11.2560  -13.6284 C   0  0  0  0  0  0  0  0  0  0  0  0
   -2.8709   10.3586  -13.8546 C   0  0  0  0  0  0  0  0  0  0  0  0
 23 24  1  0  0  0
 24 25  1  0  0  0
 24 28  2  0  0  0
 25 26  1  0  0  0
 26 27  2  0  0  0
 26  1  1  0  0  0
 27 28  1  0  0  0
  1  2  2  0  0  0
  1  3  1  0  0  0
  3  4  1  0  0  0
  3  8  1  0  0  0
  4  5  1  0  0  0
  5  6  1  0  0  0
  6  7  1  0  0  0
  6  9  1  0  0  0
  7  8  1  0  0  0
  9 10  2  0  0  0
  9 14  1  0  0  0
 10 11  1  0  0  0
 11 12  2  0  0  0
 11 15  1  0  0  0
 12 13  1  0  0  0
 13 14  2  0  0  0
 13 16  1  0  0  0
 16 17  1  0  0  0
 16 21  1  0  0  0
 17 18  1  0  0  0
 18 19  1  0  0  0
 19 20  1  0  0  0
 19 22  1  0  0  0
 20 21  1  0  0  0
M  END
> <minimizedAffinity>
-8.40872

$$$$
767


 32 35  0  0  0  0  0  0  0  0999 V2000
    0.5598   14.6974  -12.7940 C   0  0  0  0  0  0  0  0  0  0  0  0
    1.1775   12.2943  -12.9723 C   0  0  0  0  0  0  0  0  0  0  0  0
    2.3982   12.6154  -12.7742 O   0  0  0  0  0  0  0  0  0  0  0  0
    0.2053   13.3328  -12.9896 N   0  0  0  0  0  0  0  0  0  0  0  0
   -0.7875   13.0797  -13.1492 H   0  0  0  0  0  0  0  0  0  0  0  0
   -0.2231    8.9981  -13.6117 C   0  0  0  0  0  0  0  0  0  0  0  0
    1.0562    8.7675  -13.2397 N   0  0  0  0  0  0  0  0  0  0  0  0
    1.6473    9.9002  -12.9865 O   0  0  0  0  0  0  0  0  0  0  0  0
    0.8185   10.8957  -13.1722 C   0  0  0  0  0  0  0  0  0  0  0  0
   -0.3347   10.3367  -13.5575 N   0  0  0  0  0  0  0  0  0  0  0  0
   -4.9718    6.8894  -14.9388 Br  0  0  0  0  0  0  0  0  0  0  0  0
   -3.1371    7.1298  -14.5212 C   0  0  0  0  0  0  0  0  0  0  0  0
   -2.5073    8.2217  -14.2106 O   0  0  0  0  0  0  0  0  0  0  0  0
   -1.2349    8.0163  -13.9828 C   0  0  0  0  0  0  0  0  0  0  0  0
   -1.0176    6.6626  -14.1628 C   0  0  0  0  0  0  0  0  0  0  0  0
   -2.2242    6.0734  -14.5093 C   0  0  0  0  0  0  0  0  0  0  0  0
   -0.4655   15.6599  -13.3546 C   0  0  0  0  0  0  0  0  0  0  0  0
   -0.9578   16.5663  -12.3268 N   0  0  0  0  0  0  0  0  0  0  0  0
   -2.0046   17.4498  -12.6408 C   0  0  0  0  0  0  0  0  0  0  0  0
   -2.4444   17.3724  -13.8433 O   0  0  0  0  0  0  0  0  0  0  0  0
   -0.5580   16.5732  -11.3710 H   0  0  0  0  0  0  0  0  0  0  0  0
   -2.6347   18.4196  -11.7816 C   0  0  0  0  0  0  0  0  0  0  0  0
   -3.9113   18.8726  -12.1116 C   0  0  0  0  0  0  0  0  0  0  0  0
   -4.5385   19.7888  -11.3053 C   0  0  0  0  0  0  0  0  0  0  0  0
   -3.9200   20.2568  -10.1878 C   0  0  0  0  0  0  0  0  0  0  0  0
   -4.5629   21.1896   -9.3702 C   0  0  0  0  0  0  0  0  0  0  0  0
   -5.8208   21.6589   -9.6606 C   0  0  0  0  0  0  0  0  0  0  0  0
   -6.4387   21.1840  -10.7891 C   0  0  0  0  0  0  0  0  0  0  0  0
   -5.8186   20.2644  -11.6054 C   0  0  0  0  0  0  0  0  0  0  0  0
   -2.7284   19.8144   -9.9062 O   0  0  0  0  0  0  0  0  0  0  0  0
   -2.0654   18.9293  -10.6419 C   0  0  0  0  0  0  0  0  0  0  0  0
   -0.9220   18.5874  -10.2586 O   0  0  0  0  0  0  0  0  0  0  0  0
 11 12  1  0  0  0
 12 13  1  0  0  0
 12 16  2  0  0  0
 13 14  1  0  0  0
 14 15  2  0  0  0
 14  6  1  0  0  0
 15 16  1  0  0  0
  6  7  2  0  0  0
  6 10  1  0  0  0
  7  8  1  0  0  0
  8  9  1  0  0  0
  9 10  2  0  0  0
  9  2  1  0  0  0
  2  3  2  0  0  0
  2  4  1  0  0  0
  4  1  1  0  0  0
  1 17  1  0  0  0
 17 18  1  0  0  0
 18 19  1  0  0  0
 19 20  2  0  0  0
 19 22  1  0  0  0
 22 23  2  0  0  0
 22 31  1  0  0  0
 23 24  1  0  0  0
 24 25  2  0  0  0
 24 29  1  0  0  0
 25 26  1  0  0  0
 25 30  1  0  0  0
 26 27  2  0  0  0
 27 28  1  0  0  0
 28 29  2  0  0  0
 30 31  1  0  0  0
 31 32  2  0  0  0
  4  5  1  0  0  0
 18 21  1  0  0  0
M  END
> <minimizedAffinity>
-11.19239

$$$$
769


 26 29  0  0  0  0  0  0  0  0999 V2000
   -1.0429   17.6952  -11.5431 C   0  0  0  0  0  0  0  0  0  0  0  0
   -0.2424   18.1491  -10.5970 O   0  0  0  0  0  0  0  0  0  0  0  0
   -0.5393   16.6480  -12.3003 N   0  0  0  0  0  0  0  0  0  0  0  0
    0.8203   16.1332  -11.9968 C   0  0  0  0  0  0  0  0  0  0  0  0
    0.7267   14.6508  -11.7236 C   0  0  0  0  0  0  0  0  0  0  0  0
    0.1574   13.9982  -12.8353 N   0  0  0  0  0  0  0  0  0  0  0  0
   -0.1887   14.9054  -13.8756 C   0  0  0  0  0  0  0  0  0  0  0  0
   -1.1803   15.9793  -13.3668 C   0  0  0  0  0  0  0  0  0  0  0  0
   -4.5595   21.1463   -9.4345 Br  0  0  0  0  0  0  0  0  0  0  0  0
   -3.9434   19.9291  -10.7339 C   0  0  0  0  0  0  0  0  0  0  0  0
   -2.7082   19.2860  -10.6091 C   0  0  0  0  0  0  0  0  0  0  0  0
   -2.3044   18.4099  -11.5800 C   0  0  0  0  0  0  0  0  0  0  0  0
   -3.1745   18.2130  -12.6564 C   0  0  0  0  0  0  0  0  0  0  0  0
   -4.3094   18.8321  -12.7280 O   0  0  0  0  0  0  0  0  0  0  0  0
   -4.7203   19.6610  -11.8342 C   0  0  0  0  0  0  0  0  0  0  0  0
   -5.8393   20.2143  -11.9940 O   0  0  0  0  0  0  0  0  0  0  0  0
    0.8547   12.8501  -13.3206 C   0  0  0  0  0  0  0  0  0  0  0  0
    0.0622   11.6099  -13.4011 C   0  0  0  0  0  0  0  0  0  0  0  0
    0.5841   10.3591  -13.4605 C   0  0  0  0  0  0  0  0  0  0  0  0
   -0.2375    9.2620  -13.5373 C   0  0  0  0  0  0  0  0  0  0  0  0
   -1.5951    9.4335  -13.5550 C   0  0  0  0  0  0  0  0  0  0  0  0
   -2.1479   10.6930  -13.4956 C   0  0  0  0  0  0  0  0  0  0  0  0
   -1.3125   11.7596  -13.4197 C   0  0  0  0  0  0  0  0  0  0  0  0
   -2.2168    8.1991  -13.6363 O   0  0  0  0  0  0  0  0  0  0  0  0
   -1.2142    7.2780  -14.0417 C   0  0  0  0  0  0  0  0  0  0  0  0
   -0.0084    7.8791  -13.6099 O   0  0  0  0  0  0  0  0  0  0  0  0
  9 10  1  0  0  0
 10 11  2  0  0  0
 10 15  1  0  0  0
 11 12  1  0  0  0
 12 13  2  0  0  0
 12  1  1  0  0  0
 13 14  1  0  0  0
 14 15  1  0  0  0
 15 16  2  0  0  0
  1  2  2  0  0  0
  1  3  1  0  0  0
  3  4  1  0  0  0
  3  8  1  0  0  0
  4  5  1  0  0  0
  5  6  1  0  0  0
  6  7  1  0  0  0
  6 17  1  0  0  0
  7  8  1  0  0  0
 17 18  1  0  0  0
 18 19  2  0  0  0
 18 23  1  0  0  0
 19 20  1  0  0  0
 20 21  2  0  0  0
 20 26  1  0  0  0
 21 22  1  0  0  0
 21 24  1  0  0  0
 22 23  2  0  0  0
 24 25  1  0  0  0
 25 26  1  0  0  0
M  END
> <minimizedAffinity>
-9.04626

$$$$
776


 38 41  0  0  0  0  0  0  0  0999 V2000
    0.3908    9.5260  -14.1720 C   0  0  0  0  0  0  0  0  0  0  0  0
   -0.4724    8.6587  -13.2467 C   0  0  0  0  0  0  0  0  0  0  0  0
    0.3923    8.0598  -12.1911 C   0  0  0  0  0  0  0  0  0  0  0  0
    1.4037    7.1516  -12.8535 C   0  0  0  0  0  0  0  0  0  0  0  0
    1.5639    7.4244  -14.1991 O   0  0  0  0  0  0  0  0  0  0  0  0
    1.6446    8.7799  -14.4867 C   0  0  0  0  0  0  0  0  0  0  0  0
    2.6610    7.2235  -12.0660 C   0  0  0  0  0  0  0  0  0  0  0  0
    3.6873    6.2754  -12.7056 C   0  0  0  0  0  0  0  0  0  0  0  0
    3.2183    4.9419  -12.5213 N   0  0  0  0  0  0  0  0  0  0  0  0
    1.8189    4.8422  -11.9860 C   0  0  0  0  0  0  0  0  0  0  0  0
    0.8869    5.7333  -12.7385 C   0  0  0  0  0  0  0  0  0  0  0  0
    3.9173    3.7812  -12.7892 C   0  0  0  0  0  0  0  0  0  0  0  0
    3.2774    2.6633  -12.5154 O   0  0  0  0  0  0  0  0  0  0  0  0
   -0.9674    7.6171  -14.0353 O   0  0  0  0  0  0  0  0  0  0  0  0
   -1.6401    9.4269  -12.7174 C   0  0  0  0  0  0  0  0  0  0  0  0
   -0.9214    7.8129  -15.0047 H   0  0  0  0  0  0  0  0  0  0  0  0
    3.4058   13.0247  -11.6439 Br  0  0  0  0  0  0  0  0  0  0  0  0
    1.7987   12.5606  -12.5511 C   0  0  0  0  0  0  0  0  0  0  0  0
    1.6610   11.2785  -13.0198 C   0  0  0  0  0  0  0  0  0  0  0  0
    0.5651   10.8522  -13.6729 N   0  0  0  0  0  0  0  0  0  0  0  0
   -0.4106   11.7957  -13.8378 C   0  0  0  0  0  0  0  0  0  0  0  0
   -1.4735   11.4714  -14.4432 O   0  0  0  0  0  0  0  0  0  0  0  0
   -0.3093   13.0404  -13.3991 N   0  0  0  0  0  0  0  0  0  0  0  0
    0.7853   13.4662  -12.7463 C   0  0  0  0  0  0  0  0  0  0  0  0
    0.9193   14.6371  -12.3135 O   0  0  0  0  0  0  0  0  0  0  0  0
   -1.0697   13.7380  -13.5393 H   0  0  0  0  0  0  0  0  0  0  0  0
    5.2207    3.5801  -13.3155 C   0  0  0  0  0  0  0  0  0  0  0  0
    6.2583    4.4739  -12.9942 C   0  0  0  0  0  0  0  0  0  0  0  0
    7.5455    4.3800  -13.4183 C   0  0  0  0  0  0  0  0  0  0  0  0
    7.8541    3.2849  -14.2515 C   0  0  0  0  0  0  0  0  0  0  0  0
    6.8730    2.4111  -14.5745 C   0  0  0  0  0  0  0  0  0  0  0  0
    5.5493    2.5371  -14.1195 C   0  0  0  0  0  0  0  0  0  0  0  0
    8.5231    5.2706  -13.0880 O   0  0  0  0  0  0  0  0  0  0  0  0
    9.8440    5.3431  -13.4162 C   0  0  0  0  0  0  0  0  0  0  0  0
   10.1765    6.5436  -14.2344 C   0  0  0  0  0  0  0  0  0  0  0  0
    9.2838    6.6092  -15.3924 N   0  0  0  0  0  0  0  0  0  0  0  0
    8.3707    7.0240  -15.1565 H   0  0  0  0  0  0  0  0  0  0  0  0
    9.2433    5.7291  -15.9155 H   0  0  0  0  0  0  0  0  0  0  0  0
 17 18  1  0  0  0
 18 19  2  0  0  0
 18 24  1  0  0  0
 19 20  1  0  0  0
 20 21  1  0  0  0
 20  1  1  0  0  0
 21 22  2  0  0  0
 21 23  1  0  0  0
 23 24  1  0  0  0
 24 25  2  0  0  0
  1  2  1  0  0  0
  1  6  1  0  0  0
  2  3  1  0  0  0
  2 14  1  0  0  0
  2 15  1  0  0  0
  3  4  1  0  0  0
  4  5  1  0  0  0
  4  7  1  0  0  0
  4 11  1  0  0  0
  5  6  1  0  0  0
  7  8  1  0  0  0
  8  9  1  0  0  0
  9 10  1  0  0  0
  9 12  1  0  0  0
 10 11  1  0  0  0
 12 13  2  0  0  0
 12 27  1  0  0  0
 27 28  2  0  0  0
 27 32  1  0  0  0
 28 29  1  0  0  0
 29 30  2  0  0  0
 29 33  1  0  0  0
 30 31  1  0  0  0
 31 32  2  0  0  0
 33 34  1  0  0  0
 34 35  1  0  0  0
 35 36  1  0  0  0
 23 26  1  0  0  0
 36 37  1  0  0  0
 36 38  1  0  0  0
 14 16  1  0  0  0
M  END
> <minimizedAffinity>
-8.00647

$$$$
783


 39 42  0  0  0  0  0  0  0  0999 V2000
    3.3163   10.0908  -13.8406 C   0  0  0  0  0  0  0  0  0  0  0  0
    2.0999   10.9123  -13.9987 C   0  0  0  0  0  0  0  0  0  0  0  0
    2.3166   12.4077  -13.7380 C   0  0  0  0  0  0  0  0  0  0  0  0
    2.9420   12.6247  -12.3826 C   0  0  0  0  0  0  0  0  0  0  0  0
    3.5975   11.4941  -11.9327 O   0  0  0  0  0  0  0  0  0  0  0  0
    4.2534   10.7759  -12.8841 C   0  0  0  0  0  0  0  0  0  0  0  0
    1.8350   13.0458  -11.4329 C   0  0  0  0  0  0  0  0  0  0  0  0
    1.7798   14.5457  -11.3201 C   0  0  0  0  0  0  0  0  0  0  0  0
    2.0035   15.1158  -12.6241 N   0  0  0  0  0  0  0  0  0  0  0  0
    3.3463   14.9571  -13.1625 C   0  0  0  0  0  0  0  0  0  0  0  0
    3.9547   13.7378  -12.5083 C   0  0  0  0  0  0  0  0  0  0  0  0
    0.9861   15.7925  -13.3015 C   0  0  0  0  0  0  0  0  0  0  0  0
    1.3061   16.2523  -14.4577 O   0  0  0  0  0  0  0  0  0  0  0  0
    1.7412   10.8622  -15.3704 O   0  0  0  0  0  0  0  0  0  0  0  0
    0.8971   10.4387  -13.2494 C   0  0  0  0  0  0  0  0  0  0  0  0
    2.5182   11.0202  -15.9555 H   0  0  0  0  0  0  0  0  0  0  0  0
    0.0713    6.6953  -11.4687 Br  0  0  0  0  0  0  0  0  0  0  0  0
    1.6958    7.1178  -12.4032 C   0  0  0  0  0  0  0  0  0  0  0  0
    1.9529    8.4103  -12.7979 C   0  0  0  0  0  0  0  0  0  0  0  0
    3.0717    8.7183  -13.4453 N   0  0  0  0  0  0  0  0  0  0  0  0
    3.9713    7.7793  -13.7267 C   0  0  0  0  0  0  0  0  0  0  0  0
    5.0565    8.0352  -14.3459 O   0  0  0  0  0  0  0  0  0  0  0  0
    3.7377    6.5124  -13.3507 N   0  0  0  0  0  0  0  0  0  0  0  0
    2.6242    6.1398  -12.6930 C   0  0  0  0  0  0  0  0  0  0  0  0
    2.4332    4.9357  -12.3515 O   0  0  0  0  0  0  0  0  0  0  0  0
    4.4578    5.7613  -13.5763 H   0  0  0  0  0  0  0  0  0  0  0  0
   -0.3872   16.0570  -12.8854 C   0  0  0  0  0  0  0  0  0  0  0  0
   -1.0983   14.8278  -12.5311 N   0  0  0  0  0  0  0  0  0  0  0  0
   -0.8403   14.0467  -13.1723 H   0  0  0  0  0  0  0  0  0  0  0  0
   -2.1270   14.9898  -12.6658 H   0  0  0  0  0  0  0  0  0  0  0  0
   -0.5354   16.9781  -11.6951 C   0  0  0  0  0  0  0  0  0  0  0  0
   -1.8261   17.7314  -11.9131 C   0  0  0  0  0  0  0  0  0  0  0  0
   -2.4136   17.7502  -13.1508 C   0  0  0  0  0  0  0  0  0  0  0  0
   -3.6026   18.4571  -13.3078 C   0  0  0  0  0  0  0  0  0  0  0  0
   -4.1916   19.1269  -12.2599 C   0  0  0  0  0  0  0  0  0  0  0  0
   -3.5694   19.0842  -11.0282 C   0  0  0  0  0  0  0  0  0  0  0  0
   -2.3895   18.3932  -10.8414 C   0  0  0  0  0  0  0  0  0  0  0  0
   -5.3725   19.8119  -12.4741 O   0  0  0  0  0  0  0  0  0  0  0  0
   -5.4210   20.7894  -12.7609 H   0  0  0  0  0  0  0  0  0  0  0  0
 17 18  1  0  0  0
 18 19  2  0  0  0
 18 24  1  0  0  0
 19 20  1  0  0  0
 20 21  1  0  0  0
 20  1  1  0  0  0
 21 22  2  0  0  0
 21 23  1  0  0  0
 23 24  1  0  0  0
 24 25  2  0  0  0
  1  2  1  0  0  0
  1  6  1  0  0  0
  2  3  1  0  0  0
  2 14  1  0  0  0
  2 15  1  0  0  0
  3  4  1  0  0  0
  4  5  1  0  0  0
  4  7  1  0  0  0
  4 11  1  0  0  0
  5  6  1  0  0  0
  7  8  1  0  0  0
  8  9  1  0  0  0
  9 10  1  0  0  0
  9 12  1  0  0  0
 10 11  1  0  0  0
 12 13  2  0  0  0
 12 27  1  0  0  0
 27 28  1  0  0  0
 27 31  1  0  0  0
 31 32  1  0  0  0
 32 33  2  0  0  0
 32 37  1  0  0  0
 33 34  1  0  0  0
 34 35  2  0  0  0
 35 36  1  0  0  0
 35 38  1  0  0  0
 36 37  2  0  0  0
 23 26  1  0  0  0
 28 29  1  0  0  0
 28 30  1  0  0  0
 38 39  1  0  0  0
 14 16  1  0  0  0
M  END
> <minimizedAffinity>
-7.67281

$$$$
784


 39 42  0  0  0  0  0  0  0  0999 V2000
   -1.0767    8.0050  -14.3905 C   0  0  0  0  0  0  0  0  0  0  0  0
   -0.5811    8.2574  -12.9571 C   0  0  0  0  0  0  0  0  0  0  0  0
    0.8002    8.8978  -13.1519 C   0  0  0  0  0  0  0  0  0  0  0  0
    1.6529    8.0542  -14.0583 C   0  0  0  0  0  0  0  0  0  0  0  0
    1.0141    6.8617  -14.2988 O   0  0  0  0  0  0  0  0  0  0  0  0
   -0.2005    6.9725  -14.9707 C   0  0  0  0  0  0  0  0  0  0  0  0
    2.9134    7.7254  -13.2697 C   0  0  0  0  0  0  0  0  0  0  0  0
    3.9085    8.8497  -13.4089 C   0  0  0  0  0  0  0  0  0  0  0  0
    3.2219   10.0975  -13.7832 N   0  0  0  0  0  0  0  0  0  0  0  0
    2.6510   10.1118  -15.0974 C   0  0  0  0  0  0  0  0  0  0  0  0
    2.0700    8.7180  -15.3221 C   0  0  0  0  0  0  0  0  0  0  0  0
    3.1007   11.1763  -12.9080 C   0  0  0  0  0  0  0  0  0  0  0  0
    3.5488   11.1031  -11.6984 O   0  0  0  0  0  0  0  0  0  0  0  0
   -1.3864    9.1454  -12.2779 O   0  0  0  0  0  0  0  0  0  0  0  0
   -0.5048    6.9845  -12.1750 C   0  0  0  0  0  0  0  0  0  0  0  0
   -1.3014    8.9815  -11.3045 H   0  0  0  0  0  0  0  0  0  0  0  0
   -5.9214   10.0447  -13.9753 Br  0  0  0  0  0  0  0  0  0  0  0  0
   -4.7410    8.6076  -14.3335 C   0  0  0  0  0  0  0  0  0  0  0  0
   -3.3673    8.8283  -14.2327 C   0  0  0  0  0  0  0  0  0  0  0  0
   -2.4741    7.8648  -14.4691 N   0  0  0  0  0  0  0  0  0  0  0  0
   -2.9793    6.6428  -14.8170 C   0  0  0  0  0  0  0  0  0  0  0  0
   -2.1764    5.6989  -15.0501 O   0  0  0  0  0  0  0  0  0  0  0  0
   -4.2968    6.4002  -14.9211 N   0  0  0  0  0  0  0  0  0  0  0  0
   -5.2081    7.3610  -14.6864 C   0  0  0  0  0  0  0  0  0  0  0  0
   -6.4574    7.1317  -14.7848 O   0  0  0  0  0  0  0  0  0  0  0  0
   -4.6038    5.4292  -15.1947 H   0  0  0  0  0  0  0  0  0  0  0  0
    2.4760   12.4371  -13.2767 C   0  0  0  0  0  0  0  0  0  0  0  0
    1.0920   12.4681  -12.8699 N   0  0  0  0  0  0  0  0  0  0  0  0
   -0.0474   12.3088  -13.6494 C   0  0  0  0  0  0  0  0  0  0  0  0
   -0.0629   12.1181  -14.8830 O   0  0  0  0  0  0  0  0  0  0  0  0
   -1.4278   12.3580  -13.0207 C   0  0  0  0  0  0  0  0  0  0  0  0
    0.9449   12.6405  -11.8276 H   0  0  0  0  0  0  0  0  0  0  0  0
    3.2128   13.6538  -12.6337 C   0  0  0  0  0  0  0  0  0  0  0  0
    2.2283   14.6273  -12.1290 C   0  0  0  0  0  0  0  0  0  0  0  0
    1.5128   15.5273  -12.7850 N   0  0  0  0  0  0  0  0  0  0  0  0
    0.7121   16.2374  -11.9435 C   0  0  0  0  0  0  0  0  0  0  0  0
    0.9438   15.7531  -10.7087 N   0  0  0  0  0  0  0  0  0  0  0  0
    1.8656   14.7713  -10.8003 C   0  0  0  0  0  0  0  0  0  0  0  0
    0.4621   16.1150   -9.8502 H   0  0  0  0  0  0  0  0  0  0  0  0
 17 18  1  0  0  0
 18 19  2  0  0  0
 18 24  1  0  0  0
 19 20  1  0  0  0
 20 21  1  0  0  0
 20  1  1  0  0  0
 21 22  2  0  0  0
 21 23  1  0  0  0
 23 24  1  0  0  0
 24 25  2  0  0  0
  1  2  1  0  0  0
  1  6  1  0  0  0
  2  3  1  0  0  0
  2 14  1  0  0  0
  2 15  1  0  0  0
  3  4  1  0  0  0
  4  5  1  0  0  0
  4  7  1  0  0  0
  4 11  1  0  0  0
  5  6  1  0  0  0
  7  8  1  0  0  0
  8  9  1  0  0  0
  9 10  1  0  0  0
  9 12  1  0  0  0
 10 11  1  0  0  0
 12 13  2  0  0  0
 12 27  1  0  0  0
 27 28  1  0  0  0
 27 33  1  0  0  0
 28 29  1  0  0  0
 29 30  2  0  0  0
 29 31  1  0  0  0
 33 34  1  0  0  0
 34 35  1  0  0  0
 34 38  2  0  0  0
 35 36  2  0  0  0
 36 37  1  0  0  0
 37 38  1  0  0  0
 23 26  1  0  0  0
 28 32  1  0  0  0
 37 39  1  0  0  0
 14 16  1  0  0  0
M  END
> <minimizedAffinity>
-7.40948

$$$$
786


 25 28  0  0  0  0  0  0  0  0999 V2000
    2.5039    5.9426  -12.0173 N   0  0  0  0  0  0  0  0  0  0  0  0
    1.1388    6.2693  -12.0260 C   0  0  0  0  0  0  0  0  0  0  0  0
    0.3003    5.4381  -12.4321 O   0  0  0  0  0  0  0  0  0  0  0  0
    3.1920    6.6413  -11.6777 H   0  0  0  0  0  0  0  0  0  0  0  0
    0.6816    7.5907  -11.5573 C   0  0  0  0  0  0  0  0  0  0  0  0
    1.7143    8.6466  -11.8616 C   0  0  0  0  0  0  0  0  0  0  0  0
    1.8873    8.6656  -13.3015 N   0  0  0  0  0  0  0  0  0  0  0  0
    0.8330    8.4662  -14.1092 C   0  0  0  0  0  0  0  0  0  0  0  0
    1.2914    8.5388  -15.3750 N   0  0  0  0  0  0  0  0  0  0  0  0
    2.5703    8.7729  -15.3611 N   0  0  0  0  0  0  0  0  0  0  0  0
    2.9529    8.8543  -14.0804 C   0  0  0  0  0  0  0  0  0  0  0  0
    4.3693    9.1159  -13.6769 C   0  0  0  0  0  0  0  0  0  0  0  0
   -0.5417    8.2196  -13.6473 C   0  0  0  0  0  0  0  0  0  0  0  0
   -0.6437    7.9202  -12.1939 C   0  0  0  0  0  0  0  0  0  0  0  0
    2.9306    4.6408  -12.4802 C   0  0  0  0  0  0  0  0  0  0  0  0
   10.3439    6.2506  -14.4376 Br  0  0  0  0  0  0  0  0  0  0  0  0
    8.7267    5.3311  -13.9819 C   0  0  0  0  0  0  0  0  0  0  0  0
    7.5531    6.0019  -13.7179 C   0  0  0  0  0  0  0  0  0  0  0  0
    6.4002    5.3508  -13.3940 N   0  0  0  0  0  0  0  0  0  0  0  0
    6.4144    4.0070  -13.3311 C   0  0  0  0  0  0  0  0  0  0  0  0
    5.1826    3.5838  -12.9991 N   0  0  0  0  0  0  0  0  0  0  0  0
    4.3698    4.6456  -12.8460 C   0  0  0  0  0  0  0  0  0  0  0  0
    5.1507    5.7539  -13.0981 C   0  0  0  0  0  0  0  0  0  0  0  0
    7.5844    3.2997  -13.5927 C   0  0  0  0  0  0  0  0  0  0  0  0
    8.7461    3.9540  -13.9185 C   0  0  0  0  0  0  0  0  0  0  0  0
 16 17  1  0  0  0
 17 18  2  0  0  0
 17 25  1  0  0  0
 18 19  1  0  0  0
 19 20  1  0  0  0
 19 23  1  0  0  0
 20 21  2  0  0  0
 20 24  1  0  0  0
 21 22  1  0  0  0
 22 23  2  0  0  0
 22 15  1  0  0  0
 15  1  1  0  0  0
  1  2  1  0  0  0
  2  3  2  0  0  0
  2  5  1  0  0  0
  5  6  1  0  0  0
  5 14  1  0  0  0
  6  7  1  0  0  0
  7  8  1  0  0  0
  7 11  1  0  0  0
  8  9  2  0  0  0
  8 13  1  0  0  0
  9 10  1  0  0  0
 10 11  2  0  0  0
 11 12  1  0  0  0
 13 14  1  0  0  0
 24 25  2  0  0  0
  1  4  1  0  0  0
M  END
> <minimizedAffinity>
-7.42695

$$$$
789


 21 24  0  0  0  0  0  0  0  0999 V2000
   -5.2054    8.0451  -14.7938 C   0  0  0  0  0  0  0  0  0  0  0  0
   -5.6315    6.8896  -15.0631 O   0  0  0  0  0  0  0  0  0  0  0  0
   -3.8172    8.2060  -14.5537 N   0  0  0  0  0  0  0  0  0  0  0  0
   -2.9487    7.0885  -14.6252 C   0  0  0  0  0  0  0  0  0  0  0  0
   -1.7350    7.2143  -13.7824 C   0  0  0  0  0  0  0  0  0  0  0  0
   -1.6035    8.4409  -13.0495 N   0  0  0  0  0  0  0  0  0  0  0  0
   -1.8760    9.5932  -13.8883 C   0  0  0  0  0  0  0  0  0  0  0  0
   -3.3497    9.5294  -14.2417 C   0  0  0  0  0  0  0  0  0  0  0  0
   -0.2692    8.3859  -12.5345 C   0  0  0  0  0  0  0  0  0  0  0  0
    0.5549    7.7446  -13.6229 C   0  0  0  0  0  0  0  0  0  0  0  0
   -0.4542    7.1820  -14.5988 C   0  0  0  0  0  0  0  0  0  0  0  0
  -10.6463   13.5445  -15.8861 Br  0  0  0  0  0  0  0  0  0  0  0  0
   -9.2558   12.4748  -15.1022 C   0  0  0  0  0  0  0  0  0  0  0  0
   -8.7079   11.4026  -15.7712 C   0  0  0  0  0  0  0  0  0  0  0  0
   -7.7246   10.6372  -15.2304 N   0  0  0  0  0  0  0  0  0  0  0  0
   -7.0476    9.5809  -15.6528 N   0  0  0  0  0  0  0  0  0  0  0  0
   -6.1554    9.1653  -14.7431 C   0  0  0  0  0  0  0  0  0  0  0  0
   -6.3151   10.0571  -13.6821 C   0  0  0  0  0  0  0  0  0  0  0  0
   -7.2991   10.9718  -13.9984 C   0  0  0  0  0  0  0  0  0  0  0  0
   -7.8316   12.0284  -13.3295 N   0  0  0  0  0  0  0  0  0  0  0  0
   -8.8032   12.7984  -13.8427 C   0  0  0  0  0  0  0  0  0  0  0  0
 12 13  1  0  0  0
 13 14  2  0  0  0
 13 21  1  0  0  0
 14 15  1  0  0  0
 15 16  1  0  0  0
 15 19  1  0  0  0
 16 17  2  0  0  0
 17 18  1  0  0  0
 17  1  1  0  0  0
 18 19  2  0  0  0
 19 20  1  0  0  0
 20 21  2  0  0  0
  1  2  2  0  0  0
  1  3  1  0  0  0
  3  4  1  0  0  0
  3  8  1  0  0  0
  4  5  1  0  0  0
  5  6  1  0  0  0
  5 11  1  0  0  0
  6  7  1  0  0  0
  6  9  1  0  0  0
  7  8  1  0  0  0
  9 10  1  0  0  0
 10 11  1  0  0  0
M  END
> <minimizedAffinity>
-8.31519

$$$$
790


 25 28  0  0  0  0  0  0  0  0999 V2000
    1.2521    6.9507  -13.4424 C   0  0  0  0  0  0  0  0  0  0  0  0
    1.5709    6.2260  -12.4563 O   0  0  0  0  0  0  0  0  0  0  0  0
    2.1986    7.8180  -14.0460 N   0  0  0  0  0  0  0  0  0  0  0  0
    1.7437    8.6256  -15.1883 C   0  0  0  0  0  0  0  0  0  0  0  0
    2.6699    9.8417  -15.1716 C   0  0  0  0  0  0  0  0  0  0  0  0
    2.8635   10.1668  -13.7898 N   0  0  0  0  0  0  0  0  0  0  0  0
    3.9396    9.3459  -13.1611 C   0  0  0  0  0  0  0  0  0  0  0  0
    3.5689    7.9164  -13.5654 C   0  0  0  0  0  0  0  0  0  0  0  0
    2.1686   11.0766  -13.0100 C   0  0  0  0  0  0  0  0  0  0  0  0
    2.5656   11.2243  -11.7804 O   0  0  0  0  0  0  0  0  0  0  0  0
   -4.8633   10.4252  -13.6079 Br  0  0  0  0  0  0  0  0  0  0  0  0
   -3.2959    9.3455  -13.6665 C   0  0  0  0  0  0  0  0  0  0  0  0
   -3.2996    8.1459  -14.3060 C   0  0  0  0  0  0  0  0  0  0  0  0
   -2.2103    7.3889  -14.3502 N   0  0  0  0  0  0  0  0  0  0  0  0
   -1.9782    6.1991  -14.9072 N   0  0  0  0  0  0  0  0  0  0  0  0
   -0.6999    5.8664  -14.6634 C   0  0  0  0  0  0  0  0  0  0  0  0
   -0.1010    6.8666  -13.9335 C   0  0  0  0  0  0  0  0  0  0  0  0
   -1.0905    7.8259  -13.7485 C   0  0  0  0  0  0  0  0  0  0  0  0
   -1.0706    9.0079  -13.1128 N   0  0  0  0  0  0  0  0  0  0  0  0
   -2.1540    9.7858  -13.0557 C   0  0  0  0  0  0  0  0  0  0  0  0
    1.0329   11.9169  -13.3505 C   0  0  0  0  0  0  0  0  0  0  0  0
    0.2077   11.6967  -14.3836 O   0  0  0  0  0  0  0  0  0  0  0  0
   -0.7159   12.5922  -14.4644 C   0  0  0  0  0  0  0  0  0  0  0  0
   -0.5591   13.5027  -13.4496 C   0  0  0  0  0  0  0  0  0  0  0  0
    0.5542   13.0587  -12.7547 C   0  0  0  0  0  0  0  0  0  0  0  0
 11 12  1  0  0  0
 12 13  2  0  0  0
 12 20  1  0  0  0
 13 14  1  0  0  0
 14 15  1  0  0  0
 14 18  1  0  0  0
 15 16  2  0  0  0
 16 17  1  0  0  0
 17 18  2  0  0  0
 17  1  1  0  0  0
 18 19  1  0  0  0
 19 20  2  0  0  0
  1  2  2  0  0  0
  1  3  1  0  0  0
  3  4  1  0  0  0
  3  8  1  0  0  0
  4  5  1  0  0  0
  5  6  1  0  0  0
  6  7  1  0  0  0
  6  9  1  0  0  0
  7  8  1  0  0  0
  9 10  2  0  0  0
  9 21  1  0  0  0
 21 22  1  0  0  0
 21 25  2  0  0  0
 22 23  1  0  0  0
 23 24  2  0  0  0
 24 25  1  0  0  0
M  END
> <minimizedAffinity>
-6.43814

$$$$
797


 28 31  0  0  0  0  0  0  0  0999 V2000
   -5.4147    8.3477  -14.9040 O   0  0  0  0  0  0  0  0  0  0  0  0
   -4.7179    7.1651  -14.7696 C   0  0  0  0  0  0  0  0  0  0  0  0
   -5.1826    6.2534  -14.0557 O   0  0  0  0  0  0  0  0  0  0  0  0
   -3.4296    7.0142  -15.4842 C   0  0  0  0  0  0  0  0  0  0  0  0
   -2.3267    7.0227  -14.5667 N   0  0  0  0  0  0  0  0  0  0  0  0
   -1.8612    8.1346  -13.8342 C   0  0  0  0  0  0  0  0  0  0  0  0
   -2.2891    9.3179  -13.8218 O   0  0  0  0  0  0  0  0  0  0  0  0
   -0.7096    7.6986  -13.0152 C   0  0  0  0  0  0  0  0  0  0  0  0
   -0.5076    6.3675  -13.2609 C   0  0  0  0  0  0  0  0  0  0  0  0
    0.4929    5.6699  -12.6476 C   0  0  0  0  0  0  0  0  0  0  0  0
    1.3096    6.3333  -11.7645 C   0  0  0  0  0  0  0  0  0  0  0  0
    1.1057    7.6768  -11.5154 C   0  0  0  0  0  0  0  0  0  0  0  0
    0.0991    8.3900  -12.1293 C   0  0  0  0  0  0  0  0  0  0  0  0
   -1.5111    5.9238  -14.2311 C   0  0  0  0  0  0  0  0  0  0  0  0
   -1.6022    4.7382  -14.6744 O   0  0  0  0  0  0  0  0  0  0  0  0
   -5.7966    9.1934  -13.8511 C   0  0  0  0  0  0  0  0  0  0  0  0
  -11.7933   14.0801  -17.0422 Br  0  0  0  0  0  0  0  0  0  0  0  0
  -10.4569   12.7972  -16.5453 C   0  0  0  0  0  0  0  0  0  0  0  0
   -9.7355   12.9197  -15.3781 C   0  0  0  0  0  0  0  0  0  0  0  0
   -8.7869   12.0382  -14.9948 N   0  0  0  0  0  0  0  0  0  0  0  0
   -8.4816   10.9645  -15.7450 C   0  0  0  0  0  0  0  0  0  0  0  0
   -7.5404   10.0773  -15.3791 N   0  0  0  0  0  0  0  0  0  0  0  0
   -6.8288   10.1920  -14.2325 C   0  0  0  0  0  0  0  0  0  0  0  0
   -7.1246   11.2866  -13.4478 C   0  0  0  0  0  0  0  0  0  0  0  0
   -8.1027   12.1948  -13.8425 C   0  0  0  0  0  0  0  0  0  0  0  0
   -8.3770   13.1831  -13.1439 O   0  0  0  0  0  0  0  0  0  0  0  0
   -9.1974   10.8134  -16.9355 C   0  0  0  0  0  0  0  0  0  0  0  0
  -10.1669   11.7062  -17.3365 C   0  0  0  0  0  0  0  0  0  0  0  0
 17 18  1  0  0  0
 18 19  2  0  0  0
 18 28  1  0  0  0
 19 20  1  0  0  0
 20 21  1  0  0  0
 20 25  1  0  0  0
 21 22  2  0  0  0
 21 27  1  0  0  0
 22 23  1  0  0  0
 23 24  2  0  0  0
 23 16  1  0  0  0
 24 25  1  0  0  0
 25 26  2  0  0  0
 16  1  1  0  0  0
  1  2  1  0  0  0
  2  3  2  0  0  0
  2  4  1  0  0  0
  4  5  1  0  0  0
  5  6  1  0  0  0
  5 14  1  0  0  0
  6  7  2  0  0  0
  6  8  1  0  0  0
  8  9  2  0  0  0
  8 13  1  0  0  0
  9 10  1  0  0  0
  9 14  1  0  0  0
 10 11  2  0  0  0
 11 12  1  0  0  0
 12 13  2  0  0  0
 14 15  2  0  0  0
 27 28  2  0  0  0
M  END
> <minimizedAffinity>
-10.40695

$$$$
800


 29 32  0  0  0  0  0  0  0  0999 V2000
   -3.3400    9.9484  -14.0495 C   0  0  0  0  0  0  0  0  0  0  0  0
   -2.9968   10.9312  -14.7561 O   0  0  0  0  0  0  0  0  0  0  0  0
   -4.5087    9.2974  -14.3647 O   0  0  0  0  0  0  0  0  0  0  0  0
   -5.6144    9.2308  -13.4839 C   0  0  0  0  0  0  0  0  0  0  0  0
  -11.5280   13.7348  -17.0942 Br  0  0  0  0  0  0  0  0  0  0  0  0
  -10.1825   12.5194  -16.4926 C   0  0  0  0  0  0  0  0  0  0  0  0
   -9.5573   12.7572  -15.2877 C   0  0  0  0  0  0  0  0  0  0  0  0
   -8.6102   11.9046  -14.8618 N   0  0  0  0  0  0  0  0  0  0  0  0
   -8.2555   10.8203  -15.5813 C   0  0  0  0  0  0  0  0  0  0  0  0
   -7.2980    9.9733  -15.1330 N   0  0  0  0  0  0  0  0  0  0  0  0
   -6.6616   10.1665  -13.9645 C   0  0  0  0  0  0  0  0  0  0  0  0
   -7.0108   11.2666  -13.2164 C   0  0  0  0  0  0  0  0  0  0  0  0
   -7.9991   12.1411  -13.6795 C   0  0  0  0  0  0  0  0  0  0  0  0
   -8.3216   13.1375  -13.0118 O   0  0  0  0  0  0  0  0  0  0  0  0
   -8.8782   10.5764  -16.7897 C   0  0  0  0  0  0  0  0  0  0  0  0
   -9.8540   11.4201  -17.2711 C   0  0  0  0  0  0  0  0  0  0  0  0
   -2.4436    9.5724  -12.9251 C   0  0  0  0  0  0  0  0  0  0  0  0
   -1.1804    9.0668  -13.3742 N   0  0  0  0  0  0  0  0  0  0  0  0
   -0.8840    7.7176  -13.7314 C   0  0  0  0  0  0  0  0  0  0  0  0
   -1.7111    6.7611  -13.7014 O   0  0  0  0  0  0  0  0  0  0  0  0
    0.4839    7.6540  -14.1183 N   0  0  0  0  0  0  0  0  0  0  0  0
    1.1019    8.9287  -13.8547 C   0  0  0  0  0  0  0  0  0  0  0  0
    2.0612    8.8866  -12.6950 C   0  0  0  0  0  0  0  0  0  0  0  0
    2.9112   10.0995  -12.9087 C   0  0  0  0  0  0  0  0  0  0  0  0
    2.7022   10.5684  -14.3190 C   0  0  0  0  0  0  0  0  0  0  0  0
    1.9493    9.4308  -14.9740 C   0  0  0  0  0  0  0  0  0  0  0  0
    0.0073    9.8447  -13.5390 C   0  0  0  0  0  0  0  0  0  0  0  0
    0.0430   11.0919  -13.4218 O   0  0  0  0  0  0  0  0  0  0  0  0
    0.9298    6.8117  -14.5210 H   0  0  0  0  0  0  0  0  0  0  0  0
  5  6  1  0  0  0
  6  7  2  0  0  0
  6 16  1  0  0  0
  7  8  1  0  0  0
  8  9  1  0  0  0
  8 13  1  0  0  0
  9 10  2  0  0  0
  9 15  1  0  0  0
 10 11  1  0  0  0
 11 12  2  0  0  0
 11  4  1  0  0  0
 12 13  1  0  0  0
 13 14  2  0  0  0
  4  3  1  0  0  0
  3  1  1  0  0  0
  1  2  2  0  0  0
  1 17  1  0  0  0
 17 18  1  0  0  0
 18 19  1  0  0  0
 18 27  1  0  0  0
 19 20  2  0  0  0
 19 21  1  0  0  0
 21 22  1  0  0  0
 22 23  1  0  0  0
 22 26  1  0  0  0
 22 27  1  0  0  0
 23 24  1  0  0  0
 24 25  1  0  0  0
 25 26  1  0  0  0
 27 28  2  0  0  0
 15 16  2  0  0  0
 21 29  1  0  0  0
M  END
> <minimizedAffinity>
-9.96330

$$$$
803


 31 34  0  0  0  0  0  0  0  0999 V2000
    0.0628    6.5304  -13.7820 Br  0  0  0  0  0  0  0  0  0  0  0  0
    0.8287    8.2347  -13.4381 C   0  0  0  0  0  0  0  0  0  0  0  0
    0.1563    9.3969  -13.5894 C   0  0  0  0  0  0  0  0  0  0  0  0
    0.6601   10.5917  -13.2671 N   0  0  0  0  0  0  0  0  0  0  0  0
    1.8943   10.6444  -12.7675 C   0  0  0  0  0  0  0  0  0  0  0  0
    2.4320   11.8526  -12.4387 N   0  0  0  0  0  0  0  0  0  0  0  0
    1.7845   12.9993  -12.5921 C   0  0  0  0  0  0  0  0  0  0  0  0
    0.5079   12.9716  -13.1057 C   0  0  0  0  0  0  0  0  0  0  0  0
   -0.2146   14.1328  -13.2958 C   0  0  0  0  0  0  0  0  0  0  0  0
    0.3019   15.3901  -12.9803 C   0  0  0  0  0  0  0  0  0  0  0  0
    1.5807   15.4057  -12.4669 C   0  0  0  0  0  0  0  0  0  0  0  0
    2.3085   14.2442  -12.2745 C   0  0  0  0  0  0  0  0  0  0  0  0
   -0.0227   11.7298  -13.4335 C   0  0  0  0  0  0  0  0  0  0  0  0
   -1.1819   11.6905  -13.9024 O   0  0  0  0  0  0  0  0  0  0  0  0
    2.5895    9.4944  -12.6070 N   0  0  0  0  0  0  0  0  0  0  0  0
    2.1601    8.2755  -12.9042 C   0  0  0  0  0  0  0  0  0  0  0  0
    3.5636    9.6732  -12.1981 H   0  0  0  0  0  0  0  0  0  0  0  0
    2.8337    7.0959  -12.8696 N   0  0  0  0  0  0  0  0  0  0  0  0
    3.9014    7.6315  -13.5343 H   0  0  0  0  0  0  0  0  0  0  0  0
    3.4980    5.9337  -12.8357 C   0  0  0  0  0  0  0  0  0  0  0  0
    4.7625    5.8442  -13.4322 C   0  0  0  0  0  0  0  0  0  0  0  0
    5.3552    4.6395  -13.6244 C   0  0  0  0  0  0  0  0  0  0  0  0
    4.7268    3.4831  -13.2312 C   0  0  0  0  0  0  0  0  0  0  0  0
    3.4864    3.5034  -12.6331 C   0  0  0  0  0  0  0  0  0  0  0  0
    2.9051    4.7364  -12.4517 C   0  0  0  0  0  0  0  0  0  0  0  0
    5.5606    7.0385  -13.7361 C   0  0  0  0  0  0  0  0  0  0  0  0
    5.1796    7.7681  -14.6863 O   0  0  0  0  0  0  0  0  0  0  0  0
    6.6911    7.4261  -13.0771 O   0  0  0  0  0  0  0  0  0  0  0  0
    7.9925    7.1440  -13.5547 C   0  0  0  0  0  0  0  0  0  0  0  0
    8.9240    6.8073  -12.3866 C   0  0  0  0  0  0  0  0  0  0  0  0
    8.5645    5.4378  -11.8616 C   0  0  0  0  0  0  0  0  0  0  0  0
  1  2  1  0  0  0
  2  3  2  0  0  0
  2 16  1  0  0  0
  3  4  1  0  0  0
  4  5  1  0  0  0
  4 13  1  0  0  0
  5  6  2  0  0  0
  5 15  1  0  0  0
  6  7  1  0  0  0
  7  8  2  0  0  0
  7 12  1  0  0  0
  8  9  1  0  0  0
  8 13  1  0  0  0
  9 10  2  0  0  0
 10 11  1  0  0  0
 11 12  2  0  0  0
 13 14  2  0  0  0
 15 16  2  0  0  0
 16 18  1  0  0  0
 18 20  1  0  0  0
 20 21  2  0  0  0
 20 25  1  0  0  0
 21 22  1  0  0  0
 21 26  1  0  0  0
 22 23  2  0  0  0
 23 24  1  0  0  0
 24 25  2  0  0  0
 26 27  2  0  0  0
 26 28  1  0  0  0
 28 29  1  0  0  0
 29 30  1  0  0  0
 30 31  1  0  0  0
 15 17  1  0  0  0
 18 19  1  0  0  0
M  END
> <minimizedAffinity>
-8.95387

$$$$
814


 31 34  0  0  0  0  0  0  0  0999 V2000
    2.9463    6.7424  -13.0652 N   0  0  0  0  0  0  0  0  0  0  0  0
    2.7338    8.0194  -13.2880 N   0  0  0  0  0  0  0  0  0  0  0  0
    3.8052    8.5820  -13.8663 C   0  0  0  0  0  0  0  0  0  0  0  0
    4.7239    7.6157  -14.0096 N   0  0  0  0  0  0  0  0  0  0  0  0
    4.1791    6.4693  -13.5055 C   0  0  0  0  0  0  0  0  0  0  0  0
    4.8261    5.1594  -13.4544 C   0  0  0  0  0  0  0  0  0  0  0  0
    6.1231    5.1709  -12.6803 C   0  0  0  0  0  0  0  0  0  0  0  0
    7.2268    5.8767  -13.4367 C   0  0  0  0  0  0  0  0  0  0  0  0
    7.0376    7.3604  -13.5082 C   0  0  0  0  0  0  0  0  0  0  0  0
    6.0444    7.7640  -14.5887 C   0  0  0  0  0  0  0  0  0  0  0  0
    2.0373    5.8124  -12.4646 C   0  0  0  0  0  0  0  0  0  0  0  0
    0.7925    6.4783  -11.9975 C   0  0  0  0  0  0  0  0  0  0  0  0
    0.7639    6.8904  -10.8075 O   0  0  0  0  0  0  0  0  0  0  0  0
   -4.1521    7.3510  -15.5894 Br  0  0  0  0  0  0  0  0  0  0  0  0
   -2.6105    7.0875  -14.4680 C   0  0  0  0  0  0  0  0  0  0  0  0
   -2.0932    5.8150  -14.2962 C   0  0  0  0  0  0  0  0  0  0  0  0
   -0.9789    5.6177  -13.4864 C   0  0  0  0  0  0  0  0  0  0  0  0
   -0.3669    6.6679  -12.8423 C   0  0  0  0  0  0  0  0  0  0  0  0
   -0.9076    7.9195  -13.0348 C   0  0  0  0  0  0  0  0  0  0  0  0
   -2.0062    8.1431  -13.8280 C   0  0  0  0  0  0  0  0  0  0  0  0
    3.9768    9.9822  -14.2779 C   0  0  0  0  0  0  0  0  0  0  0  0
    3.7709   10.9016  -13.2011 N   0  0  0  0  0  0  0  0  0  0  0  0
    4.4740   10.9871  -12.4527 H   0  0  0  0  0  0  0  0  0  0  0  0
    2.6169   11.7299  -13.0984 C   0  0  0  0  0  0  0  0  0  0  0  0
    1.3935   11.3525  -13.6040 C   0  0  0  0  0  0  0  0  0  0  0  0
    0.2882   12.1564  -13.4946 C   0  0  0  0  0  0  0  0  0  0  0  0
    0.3926   13.3607  -12.8725 C   0  0  0  0  0  0  0  0  0  0  0  0
    1.6154   13.7422  -12.3657 C   0  0  0  0  0  0  0  0  0  0  0  0
    2.7338   12.9413  -12.4691 C   0  0  0  0  0  0  0  0  0  0  0  0
   -0.6981   14.1878  -12.7489 O   0  0  0  0  0  0  0  0  0  0  0  0
   -0.6807   15.5396  -13.1352 C   0  0  0  0  0  0  0  0  0  0  0  0
 14 15  1  0  0  0
 15 16  2  0  0  0
 15 20  1  0  0  0
 16 17  1  0  0  0
 17 18  2  0  0  0
 18 19  1  0  0  0
 18 12  1  0  0  0
 19 20  2  0  0  0
 12 13  2  0  0  0
 12 11  1  0  0  0
 11  1  1  0  0  0
  1  2  1  0  0  0
  1  5  2  0  0  0
  2  3  2  0  0  0
  3  4  1  0  0  0
  3 21  1  0  0  0
  4  5  1  0  0  0
  4 10  1  0  0  0
  5  6  1  0  0  0
  6  7  1  0  0  0
  7  8  1  0  0  0
  8  9  1  0  0  0
  9 10  1  0  0  0
 21 22  1  0  0  0
 22 24  1  0  0  0
 24 25  2  0  0  0
 24 29  1  0  0  0
 25 26  1  0  0  0
 26 27  2  0  0  0
 27 28  1  0  0  0
 27 30  1  0  0  0
 28 29  2  0  0  0
 30 31  1  0  0  0
 22 23  1  0  0  0
M  END
> <minimizedAffinity>
-9.39685

$$$$
827


 29 32  0  0  0  0  0  0  0  0999 V2000
    3.5873    8.9072  -15.0132 C   0  0  0  0  0  0  0  0  0  0  0  0
    3.0534    7.6842  -14.4182 N   0  0  0  0  0  0  0  0  0  0  0  0
    4.0794    6.9417  -13.8863 C   0  0  0  0  0  0  0  0  0  0  0  0
    4.1141    5.6755  -13.5534 C   0  0  0  0  0  0  0  0  0  0  0  0
    5.1543    4.7794  -12.9704 C   0  0  0  0  0  0  0  0  0  0  0  0
    6.5127    5.3990  -12.8731 C   0  0  0  0  0  0  0  0  0  0  0  0
    6.4883    6.6710  -12.0587 C   0  0  0  0  0  0  0  0  0  0  0  0
    6.3765    7.8710  -12.9782 C   0  0  0  0  0  0  0  0  0  0  0  0
    5.2487    7.7926  -13.8496 N   0  0  0  0  0  0  0  0  0  0  0  0
    5.1349    8.6919  -15.0055 C   0  0  0  0  0  0  0  0  0  0  0  0
    3.2149    9.0931  -16.2878 O   0  0  0  0  0  0  0  0  0  0  0  0
    2.8534    7.1117  -15.3832 H   0  0  0  0  0  0  0  0  0  0  0  0
    3.3142    9.9571  -16.7136 H   0  0  0  0  0  0  0  0  0  0  0  0
    2.7949   13.7178  -11.2441 Br  0  0  0  0  0  0  0  0  0  0  0  0
    3.0341   12.2441  -12.4088 C   0  0  0  0  0  0  0  0  0  0  0  0
    4.1493   11.4400  -12.2672 C   0  0  0  0  0  0  0  0  0  0  0  0
    4.3380   10.3577  -13.1005 C   0  0  0  0  0  0  0  0  0  0  0  0
    3.4230   10.0609  -14.0837 C   0  0  0  0  0  0  0  0  0  0  0  0
    2.3250   10.8556  -14.2210 C   0  0  0  0  0  0  0  0  0  0  0  0
    2.1131   11.9604  -13.3853 C   0  0  0  0  0  0  0  0  0  0  0  0
    1.7920    7.7691  -13.8912 C   0  0  0  0  0  0  0  0  0  0  0  0
    0.6289    7.6928  -14.5964 C   0  0  0  0  0  0  0  0  0  0  0  0
   -0.6287    7.9607  -14.0293 C   0  0  0  0  0  0  0  0  0  0  0  0
   -0.7415    8.3176  -12.7114 C   0  0  0  0  0  0  0  0  0  0  0  0
    0.4383    8.3951  -11.9855 C   0  0  0  0  0  0  0  0  0  0  0  0
    1.6697    8.1330  -12.5462 C   0  0  0  0  0  0  0  0  0  0  0  0
   -1.9708    8.5961  -12.1372 O   0  0  0  0  0  0  0  0  0  0  0  0
   -2.9167    9.5026  -12.6451 C   0  0  0  0  0  0  0  0  0  0  0  0
   -2.1005   10.6908  -13.1893 C   0  0  0  0  0  0  0  0  0  0  0  0
 14 15  1  0  0  0
 15 16  2  0  0  0
 15 20  1  0  0  0
 16 17  1  0  0  0
 17 18  2  0  0  0
 18 19  1  0  0  0
 18  1  1  0  0  0
 19 20  2  0  0  0
  1  2  1  0  0  0
  1 10  1  0  0  0
  1 11  1  0  0  0
  2  3  1  0  0  0
  2 21  1  0  0  0
  3  4  2  0  0  0
  3  9  1  0  0  0
  4  5  1  0  0  0
  5  6  1  0  0  0
  6  7  1  0  0  0
  7  8  1  0  0  0
  8  9  1  0  0  0
  9 10  1  0  0  0
 21 22  2  0  0  0
 21 26  1  0  0  0
 22 23  1  0  0  0
 23 24  2  0  0  0
 24 25  1  0  0  0
 24 27  1  0  0  0
 25 26  2  0  0  0
 27 28  1  0  0  0
 28 29  1  0  0  0
  2 12  1  0  0  0
 11 13  1  0  0  0
M  CHG 1   2   1
M  END
> <minimizedAffinity>
-5.17566

$$$$
833


 28 31  0  0  0  0  0  0  0  0999 V2000
    1.0958    7.7496  -12.0370 C   0  0  0  0  0  0  0  0  0  0  0  0
    1.0545    8.7171  -13.1249 N   0  0  0  0  0  0  0  0  0  0  0  0
    2.2061    8.9919  -13.9767 C   0  0  0  0  0  0  0  0  0  0  0  0
    2.0429   10.2113  -14.8074 C   0  0  0  0  0  0  0  0  0  0  0  0
    1.6355   11.4361  -14.0301 C   0  0  0  0  0  0  0  0  0  0  0  0
    0.1279   11.5364  -14.1687 C   0  0  0  0  0  0  0  0  0  0  0  0
   -0.6257   10.4677  -13.5817 C   0  0  0  0  0  0  0  0  0  0  0  0
   -0.2305    9.2546  -13.1315 C   0  0  0  0  0  0  0  0  0  0  0  0
   -1.1645    8.3446  -12.5987 N   0  0  0  0  0  0  0  0  0  0  0  0
   -0.3348    7.3393  -12.0010 C   0  0  0  0  0  0  0  0  0  0  0  0
    1.5204    8.4125  -10.9150 O   0  0  0  0  0  0  0  0  0  0  0  0
   -1.7881    8.7461  -11.8610 H   0  0  0  0  0  0  0  0  0  0  0  0
    2.4302    8.7717  -10.9794 H   0  0  0  0  0  0  0  0  0  0  0  0
    4.9918    3.1830  -13.2499 Br  0  0  0  0  0  0  0  0  0  0  0  0
    3.7706    4.6108  -12.8813 C   0  0  0  0  0  0  0  0  0  0  0  0
    2.5202    4.3185  -12.3877 C   0  0  0  0  0  0  0  0  0  0  0  0
    1.6077    5.3370  -12.1096 C   0  0  0  0  0  0  0  0  0  0  0  0
    2.0248    6.6476  -12.3581 C   0  0  0  0  0  0  0  0  0  0  0  0
    3.2570    6.9470  -12.8472 C   0  0  0  0  0  0  0  0  0  0  0  0
    4.1483    5.9224  -13.1166 C   0  0  0  0  0  0  0  0  0  0  0  0
   -1.9104    7.8460  -13.7095 C   0  0  0  0  0  0  0  0  0  0  0  0
   -3.1092    8.4324  -14.0789 C   0  0  0  0  0  0  0  0  0  0  0  0
   -3.7949    7.8255  -15.1231 C   0  0  0  0  0  0  0  0  0  0  0  0
   -3.3533    6.6985  -15.7913 C   0  0  0  0  0  0  0  0  0  0  0  0
   -2.1261    6.1370  -15.3793 C   0  0  0  0  0  0  0  0  0  0  0  0
   -1.4699    6.7368  -14.3661 C   0  0  0  0  0  0  0  0  0  0  0  0
   -3.5538    9.5438  -13.4305 O   0  0  0  0  0  0  0  0  0  0  0  0
   -4.8684   10.0109  -13.5854 C   0  0  0  0  0  0  0  0  0  0  0  0
 14 15  1  0  0  0
 15 16  2  0  0  0
 15 20  1  0  0  0
 16 17  1  0  0  0
 17 18  2  0  0  0
 18 19  1  0  0  0
 18  1  1  0  0  0
 19 20  2  0  0  0
  1  2  1  0  0  0
  1 10  1  0  0  0
  1 11  1  0  0  0
  2  3  1  0  0  0
  2  8  1  0  0  0
  3  4  1  0  0  0
  4  5  1  0  0  0
  5  6  1  0  0  0
  6  7  1  0  0  0
  7  8  2  0  0  0
  8  9  1  0  0  0
  9 10  1  0  0  0
  9 21  1  0  0  0
 21 22  2  0  0  0
 21 26  1  0  0  0
 22 23  1  0  0  0
 22 27  1  0  0  0
 23 24  2  0  0  0
 24 25  1  0  0  0
 25 26  2  0  0  0
 27 28  1  0  0  0
  9 12  1  0  0  0
 11 13  1  0  0  0
M  CHG 1   9   1
M  END
> <minimizedAffinity>
-8.29425

$$$$
834


 28 31  0  0  0  0  0  0  0  0999 V2000
    3.2589    8.1904  -13.3951 C   0  0  0  0  0  0  0  0  0  0  0  0
    1.9288    7.7769  -13.0831 N   0  0  0  0  0  0  0  0  0  0  0  0
    1.4596    7.1498  -11.8862 C   0  0  0  0  0  0  0  0  0  0  0  0
    0.5639    5.9815  -12.0341 C   0  0  0  0  0  0  0  0  0  0  0  0
    0.1852    5.5843  -13.4149 C   0  0  0  0  0  0  0  0  0  0  0  0
   -0.8055    6.5628  -14.0466 C   0  0  0  0  0  0  0  0  0  0  0  0
    0.0092    7.6566  -14.6611 C   0  0  0  0  0  0  0  0  0  0  0  0
    1.1598    8.1651  -14.2535 C   0  0  0  0  0  0  0  0  0  0  0  0
    1.8589    9.2009  -14.9330 N   0  0  0  0  0  0  0  0  0  0  0  0
    3.2028    8.7145  -14.8340 C   0  0  0  0  0  0  0  0  0  0  0  0
    3.7212    9.2035  -12.5327 O   0  0  0  0  0  0  0  0  0  0  0  0
    1.5110    9.2254  -15.9246 H   0  0  0  0  0  0  0  0  0  0  0  0
    4.1883    9.8481  -13.1233 H   0  0  0  0  0  0  0  0  0  0  0  0
    8.0403    4.2926  -13.6167 Br  0  0  0  0  0  0  0  0  0  0  0  0
    6.5277    5.4606  -13.5312 C   0  0  0  0  0  0  0  0  0  0  0  0
    5.2747    4.9813  -13.2138 C   0  0  0  0  0  0  0  0  0  0  0  0
    4.1883    5.8455  -13.1605 C   0  0  0  0  0  0  0  0  0  0  0  0
    4.3066    7.1719  -13.4115 C   0  0  0  0  0  0  0  0  0  0  0  0
    5.5866    7.6678  -13.7377 C   0  0  0  0  0  0  0  0  0  0  0  0
    6.6515    6.8056  -13.7867 C   0  0  0  0  0  0  0  0  0  0  0  0
    1.6482   10.4158  -14.2615 C   0  0  0  0  0  0  0  0  0  0  0  0
    0.3477   10.8432  -13.9367 C   0  0  0  0  0  0  0  0  0  0  0  0
    0.1089   12.0238  -13.2865 C   0  0  0  0  0  0  0  0  0  0  0  0
    1.1480   12.8514  -12.9177 C   0  0  0  0  0  0  0  0  0  0  0  0
    2.4248   12.4563  -13.2228 C   0  0  0  0  0  0  0  0  0  0  0  0
    2.6646   11.2664  -13.8791 C   0  0  0  0  0  0  0  0  0  0  0  0
    0.8925   14.0635  -12.2485 O   0  0  0  0  0  0  0  0  0  0  0  0
    1.8411   14.5861  -11.3566 C   0  0  0  0  0  0  0  0  0  0  0  0
 14 15  1  0  0  0
 15 16  2  0  0  0
 15 20  1  0  0  0
 16 17  1  0  0  0
 17 18  2  0  0  0
 18 19  1  0  0  0
 18  1  1  0  0  0
 19 20  2  0  0  0
  1  2  1  0  0  0
  1 10  1  0  0  0
  1 11  1  0  0  0
  2  3  1  0  0  0
  2  8  1  0  0  0
  3  4  1  0  0  0
  4  5  1  0  0  0
  5  6  1  0  0  0
  6  7  1  0  0  0
  7  8  2  0  0  0
  8  9  1  0  0  0
  9 10  1  0  0  0
  9 21  1  0  0  0
 21 22  2  0  0  0
 21 26  1  0  0  0
 22 23  1  0  0  0
 23 24  2  0  0  0
 24 25  1  0  0  0
 24 27  1  0  0  0
 25 26  2  0  0  0
 27 28  1  0  0  0
  9 12  1  0  0  0
 11 13  1  0  0  0
M  CHG 1   9   1
M  END
> <minimizedAffinity>
-8.21305

$$$$
835


 27 30  0  0  0  0  0  0  0  0999 V2000
    0.7510    8.3363  -14.0699 C   0  0  0  0  0  0  0  0  0  0  0  0
    0.4658    9.7348  -13.8306 N   0  0  0  0  0  0  0  0  0  0  0  0
    1.1400   11.0069  -13.9825 C   0  0  0  0  0  0  0  0  0  0  0  0
    0.1853   12.1183  -14.3679 C   0  0  0  0  0  0  0  0  0  0  0  0
   -0.8701   12.2136  -13.3180 C   0  0  0  0  0  0  0  0  0  0  0  0
   -1.4858   10.8981  -13.0426 C   0  0  0  0  0  0  0  0  0  0  0  0
   -0.8521    9.7471  -13.2860 C   0  0  0  0  0  0  0  0  0  0  0  0
   -1.3162    8.4375  -13.0458 N   0  0  0  0  0  0  0  0  0  0  0  0
   -0.0601    7.6609  -13.0018 C   0  0  0  0  0  0  0  0  0  0  0  0
    0.2876    7.8967  -15.3055 O   0  0  0  0  0  0  0  0  0  0  0  0
   -1.6754    8.3367  -12.0400 H   0  0  0  0  0  0  0  0  0  0  0  0
    0.2065    6.9144  -15.2442 H   0  0  0  0  0  0  0  0  0  0  0  0
    6.7493    6.8397  -13.5599 Br  0  0  0  0  0  0  0  0  0  0  0  0
    4.8980    7.3185  -13.7366 C   0  0  0  0  0  0  0  0  0  0  0  0
    3.9568    6.6550  -12.9821 C   0  0  0  0  0  0  0  0  0  0  0  0
    2.6160    7.0149  -13.1138 C   0  0  0  0  0  0  0  0  0  0  0  0
    2.1941    8.0093  -13.9700 C   0  0  0  0  0  0  0  0  0  0  0  0
    3.1583    8.6608  -14.7156 C   0  0  0  0  0  0  0  0  0  0  0  0
    4.4913    8.3161  -14.5961 C   0  0  0  0  0  0  0  0  0  0  0  0
   -2.2079    7.8997  -13.9676 C   0  0  0  0  0  0  0  0  0  0  0  0
   -3.4020    8.4873  -14.3036 C   0  0  0  0  0  0  0  0  0  0  0  0
   -4.2594    7.8809  -15.2244 C   0  0  0  0  0  0  0  0  0  0  0  0
   -3.9290    6.6876  -15.8134 C   0  0  0  0  0  0  0  0  0  0  0  0
   -2.7313    6.0912  -15.4839 C   0  0  0  0  0  0  0  0  0  0  0  0
   -1.8932    6.6924  -14.5789 C   0  0  0  0  0  0  0  0  0  0  0  0
   -3.8130    9.6883  -13.7613 O   0  0  0  0  0  0  0  0  0  0  0  0
   -5.1359   10.1029  -13.8451 C   0  0  0  0  0  0  0  0  0  0  0  0
 13 14  1  0  0  0
 14 15  2  0  0  0
 14 19  1  0  0  0
 15 16  1  0  0  0
 16 17  2  0  0  0
 17 18  1  0  0  0
 17  1  1  0  0  0
 18 19  2  0  0  0
  1  2  1  0  0  0
  1  9  1  0  0  0
  1 10  1  0  0  0
  2  3  1  0  0  0
  2  7  1  0  0  0
  3  4  1  0  0  0
  4  5  1  0  0  0
  5  6  1  0  0  0
  6  7  2  0  0  0
  7  8  1  0  0  0
  8  9  1  0  0  0
  8 20  1  0  0  0
 20 21  2  0  0  0
 20 25  1  0  0  0
 21 22  1  0  0  0
 21 26  1  0  0  0
 22 23  2  0  0  0
 23 24  1  0  0  0
 24 25  2  0  0  0
 26 27  1  0  0  0
  8 11  1  0  0  0
 10 12  1  0  0  0
M  CHG 1   8   1
M  END
> <minimizedAffinity>
-8.34024

$$$$
836


 27 30  0  0  0  0  0  0  0  0999 V2000
   -0.3367    7.7975  -14.3241 C   0  0  0  0  0  0  0  0  0  0  0  0
    0.3995    7.6544  -13.0926 N   0  0  0  0  0  0  0  0  0  0  0  0
    0.0610    7.4146  -11.6963 C   0  0  0  0  0  0  0  0  0  0  0  0
    1.0881    6.6845  -10.9220 C   0  0  0  0  0  0  0  0  0  0  0  0
    2.2760    6.1918  -11.7101 C   0  0  0  0  0  0  0  0  0  0  0  0
    2.6743    7.0998  -12.7817 C   0  0  0  0  0  0  0  0  0  0  0  0
    1.7683    7.7986  -13.4405 C   0  0  0  0  0  0  0  0  0  0  0  0
    1.8532    8.7410  -14.5048 N   0  0  0  0  0  0  0  0  0  0  0  0
    0.5841    8.6573  -15.1588 C   0  0  0  0  0  0  0  0  0  0  0  0
   -0.4628    6.5082  -14.8810 O   0  0  0  0  0  0  0  0  0  0  0  0
    2.6224    8.4040  -15.1449 H   0  0  0  0  0  0  0  0  0  0  0  0
   -0.5605    5.8925  -14.1139 H   0  0  0  0  0  0  0  0  0  0  0  0
   -6.0807   10.0837  -13.7716 Br  0  0  0  0  0  0  0  0  0  0  0  0
   -4.3115    9.3879  -13.9350 C   0  0  0  0  0  0  0  0  0  0  0  0
   -4.0658    8.1552  -14.5095 C   0  0  0  0  0  0  0  0  0  0  0  0
   -2.7796    7.6688  -14.6215 C   0  0  0  0  0  0  0  0  0  0  0  0
   -1.6753    8.3648  -14.1773 C   0  0  0  0  0  0  0  0  0  0  0  0
   -1.9327    9.6027  -13.6006 C   0  0  0  0  0  0  0  0  0  0  0  0
   -3.2190   10.0973  -13.4850 C   0  0  0  0  0  0  0  0  0  0  0  0
    2.1797    9.9859  -13.9839 C   0  0  0  0  0  0  0  0  0  0  0  0
    3.4925   10.3382  -13.7748 C   0  0  0  0  0  0  0  0  0  0  0  0
    3.8203   11.5978  -13.2471 C   0  0  0  0  0  0  0  0  0  0  0  0
    2.8578   12.5129  -12.9245 C   0  0  0  0  0  0  0  0  0  0  0  0
    1.5155   12.1494  -13.1400 C   0  0  0  0  0  0  0  0  0  0  0  0
    1.2262   10.9046  -13.6597 C   0  0  0  0  0  0  0  0  0  0  0  0
    3.1111   13.7783  -12.3985 O   0  0  0  0  0  0  0  0  0  0  0  0
    2.4329   14.3872  -11.3484 C   0  0  0  0  0  0  0  0  0  0  0  0
 13 14  1  0  0  0
 14 15  2  0  0  0
 14 19  1  0  0  0
 15 16  1  0  0  0
 16 17  2  0  0  0
 17 18  1  0  0  0
 17  1  1  0  0  0
 18 19  2  0  0  0
  1  2  1  0  0  0
  1  9  1  0  0  0
  1 10  1  0  0  0
  2  3  1  0  0  0
  2  7  1  0  0  0
  3  4  1  0  0  0
  4  5  1  0  0  0
  5  6  1  0  0  0
  6  7  2  0  0  0
  7  8  1  0  0  0
  8  9  1  0  0  0
  8 20  1  0  0  0
 20 21  2  0  0  0
 20 25  1  0  0  0
 21 22  1  0  0  0
 22 23  2  0  0  0
 23 24  1  0  0  0
 23 26  1  0  0  0
 24 25  2  0  0  0
 26 27  1  0  0  0
  8 11  1  0  0  0
 10 12  1  0  0  0
M  CHG 1   8   1
M  END
> <minimizedAffinity>
-7.15695

$$$$
847


 31 34  0  0  0  0  0  0  0  0999 V2000
   -4.0767    9.1260  -14.3838 C   0  0  0  0  0  0  0  0  0  0  0  0
   -3.2179    8.1035  -14.2392 N   0  0  0  0  0  0  0  0  0  0  0  0
   -2.0790    8.5883  -13.7107 C   0  0  0  0  0  0  0  0  0  0  0  0
   -2.2356    9.9408  -13.5234 N   0  0  0  0  0  0  0  0  0  0  0  0
   -3.4561   10.2266  -13.9424 N   0  0  0  0  0  0  0  0  0  0  0  0
   -0.8121    7.9554  -13.3315 C   0  0  0  0  0  0  0  0  0  0  0  0
   -0.3996    6.7921  -14.1931 C   0  0  0  0  0  0  0  0  0  0  0  0
   -1.3673    5.6542  -14.1699 C   0  0  0  0  0  0  0  0  0  0  0  0
   -2.4343    5.9575  -15.1962 C   0  0  0  0  0  0  0  0  0  0  0  0
   -3.5625    6.7707  -14.6113 C   0  0  0  0  0  0  0  0  0  0  0  0
   -5.4744    9.1356  -14.9237 C   0  0  0  0  0  0  0  0  0  0  0  0
   -6.3585    9.9977  -14.1658 N   0  0  0  0  0  0  0  0  0  0  0  0
   -6.2284   10.1324  -13.1391 H   0  0  0  0  0  0  0  0  0  0  0  0
  -10.9905   13.0066  -16.7459 Br  0  0  0  0  0  0  0  0  0  0  0  0
   -9.5482   12.0656  -15.9418 C   0  0  0  0  0  0  0  0  0  0  0  0
   -9.0489   12.4711  -14.7081 C   0  0  0  0  0  0  0  0  0  0  0  0
   -8.0090   11.7939  -14.1295 C   0  0  0  0  0  0  0  0  0  0  0  0
   -7.4498   10.7071  -14.7655 C   0  0  0  0  0  0  0  0  0  0  0  0
   -7.9568   10.3188  -15.9875 C   0  0  0  0  0  0  0  0  0  0  0  0
   -9.0003   10.9769  -16.5964 C   0  0  0  0  0  0  0  0  0  0  0  0
   -1.3369   10.8653  -12.9559 C   0  0  0  0  0  0  0  0  0  0  0  0
   -0.1630   11.2313  -13.7036 C   0  0  0  0  0  0  0  0  0  0  0  0
   -0.2734   12.4335  -14.2705 O   0  0  0  0  0  0  0  0  0  0  0  0
    1.0958   10.5971  -13.9756 C   0  0  0  0  0  0  0  0  0  0  0  0
    2.0480   10.4245  -12.9473 C   0  0  0  0  0  0  0  0  0  0  0  0
    3.2659    9.8319  -13.1522 C   0  0  0  0  0  0  0  0  0  0  0  0
    3.6231    9.3695  -14.3936 C   0  0  0  0  0  0  0  0  0  0  0  0
    2.7294    9.5167  -15.4186 C   0  0  0  0  0  0  0  0  0  0  0  0
    1.4817   10.1278  -15.1937 C   0  0  0  0  0  0  0  0  0  0  0  0
    4.8623    8.7662  -14.6006 O   0  0  0  0  0  0  0  0  0  0  0  0
    5.2063    7.5300  -14.0249 C   0  0  0  0  0  0  0  0  0  0  0  0
 14 15  1  0  0  0
 15 16  2  0  0  0
 15 20  1  0  0  0
 16 17  1  0  0  0
 17 18  2  0  0  0
 18 19  1  0  0  0
 18 12  1  0  0  0
 19 20  2  0  0  0
 12 11  1  0  0  0
 11  1  1  0  0  0
  1  2  1  0  0  0
  1  5  2  0  0  0
  2  3  1  0  0  0
  2 10  1  0  0  0
  3  4  2  0  0  0
  3  6  1  0  0  0
  4  5  1  0  0  0
  4 21  1  0  0  0
 21 22  1  0  0  0
 22 23  2  0  0  0
 22 24  1  0  0  0
 24 25  2  0  0  0
 24 29  1  0  0  0
 25 26  1  0  0  0
 26 27  2  0  0  0
 27 28  1  0  0  0
 27 30  1  0  0  0
 28 29  2  0  0  0
 30 31  1  0  0  0
  6  7  1  0  0  0
  7  8  1  0  0  0
  8  9  1  0  0  0
  9 10  1  0  0  0
 12 13  1  0  0  0
M  END
> <minimizedAffinity>
-9.82622

$$$$
850


 29 32  0  0  0  0  0  0  0  0999 V2000
    2.4964    9.6886  -12.9780 N   0  0  0  0  0  0  0  0  0  0  0  0
    3.2029    9.2732  -14.1531 C   0  0  0  0  0  0  0  0  0  0  0  0
    2.0329    8.7672  -14.9960 C   0  0  0  0  0  0  0  0  0  0  0  0
    1.1813    8.0924  -14.0040 N   0  0  0  0  0  0  0  0  0  0  0  0
    0.2018    7.1462  -14.4064 C   0  0  0  0  0  0  0  0  0  0  0  0
   -0.5488    6.4956  -13.2833 C   0  0  0  0  0  0  0  0  0  0  0  0
    0.4287    5.9840  -12.2610 C   0  0  0  0  0  0  0  0  0  0  0  0
    0.4289    7.0400  -11.1460 C   0  0  0  0  0  0  0  0  0  0  0  0
    1.3198    8.1467  -11.5484 C   0  0  0  0  0  0  0  0  0  0  0  0
    1.6158    8.6024  -12.7444 C   0  0  0  0  0  0  0  0  0  0  0  0
    4.0091   10.1835  -14.7591 O   0  0  0  0  0  0  0  0  0  0  0  0
    3.2245    9.8023  -12.2054 H   0  0  0  0  0  0  0  0  0  0  0  0
    4.3013    9.9155  -15.6496 H   0  0  0  0  0  0  0  0  0  0  0  0
   -0.2903   15.1436  -13.1675 Br  0  0  0  0  0  0  0  0  0  0  0  0
    0.5655   13.4301  -13.0918 C   0  0  0  0  0  0  0  0  0  0  0  0
    1.8236   13.2801  -12.5529 C   0  0  0  0  0  0  0  0  0  0  0  0
    2.4365   12.0362  -12.5183 C   0  0  0  0  0  0  0  0  0  0  0  0
    1.8217   10.8903  -13.0191 C   0  0  0  0  0  0  0  0  0  0  0  0
    0.5782   11.0929  -13.5400 C   0  0  0  0  0  0  0  0  0  0  0  0
   -0.0609   12.3291  -13.5882 C   0  0  0  0  0  0  0  0  0  0  0  0
    4.0455    8.0693  -13.8995 C   0  0  0  0  0  0  0  0  0  0  0  0
    3.5801    6.8627  -13.4696 C   0  0  0  0  0  0  0  0  0  0  0  0
    4.4322    5.7589  -13.2556 C   0  0  0  0  0  0  0  0  0  0  0  0
    5.7846    5.8604  -13.4760 C   0  0  0  0  0  0  0  0  0  0  0  0
    6.2654    7.0724  -13.9089 C   0  0  0  0  0  0  0  0  0  0  0  0
    5.4309    8.1471  -14.1156 C   0  0  0  0  0  0  0  0  0  0  0  0
    6.6412    4.7662  -13.2702 O   0  0  0  0  0  0  0  0  0  0  0  0
    8.0413    4.9094  -13.3057 C   0  0  0  0  0  0  0  0  0  0  0  0
    8.6420    5.0238  -11.9401 C   0  0  0  0  0  0  0  0  0  0  0  0
 14 15  1  0  0  0
 15 16  2  0  0  0
 15 20  1  0  0  0
 16 17  1  0  0  0
 17 18  2  0  0  0
 18 19  1  0  0  0
 18  1  1  0  0  0
 19 20  2  0  0  0
  1  2  1  0  0  0
  1 10  1  0  0  0
  2  3  1  0  0  0
  2 11  1  0  0  0
  2 21  1  0  0  0
  3  4  1  0  0  0
  4  5  1  0  0  0
  4 10  1  0  0  0
  5  6  1  0  0  0
  6  7  1  0  0  0
  7  8  1  0  0  0
  8  9  1  0  0  0
  9 10  2  0  0  0
 21 22  2  0  0  0
 21 26  1  0  0  0
 22 23  1  0  0  0
 23 24  2  0  0  0
 24 25  1  0  0  0
 24 27  1  0  0  0
 25 26  2  0  0  0
 27 28  1  0  0  0
 28 29  1  0  0  0
  1 12  1  0  0  0
 11 13  1  0  0  0
M  CHG 1   1   1
M  END
> <minimizedAffinity>
-9.14004

$$$$
860


 29 32  0  0  0  0  0  0  0  0999 V2000
   -5.6062   19.8868  -11.9853 Br  0  0  0  0  0  0  0  0  0  0  0  0
   -5.6458   21.0256  -10.4458 C   0  0  0  0  0  0  0  0  0  0  0  0
   -6.7429   21.8129  -10.1563 C   0  0  0  0  0  0  0  0  0  0  0  0
   -6.7667   22.6300   -9.0483 C   0  0  0  0  0  0  0  0  0  0  0  0
   -5.6443   22.6242   -8.2466 C   0  0  0  0  0  0  0  0  0  0  0  0
   -4.5447   21.8395   -8.5308 C   0  0  0  0  0  0  0  0  0  0  0  0
   -4.5254   21.0228   -9.6411 C   0  0  0  0  0  0  0  0  0  0  0  0
   -3.3325   20.1792   -9.9384 C   0  0  0  0  0  0  0  0  0  0  0  0
   -5.6923   23.4591   -7.1318 O   0  0  0  0  0  0  0  0  0  0  0  0
   -6.6183   24.4790   -6.9617 C   0  0  0  0  0  0  0  0  0  0  0  0
   -7.9630   24.2350   -7.5587 C   0  0  0  0  0  0  0  0  0  0  0  0
   -7.9697   23.4346   -8.8129 C   0  0  0  0  0  0  0  0  0  0  0  0
   -9.0675   22.5401   -8.8347 O   0  0  0  0  0  0  0  0  0  0  0  0
   -8.7819   21.6044   -8.8792 H   0  0  0  0  0  0  0  0  0  0  0  0
   -8.4832   25.5622   -7.9043 N   0  0  0  0  0  0  0  0  0  0  0  0
   -7.7638   26.6266   -7.2937 C   0  0  0  0  0  0  0  0  0  0  0  0
   -8.1780   27.9059   -8.0372 C   0  0  0  0  0  0  0  0  0  0  0  0
   -9.5280   28.0808   -7.7854 O   0  0  0  0  0  0  0  0  0  0  0  0
  -10.3141   27.0315   -8.2469 C   0  0  0  0  0  0  0  0  0  0  0  0
   -9.8775   25.7019   -7.6143 C   0  0  0  0  0  0  0  0  0  0  0  0
   -8.3673   25.6410   -8.9400 H   0  0  0  0  0  0  0  0  0  0  0  0
   -8.9427   23.6374   -6.5696 C   0  0  0  0  0  0  0  0  0  0  0  0
   -8.4495   23.5814   -5.2278 N   0  0  0  0  0  0  0  0  0  0  0  0
   -8.8082   24.7521   -4.4482 C   0  0  0  0  0  0  0  0  0  0  0  0
   -9.3005   24.3765   -3.0587 C   0  0  0  0  0  0  0  0  0  0  0  0
  -10.4640   23.6261   -3.0969 O   0  0  0  0  0  0  0  0  0  0  0  0
  -10.4863   22.7819   -4.2029 C   0  0  0  0  0  0  0  0  0  0  0  0
   -9.0457   22.4365   -4.5196 C   0  0  0  0  0  0  0  0  0  0  0  0
   -7.4298   23.4593   -5.1348 H   0  0  0  0  0  0  0  0  0  0  0  0
  1  2  1  0  0  0
  2  3  2  0  0  0
  2  7  1  0  0  0
  3  4  1  0  0  0
  4  5  2  0  0  0
  4 12  1  0  0  0
  5  6  1  0  0  0
  5  9  1  0  0  0
  6  7  2  0  0  0
  7  8  1  0  0  0
  9 10  1  0  0  0
 10 11  1  0  0  0
 11 12  1  0  0  0
 11 15  1  0  0  0
 11 22  1  0  0  0
 12 13  1  0  0  0
 15 16  1  0  0  0
 15 20  1  0  0  0
 16 17  1  0  0  0
 17 18  1  0  0  0
 18 19  1  0  0  0
 19 20  1  0  0  0
 22 23  1  0  0  0
 23 24  1  0  0  0
 23 28  1  0  0  0
 24 25  1  0  0  0
 25 26  1  0  0  0
 26 27  1  0  0  0
 27 28  1  0  0  0
 13 14  1  0  0  0
 15 21  1  0  0  0
 23 29  1  0  0  0
M  CHG 1  15   1
M  CHG 1  23   1
M  END
> <minimizedAffinity>
-6.20376

$$$$
861


 32 35  0  0  0  0  0  0  0  0999 V2000
   -0.9827   12.2892  -15.0412 Br  0  0  0  0  0  0  0  0  0  0  0  0
    0.4289   12.6511  -13.7963 C   0  0  0  0  0  0  0  0  0  0  0  0
    1.4056   11.7092  -13.5769 C   0  0  0  0  0  0  0  0  0  0  0  0
    2.4573   11.9344  -12.6732 C   0  0  0  0  0  0  0  0  0  0  0  0
    2.4567   13.1477  -12.0205 C   0  0  0  0  0  0  0  0  0  0  0  0
    1.4895   14.1089  -12.2214 C   0  0  0  0  0  0  0  0  0  0  0  0
    0.4694   13.8652  -13.1123 C   0  0  0  0  0  0  0  0  0  0  0  0
   -0.6180   14.8366  -13.3979 C   0  0  0  0  0  0  0  0  0  0  0  0
    1.5149   15.7811  -11.3030 Br  0  0  0  0  0  0  0  0  0  0  0  0
    3.4637   10.9129  -12.4704 C   0  0  0  0  0  0  0  0  0  0  0  0
    4.4469   11.1413  -11.7579 O   0  0  0  0  0  0  0  0  0  0  0  0
    3.3051    9.6000  -13.1207 C   0  0  0  0  0  0  0  0  0  0  0  0
    2.6118    9.8379  -14.4443 C   0  0  0  0  0  0  0  0  0  0  0  0
    1.3722   10.4952  -14.2561 O   0  0  0  0  0  0  0  0  0  0  0  0
    4.5938    8.8558  -13.2977 C   0  0  0  0  0  0  0  0  0  0  0  0
    4.8101    8.2828  -14.5700 N   0  0  0  0  0  0  0  0  0  0  0  0
    6.2148    8.1203  -14.8018 C   0  0  0  0  0  0  0  0  0  0  0  0
    6.8714    7.0566  -13.9969 C   0  0  0  0  0  0  0  0  0  0  0  0
    5.9823    6.1589  -13.2270 C   0  0  0  0  0  0  0  0  0  0  0  0
    4.5854    6.0417  -13.6982 C   0  0  0  0  0  0  0  0  0  0  0  0
    4.2030    6.9989  -14.7885 C   0  0  0  0  0  0  0  0  0  0  0  0
    7.8124    7.7439  -13.0007 C   0  0  0  0  0  0  0  0  0  0  0  0
    4.4447    8.9231  -15.3196 H   0  0  0  0  0  0  0  0  0  0  0  0
    2.3662    8.8070  -12.2352 C   0  0  0  0  0  0  0  0  0  0  0  0
    2.0121    7.5180  -12.7234 N   0  0  0  0  0  0  0  0  0  0  0  0
    0.8911    7.6199  -13.6558 C   0  0  0  0  0  0  0  0  0  0  0  0
   -0.4189    7.2478  -13.0253 C   0  0  0  0  0  0  0  0  0  0  0  0
   -0.4950    7.8321  -11.6329 C   0  0  0  0  0  0  0  0  0  0  0  0
    0.5321    7.1413  -10.7905 C   0  0  0  0  0  0  0  0  0  0  0  0
    1.6033    6.5852  -11.6958 C   0  0  0  0  0  0  0  0  0  0  0  0
   -1.5208    7.9364  -13.8420 C   0  0  0  0  0  0  0  0  0  0  0  0
    2.7875    7.1040  -13.2477 H   0  0  0  0  0  0  0  0  0  0  0  0
  1  2  1  0  0  0
  2  3  2  0  0  0
  2  7  1  0  0  0
  3  4  1  0  0  0
  3 14  1  0  0  0
  4  5  2  0  0  0
  4 10  1  0  0  0
  5  6  1  0  0  0
  6  7  2  0  0  0
  6  9  1  0  0  0
  7  8  1  0  0  0
 10 11  2  0  0  0
 10 12  1  0  0  0
 12 13  1  0  0  0
 12 15  1  0  0  0
 12 24  1  0  0  0
 13 14  1  0  0  0
 15 16  1  0  0  0
 16 17  1  0  0  0
 16 21  1  0  0  0
 17 18  1  0  0  0
 18 19  1  0  0  0
 18 22  1  0  0  0
 19 20  1  0  0  0
 20 21  1  0  0  0
 24 25  1  0  0  0
 25 26  1  0  0  0
 25 30  1  0  0  0
 26 27  1  0  0  0
 27 28  1  0  0  0
 27 31  1  0  0  0
 28 29  1  0  0  0
 29 30  1  0  0  0
 16 23  1  0  0  0
 25 32  1  0  0  0
M  CHG 1  16   1
M  CHG 1  25   1
M  END
> <minimizedAffinity>
-4.77960

$$$$
862


 30 33  0  0  0  0  0  0  0  0999 V2000
    4.0614    9.4461  -14.9124 Br  0  0  0  0  0  0  0  0  0  0  0  0
    2.7727   10.5069  -14.0312 C   0  0  0  0  0  0  0  0  0  0  0  0
    1.4670   10.0816  -14.0517 C   0  0  0  0  0  0  0  0  0  0  0  0
    0.4211   10.7856  -13.4309 C   0  0  0  0  0  0  0  0  0  0  0  0
    0.7232   11.9776  -12.7609 C   0  0  0  0  0  0  0  0  0  0  0  0
    2.0363   12.3918  -12.7490 C   0  0  0  0  0  0  0  0  0  0  0  0
    3.0508   11.6832  -13.3665 C   0  0  0  0  0  0  0  0  0  0  0  0
    4.4749   12.1625  -13.3366 C   0  0  0  0  0  0  0  0  0  0  0  0
    2.4462   14.0134  -11.8351 Br  0  0  0  0  0  0  0  0  0  0  0  0
   -0.9411   10.2914  -13.4920 C   0  0  0  0  0  0  0  0  0  0  0  0
   -1.8493   11.1594  -13.4990 O   0  0  0  0  0  0  0  0  0  0  0  0
   -1.1283    8.8289  -13.5401 C   0  0  0  0  0  0  0  0  0  0  0  0
   -0.2514    8.4906  -14.8286 C   0  0  0  0  0  0  0  0  0  0  0  0
    1.0538    8.9226  -14.6828 O   0  0  0  0  0  0  0  0  0  0  0  0
   -2.4599    8.3414  -13.8398 C   0  0  0  0  0  0  0  0  0  0  0  0
   -3.5184    9.0108  -14.4330 N   0  0  0  0  0  0  0  0  0  0  0  0
   -4.5847    9.5691  -13.6978 C   0  0  0  0  0  0  0  0  0  0  0  0
   -5.8935    9.6409  -14.4736 C   0  0  0  0  0  0  0  0  0  0  0  0
   -6.4303    8.2806  -14.7866 C   0  0  0  0  0  0  0  0  0  0  0  0
   -5.2719    7.3610  -15.0226 C   0  0  0  0  0  0  0  0  0  0  0  0
   -4.0968    8.1544  -15.4923 C   0  0  0  0  0  0  0  0  0  0  0  0
   -3.1556    9.8373  -15.0699 H   0  0  0  0  0  0  0  0  0  0  0  0
   -0.4599    8.1949  -12.3805 C   0  0  0  0  0  0  0  0  0  0  0  0
    0.4619    7.1528  -12.5591 N   0  0  0  0  0  0  0  0  0  0  0  0
    1.5149    7.2920  -11.5441 C   0  0  0  0  0  0  0  0  0  0  0  0
    2.7048    6.3999  -11.8311 C   0  0  0  0  0  0  0  0  0  0  0  0
    2.1831    4.9605  -11.6949 C   0  0  0  0  0  0  0  0  0  0  0  0
    1.1139    4.8500  -12.7575 C   0  0  0  0  0  0  0  0  0  0  0  0
   -0.0304    5.7993  -12.3633 C   0  0  0  0  0  0  0  0  0  0  0  0
    0.9928    7.1079  -13.4528 H   0  0  0  0  0  0  0  0  0  0  0  0
  1  2  1  0  0  0
  2  3  2  0  0  0
  2  7  1  0  0  0
  3  4  1  0  0  0
  3 14  1  0  0  0
  4  5  2  0  0  0
  4 10  1  0  0  0
  5  6  1  0  0  0
  6  7  2  0  0  0
  6  9  1  0  0  0
  7  8  1  0  0  0
 10 11  2  0  0  0
 10 12  1  0  0  0
 12 13  1  0  0  0
 12 15  1  0  0  0
 12 23  1  0  0  0
 13 14  1  0  0  0
 15 16  1  0  0  0
 16 17  1  0  0  0
 16 21  1  0  0  0
 17 18  1  0  0  0
 18 19  1  0  0  0
 19 20  1  0  0  0
 20 21  1  0  0  0
 23 24  1  0  0  0
 24 25  1  0  0  0
 24 29  1  0  0  0
 25 26  1  0  0  0
 26 27  1  0  0  0
 27 28  1  0  0  0
 28 29  1  0  0  0
 16 22  1  0  0  0
 24 30  1  0  0  0
M  CHG 1  16   1
M  CHG 1  24   1
M  END
> <minimizedAffinity>
-6.25154

$$$$
865


 30 33  0  0  0  0  0  0  0  0999 V2000
   -2.3959    9.0186  -13.8516 C   0  0  0  0  0  0  0  0  0  0  0  0
   -1.4509    8.0587  -13.7460 N   0  0  0  0  0  0  0  0  0  0  0  0
   -0.1450    8.3367  -13.5087 C   0  0  0  0  0  0  0  0  0  0  0  0
    0.1754    9.6260  -13.3830 N   0  0  0  0  0  0  0  0  0  0  0  0
   -0.7104   10.6330  -13.4761 C   0  0  0  0  0  0  0  0  0  0  0  0
   -1.9897   10.2924  -13.7117 N   0  0  0  0  0  0  0  0  0  0  0  0
   -0.2949   11.9844  -13.3310 N   0  0  0  0  0  0  0  0  0  0  0  0
   -1.2614   12.9720  -12.8906 C   0  0  0  0  0  0  0  0  0  0  0  0
   -0.6071   14.3347  -12.8517 C   0  0  0  0  0  0  0  0  0  0  0  0
    0.5925   14.3668  -12.1994 O   0  0  0  0  0  0  0  0  0  0  0  0
    1.4466   13.3216  -12.4267 C   0  0  0  0  0  0  0  0  0  0  0  0
    1.0361   12.4433  -13.5965 C   0  0  0  0  0  0  0  0  0  0  0  0
    0.8089    7.2858  -13.4062 N   0  0  0  0  0  0  0  0  0  0  0  0
    0.4656    5.8873  -13.2942 C   0  0  0  0  0  0  0  0  0  0  0  0
    1.2040    5.4274  -12.0384 C   0  0  0  0  0  0  0  0  0  0  0  0
    2.5289    5.4580  -12.2723 O   0  0  0  0  0  0  0  0  0  0  0  0
    3.0876    6.5243  -12.8586 C   0  0  0  0  0  0  0  0  0  0  0  0
    2.2215    7.5863  -13.4100 C   0  0  0  0  0  0  0  0  0  0  0  0
   -3.7400    8.6567  -14.0999 N   0  0  0  0  0  0  0  0  0  0  0  0
   -3.9814    7.6590  -14.2183 H   0  0  0  0  0  0  0  0  0  0  0  0
   -5.9884    9.3620  -14.2046 C   0  0  0  0  0  0  0  0  0  0  0  0
   -4.7307    9.6248  -14.1870 N   0  0  0  0  0  0  0  0  0  0  0  0
   -9.7780   13.5244  -14.5225 F   0  0  0  0  0  0  0  0  0  0  0  0
   -8.8676   12.5137  -14.4602 C   0  0  0  0  0  0  0  0  0  0  0  0
   -8.7749   11.5571  -15.4499 C   0  0  0  0  0  0  0  0  0  0  0  0
   -7.8456   10.5412  -15.3664 C   0  0  0  0  0  0  0  0  0  0  0  0
   -6.9717   10.4331  -14.2974 C   0  0  0  0  0  0  0  0  0  0  0  0
   -7.0716   11.3937  -13.3132 C   0  0  0  0  0  0  0  0  0  0  0  0
   -8.0056   12.4175  -13.3927 C   0  0  0  0  0  0  0  0  0  0  0  0
   -9.9680   11.6819  -16.9362 Br  0  0  0  0  0  0  0  0  0  0  0  0
 23 24  1  0  0  0
 24 25  2  0  0  0
 24 29  1  0  0  0
 25 26  1  0  0  0
 25 30  1  0  0  0
 26 27  2  0  0  0
 27 28  1  0  0  0
 27 21  1  0  0  0
 28 29  2  0  0  0
 21 22  2  0  0  0
 22 19  1  0  0  0
 19  1  1  0  0  0
  1  2  2  0  0  0
  1  6  1  0  0  0
  2  3  1  0  0  0
  3  4  2  0  0  0
  3 13  1  0  0  0
  4  5  1  0  0  0
  5  6  2  0  0  0
  5  7  1  0  0  0
  7  8  1  0  0  0
  7 12  1  0  0  0
  8  9  1  0  0  0
  9 10  1  0  0  0
 10 11  1  0  0  0
 11 12  1  0  0  0
 13 14  1  0  0  0
 13 18  1  0  0  0
 14 15  1  0  0  0
 15 16  1  0  0  0
 16 17  1  0  0  0
 17 18  1  0  0  0
 19 20  1  0  0  0
M  END
> <minimizedAffinity>
-9.10635

$$$$
872


 32 35  0  0  0  0  0  0  0  0999 V2000
   -0.3102   16.6547  -12.5127 N   0  0  0  0  0  0  0  0  0  0  0  0
   -0.4102   16.2167  -13.7548 N   0  0  0  0  0  0  0  0  0  0  0  0
   -1.5014   16.7750  -14.2490 N   0  0  0  0  0  0  0  0  0  0  0  0
   -2.1003   17.5647  -13.3342 C   0  0  0  0  0  0  0  0  0  0  0  0
   -1.3336   17.4800  -12.2346 C   0  0  0  0  0  0  0  0  0  0  0  0
   -1.9571   18.2888  -11.3134 C   0  0  0  0  0  0  0  0  0  0  0  0
   -1.5475   18.4822  -10.1375 O   0  0  0  0  0  0  0  0  0  0  0  0
   -3.0711   18.8570  -11.8179 N   0  0  0  0  0  0  0  0  0  0  0  0
   -3.1669   18.4091  -13.0804 C   0  0  0  0  0  0  0  0  0  0  0  0
   -4.0801   18.7140  -13.8915 O   0  0  0  0  0  0  0  0  0  0  0  0
    0.2427   15.5548  -14.2651 H   0  0  0  0  0  0  0  0  0  0  0  0
   -1.8293   16.6004  -15.2352 H   0  0  0  0  0  0  0  0  0  0  0  0
   -3.9478   19.7535  -11.1132 C   0  0  0  0  0  0  0  0  0  0  0  0
   -5.2446   19.9556  -11.5437 C   0  0  0  0  0  0  0  0  0  0  0  0
   -6.1198   20.8056  -10.8998 C   0  0  0  0  0  0  0  0  0  0  0  0
   -5.6486   21.4666   -9.7822 C   0  0  0  0  0  0  0  0  0  0  0  0
   -4.3588   21.3031   -9.3045 C   0  0  0  0  0  0  0  0  0  0  0  0
   -3.5343   20.4385   -9.9957 C   0  0  0  0  0  0  0  0  0  0  0  0
   -6.8850   22.6447   -8.9019 Br  0  0  0  0  0  0  0  0  0  0  0  0
    0.7648   16.2774  -11.6212 C   0  0  0  0  0  0  0  0  0  0  0  0
    1.3086   13.8539  -11.9810 N   0  0  0  0  0  0  0  0  0  0  0  0
    1.5880   15.1858  -12.2748 C   0  0  0  0  0  0  0  0  0  0  0  0
    2.4801   15.5517  -13.0467 O   0  0  0  0  0  0  0  0  0  0  0  0
    0.4993   13.6874  -11.2899 H   0  0  0  0  0  0  0  0  0  0  0  0
    3.8163   13.3254  -11.1218 F   0  0  0  0  0  0  0  0  0  0  0  0
    3.2940   12.4855  -12.0579 C   0  0  0  0  0  0  0  0  0  0  0  0
    1.9913   12.7487  -12.5123 C   0  0  0  0  0  0  0  0  0  0  0  0
    1.4651   11.9121  -13.4466 C   0  0  0  0  0  0  0  0  0  0  0  0
    2.1671   10.8055  -13.9703 C   0  0  0  0  0  0  0  0  0  0  0  0
    3.4403   10.5817  -13.4992 C   0  0  0  0  0  0  0  0  0  0  0  0
    3.9952   11.4157  -12.5512 C   0  0  0  0  0  0  0  0  0  0  0  0
    4.1660    9.5370  -13.9608 F   0  0  0  0  0  0  0  0  0  0  0  0
 25 26  1  0  0  0
 26 27  2  0  0  0
 26 31  1  0  0  0
 27 28  1  0  0  0
 27 21  1  0  0  0
 28 29  2  0  0  0
 29 30  1  0  0  0
 30 31  2  0  0  0
 30 32  1  0  0  0
 21 22  1  0  0  0
 22 23  2  0  0  0
 22 20  1  0  0  0
 20  1  1  0  0  0
  1  2  1  0  0  0
  1  5  1  0  0  0
  2  3  1  0  0  0
  3  4  1  0  0  0
  4  5  2  0  0  0
  4  9  1  0  0  0
  5  6  1  0  0  0
  6  7  2  0  0  0
  6  8  1  0  0  0
  8  9  1  0  0  0
  8 13  1  0  0  0
  9 10  2  0  0  0
 13 14  2  0  0  0
 13 18  1  0  0  0
 14 15  1  0  0  0
 15 16  2  0  0  0
 16 17  1  0  0  0
 16 19  1  0  0  0
 17 18  2  0  0  0
 21 24  1  0  0  0
  2 11  1  0  0  0
  3 12  1  0  0  0
M  END
> <minimizedAffinity>
-11.46745

$$$$
873


 32 35  0  0  0  0  0  0  0  0999 V2000
    2.8822    9.3254  -12.5712 C   0  0  0  0  0  0  0  0  0  0  0  0
    3.6889    8.7525  -13.6373 N   0  0  0  0  0  0  0  0  0  0  0  0
    3.0334    9.2817  -14.8092 C   0  0  0  0  0  0  0  0  0  0  0  0
    3.5365    9.5758  -15.9256 O   0  0  0  0  0  0  0  0  0  0  0  0
    1.5834    9.4485  -14.5085 C   0  0  0  0  0  0  0  0  0  0  0  0
    0.6394    9.8576  -15.1823 O   0  0  0  0  0  0  0  0  0  0  0  0
    1.5067    8.9728  -13.0960 C   0  0  0  0  0  0  0  0  0  0  0  0
    0.4805    8.4077  -12.5085 C   0  0  0  0  0  0  0  0  0  0  0  0
    0.5855    8.0302  -11.1544 O   0  0  0  0  0  0  0  0  0  0  0  0
    5.2831   10.8183  -11.9954 F   0  0  0  0  0  0  0  0  0  0  0  0
    4.1365   11.4581  -12.1663 C   0  0  0  0  0  0  0  0  0  0  0  0
    2.9644   10.7907  -12.4573 C   0  0  0  0  0  0  0  0  0  0  0  0
    1.8588   11.5909  -12.6056 C   0  0  0  0  0  0  0  0  0  0  0  0
    1.8666   12.9717  -12.4838 C   0  0  0  0  0  0  0  0  0  0  0  0
    3.0461   13.5962  -12.1954 C   0  0  0  0  0  0  0  0  0  0  0  0
    4.1676   12.8496  -12.0373 C   0  0  0  0  0  0  0  0  0  0  0  0
   -0.7669    8.1542  -13.2141 C   0  0  0  0  0  0  0  0  0  0  0  0
   -1.7338    9.1354  -13.2355 C   0  0  0  0  0  0  0  0  0  0  0  0
   -2.9540    8.9508  -13.8642 C   0  0  0  0  0  0  0  0  0  0  0  0
   -3.2263    7.7558  -14.4942 C   0  0  0  0  0  0  0  0  0  0  0  0
   -2.2855    6.7721  -14.4851 C   0  0  0  0  0  0  0  0  0  0  0  0
   -1.0507    6.9709  -13.8431 C   0  0  0  0  0  0  0  0  0  0  0  0
   -4.9163    7.4705  -15.3781 Br  0  0  0  0  0  0  0  0  0  0  0  0
    4.8075    7.9124  -13.6809 C   0  0  0  0  0  0  0  0  0  0  0  0
    4.6507    6.4387  -13.5652 C   0  0  0  0  0  0  0  0  0  0  0  0
    5.8863    5.7090  -13.6048 N   0  0  0  0  0  0  0  0  0  0  0  0
    5.6333    4.3379  -13.2129 C   0  0  0  0  0  0  0  0  0  0  0  0
    6.8900    3.4980  -13.3540 C   0  0  0  0  0  0  0  0  0  0  0  0
    7.8819    4.0330  -12.5544 O   0  0  0  0  0  0  0  0  0  0  0  0
    8.1133    5.3646  -12.8867 C   0  0  0  0  0  0  0  0  0  0  0  0
    6.8575    6.2019  -12.6068 C   0  0  0  0  0  0  0  0  0  0  0  0
    6.4057    5.7969  -14.5022 H   0  0  0  0  0  0  0  0  0  0  0  0
 10 11  1  0  0  0
 11 12  2  0  0  0
 11 16  1  0  0  0
 12 13  1  0  0  0
 12  1  1  0  0  0
 13 14  2  0  0  0
 14 15  1  0  0  0
 15 16  2  0  0  0
  1  2  1  0  0  0
  1  7  1  0  0  0
  2  3  1  0  0  0
  2 24  1  0  0  0
  3  4  2  0  0  0
  3  5  1  0  0  0
  5  6  2  0  0  0
  5  7  1  0  0  0
  7  8  2  0  0  0
  8  9  1  0  0  0
  8 17  1  0  0  0
 17 18  2  0  0  0
 17 22  1  0  0  0
 18 19  1  0  0  0
 19 20  2  0  0  0
 20 21  1  0  0  0
 20 23  1  0  0  0
 21 22  2  0  0  0
 24 25  1  0  0  0
 25 26  1  0  0  0
 26 27  1  0  0  0
 26 31  1  0  0  0
 27 28  1  0  0  0
 28 29  1  0  0  0
 29 30  1  0  0  0
 30 31  1  0  0  0
 26 32  1  0  0  0
M  CHG 1   9  -1
M  CHG 1  26   1
M  END
> <minimizedAffinity>
-7.70882

$$$$
874


 31 34  0  0  0  0  0  0  0  0999 V2000
   -0.2971   16.6153  -12.6118 N   0  0  0  0  0  0  0  0  0  0  0  0
   -0.4532   16.1998  -13.8498 N   0  0  0  0  0  0  0  0  0  0  0  0
   -1.5506   16.7233  -14.3762 N   0  0  0  0  0  0  0  0  0  0  0  0
   -2.1295   17.5090  -13.4419 C   0  0  0  0  0  0  0  0  0  0  0  0
   -1.3579   17.4337  -12.3770 C   0  0  0  0  0  0  0  0  0  0  0  0
   -1.9501   18.2386  -11.4166 C   0  0  0  0  0  0  0  0  0  0  0  0
   -1.4933   18.4133  -10.2665 O   0  0  0  0  0  0  0  0  0  0  0  0
   -3.0753   18.8036  -11.8901 N   0  0  0  0  0  0  0  0  0  0  0  0
   -3.1881   18.3497  -13.1519 C   0  0  0  0  0  0  0  0  0  0  0  0
   -4.1056   18.6359  -13.9518 O   0  0  0  0  0  0  0  0  0  0  0  0
    0.2182   15.5443  -14.3273 H   0  0  0  0  0  0  0  0  0  0  0  0
   -1.9100   16.5589  -15.3480 H   0  0  0  0  0  0  0  0  0  0  0  0
   -3.9462   19.6904  -11.1877 C   0  0  0  0  0  0  0  0  0  0  0  0
   -3.5220   20.3643  -10.0592 C   0  0  0  0  0  0  0  0  0  0  0  0
   -4.3509   21.2261   -9.3685 C   0  0  0  0  0  0  0  0  0  0  0  0
   -5.6480   21.4488   -9.7814 C   0  0  0  0  0  0  0  0  0  0  0  0
   -6.0932   20.7858  -10.9057 C   0  0  0  0  0  0  0  0  0  0  0  0
   -5.2484   19.9285  -11.5821 C   0  0  0  0  0  0  0  0  0  0  0  0
   -6.8183   22.6365   -8.8445 Br  0  0  0  0  0  0  0  0  0  0  0  0
    0.7598   16.2929  -11.6712 C   0  0  0  0  0  0  0  0  0  0  0  0
    1.3654   13.8797  -12.0227 N   0  0  0  0  0  0  0  0  0  0  0  0
    1.6303   15.2277  -12.2438 C   0  0  0  0  0  0  0  0  0  0  0  0
    2.5952   15.6156  -12.9225 O   0  0  0  0  0  0  0  0  0  0  0  0
    0.5022   13.6713  -11.4199 H   0  0  0  0  0  0  0  0  0  0  0  0
    0.1887   12.1002  -13.7547 F   0  0  0  0  0  0  0  0  0  0  0  0
    1.4780   11.8545  -13.3817 C   0  0  0  0  0  0  0  0  0  0  0  0
    2.0958   12.7535  -12.4978 C   0  0  0  0  0  0  0  0  0  0  0  0
    3.3912   12.4642  -12.1527 C   0  0  0  0  0  0  0  0  0  0  0  0
    4.0296   11.3444  -12.6602 C   0  0  0  0  0  0  0  0  0  0  0  0
    3.4253   10.4742  -13.5193 C   0  0  0  0  0  0  0  0  0  0  0  0
    2.1258   10.7508  -13.8751 C   0  0  0  0  0  0  0  0  0  0  0  0
 25 26  1  0  0  0
 26 27  2  0  0  0
 26 31  1  0  0  0
 27 28  1  0  0  0
 27 21  1  0  0  0
 28 29  2  0  0  0
 29 30  1  0  0  0
 30 31  2  0  0  0
 21 22  1  0  0  0
 22 23  2  0  0  0
 22 20  1  0  0  0
 20  1  1  0  0  0
  1  2  1  0  0  0
  1  5  1  0  0  0
  2  3  1  0  0  0
  3  4  1  0  0  0
  4  5  2  0  0  0
  4  9  1  0  0  0
  5  6  1  0  0  0
  6  7  2  0  0  0
  6  8  1  0  0  0
  8  9  1  0  0  0
  8 13  1  0  0  0
  9 10  2  0  0  0
 13 14  2  0  0  0
 13 18  1  0  0  0
 14 15  1  0  0  0
 15 16  2  0  0  0
 16 17  1  0  0  0
 16 19  1  0  0  0
 17 18  2  0  0  0
 21 24  1  0  0  0
  2 11  1  0  0  0
  3 12  1  0  0  0
M  END
> <minimizedAffinity>
-11.19773

$$$$
886


 31 34  0  0  0  0  0  0  0  0999 V2000
   -2.9779   18.8484  -11.8227 N   0  0  0  0  0  0  0  0  0  0  0  0
   -1.8912   18.1846  -11.3937 C   0  0  0  0  0  0  0  0  0  0  0  0
   -1.4640   18.3130  -10.2141 O   0  0  0  0  0  0  0  0  0  0  0  0
   -1.3431   17.3866  -12.3802 C   0  0  0  0  0  0  0  0  0  0  0  0
   -2.1229   17.5739  -13.4414 C   0  0  0  0  0  0  0  0  0  0  0  0
   -1.6254   16.8198  -14.4258 N   0  0  0  0  0  0  0  0  0  0  0  0
   -0.5610   16.1864  -13.9696 N   0  0  0  0  0  0  0  0  0  0  0  0
   -0.3540   16.5150  -12.6982 N   0  0  0  0  0  0  0  0  0  0  0  0
   -3.1248   18.4631  -13.1158 C   0  0  0  0  0  0  0  0  0  0  0  0
   -4.0647   18.9015  -13.8382 O   0  0  0  0  0  0  0  0  0  0  0  0
   -2.0455   16.7676  -15.3946 H   0  0  0  0  0  0  0  0  0  0  0  0
    0.0324   15.5330  -14.4999 H   0  0  0  0  0  0  0  0  0  0  0  0
   -6.3570   22.3901   -9.0977 F   0  0  0  0  0  0  0  0  0  0  0  0
   -5.5289   21.5292   -9.7610 C   0  0  0  0  0  0  0  0  0  0  0  0
   -4.2416   21.3609   -9.3359 C   0  0  0  0  0  0  0  0  0  0  0  0
   -3.3873   20.4820  -10.0061 C   0  0  0  0  0  0  0  0  0  0  0  0
   -3.8030   19.7638  -11.1044 C   0  0  0  0  0  0  0  0  0  0  0  0
   -5.1144   19.9578  -11.5100 C   0  0  0  0  0  0  0  0  0  0  0  0
   -5.9650   20.8211  -10.8570 C   0  0  0  0  0  0  0  0  0  0  0  0
    0.6744   16.0720  -11.8021 C   0  0  0  0  0  0  0  0  0  0  0  0
    1.5498   15.0129  -12.3154 C   0  0  0  0  0  0  0  0  0  0  0  0
    2.6438   15.3548  -12.7895 O   0  0  0  0  0  0  0  0  0  0  0  0
    1.1540   13.6732  -12.2636 N   0  0  0  0  0  0  0  0  0  0  0  0
    0.1849   13.4487  -11.8334 H   0  0  0  0  0  0  0  0  0  0  0  0
    1.8459   12.5197  -12.7012 C   0  0  0  0  0  0  0  0  0  0  0  0
    3.1093   12.2133  -12.2552 C   0  0  0  0  0  0  0  0  0  0  0  0
    3.8244   11.0840  -12.6657 C   0  0  0  0  0  0  0  0  0  0  0  0
    3.1990   10.2573  -13.5645 C   0  0  0  0  0  0  0  0  0  0  0  0
    1.9374   10.5399  -14.0255 C   0  0  0  0  0  0  0  0  0  0  0  0
    1.2578   11.6544  -13.6073 C   0  0  0  0  0  0  0  0  0  0  0  0
    4.1259    8.6802  -14.1730 Br  0  0  0  0  0  0  0  0  0  0  0  0
 13 14  1  0  0  0
 14 15  2  0  0  0
 14 19  1  0  0  0
 15 16  1  0  0  0
 16 17  2  0  0  0
 17 18  1  0  0  0
 17  1  1  0  0  0
 18 19  2  0  0  0
  1  2  1  0  0  0
  1  9  1  0  0  0
  2  3  2  0  0  0
  2  4  1  0  0  0
  4  5  2  0  0  0
  4  8  1  0  0  0
  5  6  1  0  0  0
  5  9  1  0  0  0
  6  7  1  0  0  0
  7  8  1  0  0  0
  8 20  1  0  0  0
 20 21  1  0  0  0
 21 22  2  0  0  0
 21 23  1  0  0  0
 23 25  1  0  0  0
 25 26  2  0  0  0
 25 30  1  0  0  0
 26 27  1  0  0  0
 27 28  2  0  0  0
 28 29  1  0  0  0
 28 31  1  0  0  0
 29 30  2  0  0  0
  9 10  2  0  0  0
  6 11  1  0  0  0
  7 12  1  0  0  0
 23 24  1  0  0  0
M  END
> <minimizedAffinity>
-11.21221

$$$$
892


 27 30  0  0  0  0  0  0  0  0999 V2000
    2.6173    5.4437  -12.2587 C   0  0  0  0  0  0  0  0  0  0  0  0
    1.4900    5.0566  -13.0764 N   0  0  0  0  0  0  0  0  0  0  0  0
    0.4433    6.0001  -13.3281 C   0  0  0  0  0  0  0  0  0  0  0  0
   -0.7224    6.1716  -14.6068 S   0  0  0  0  0  0  0  0  0  0  0  0
   -1.5372    7.5579  -14.0555 C   0  0  0  0  0  0  0  0  0  0  0  0
   -0.8897    7.8506  -12.9057 C   0  0  0  0  0  0  0  0  0  0  0  0
    0.1260    7.0576  -12.5257 C   0  0  0  0  0  0  0  0  0  0  0  0
    1.0156    7.1167  -11.3310 C   0  0  0  0  0  0  0  0  0  0  0  0
    0.8825    8.0158  -10.4675 O   0  0  0  0  0  0  0  0  0  0  0  0
    2.0351    6.1589  -11.1356 N   0  0  0  0  0  0  0  0  0  0  0  0
   -1.4232    9.0781  -12.1768 C   0  0  0  0  0  0  0  0  0  0  0  0
   -2.8315    9.3091  -12.6187 C   0  0  0  0  0  0  0  0  0  0  0  0
   -2.7518    9.5929  -14.0604 N   0  0  0  0  0  0  0  0  0  0  0  0
   -2.6759    8.2808  -14.6674 C   0  0  0  0  0  0  0  0  0  0  0  0
   -3.8980   10.3459  -14.5115 C   0  0  0  0  0  0  0  0  0  0  0  0
    1.3909    4.1084  -13.5019 H   0  0  0  0  0  0  0  0  0  0  0  0
    2.3950    5.9435  -10.1710 H   0  0  0  0  0  0  0  0  0  0  0  0
   -1.8518   10.0796  -14.2562 H   0  0  0  0  0  0  0  0  0  0  0  0
    7.6264    6.9152  -14.1856 I   0  0  0  0  0  0  0  0  0  0  0  0
    5.5427    7.1416  -14.0089 C   0  0  0  0  0  0  0  0  0  0  0  0
    4.8082    6.2473  -13.2287 C   0  0  0  0  0  0  0  0  0  0  0  0
    3.4458    6.3593  -13.0860 C   0  0  0  0  0  0  0  0  0  0  0  0
    2.8423    7.4236  -13.7709 C   0  0  0  0  0  0  0  0  0  0  0  0
    3.5713    8.2966  -14.5357 C   0  0  0  0  0  0  0  0  0  0  0  0
    4.9342    8.1666  -14.6647 C   0  0  0  0  0  0  0  0  0  0  0  0
    2.7155    9.7296  -15.4516 Br  0  0  0  0  0  0  0  0  0  0  0  0
    5.4731    5.2258  -12.5874 O   0  0  0  0  0  0  0  0  0  0  0  0
 19 20  1  0  0  0
 20 21  2  0  0  0
 20 25  1  0  0  0
 21 22  1  0  0  0
 21 27  1  0  0  0
 22 23  2  0  0  0
 22  1  1  0  0  0
 23 24  1  0  0  0
 24 25  2  0  0  0
 24 26  1  0  0  0
  1  2  1  0  0  0
  1 10  1  0  0  0
  2  3  1  0  0  0
  3  4  1  0  0  0
  3  7  2  0  0  0
  4  5  1  0  0  0
  5  6  2  0  0  0
  5 14  1  0  0  0
  6  7  1  0  0  0
  6 11  1  0  0  0
  7  8  1  0  0  0
  8  9  2  0  0  0
  8 10  1  0  0  0
 11 12  1  0  0  0
 12 13  1  0  0  0
 13 14  1  0  0  0
 13 15  1  0  0  0
  2 16  1  0  0  0
 10 17  1  0  0  0
 13 18  1  0  0  0
M  CHG 1  13   1
M  CHG 1  27  -1
M  END
> <minimizedAffinity>
-4.36188

$$$$
895


 28 31  0  0  0  0  0  0  0  0999 V2000
    2.5192    9.2973  -14.3857 C   0  0  0  0  0  0  0  0  0  0  0  0
    3.4078   10.2281  -13.6897 N   0  0  0  0  0  0  0  0  0  0  0  0
    2.9690   11.5684  -13.3544 C   0  0  0  0  0  0  0  0  0  0  0  0
    3.8090   12.9779  -12.8426 S   0  0  0  0  0  0  0  0  0  0  0  0
    2.4918   14.0358  -12.6966 C   0  0  0  0  0  0  0  0  0  0  0  0
    1.4198   13.2621  -13.0518 C   0  0  0  0  0  0  0  0  0  0  0  0
    1.6756   11.9803  -13.3921 C   0  0  0  0  0  0  0  0  0  0  0  0
    0.6913   10.9423  -13.8135 C   0  0  0  0  0  0  0  0  0  0  0  0
   -0.5487   11.1967  -13.8911 O   0  0  0  0  0  0  0  0  0  0  0  0
    1.1490    9.6489  -14.1323 N   0  0  0  0  0  0  0  0  0  0  0  0
    0.1113   14.0420  -12.9851 C   0  0  0  0  0  0  0  0  0  0  0  0
    0.0142   14.7363  -11.6526 C   0  0  0  0  0  0  0  0  0  0  0  0
    1.2165   15.3819  -11.2437 N   0  0  0  0  0  0  0  0  0  0  0  0
    2.2010   15.4669  -12.3170 C   0  0  0  0  0  0  0  0  0  0  0  0
    1.8362   14.5328  -10.2143 C   0  0  0  0  0  0  0  0  0  0  0  0
    4.3713    9.9624  -13.4154 H   0  0  0  0  0  0  0  0  0  0  0  0
    0.4475    8.8656  -14.1951 H   0  0  0  0  0  0  0  0  0  0  0  0
    1.0656   16.3384  -10.8284 H   0  0  0  0  0  0  0  0  0  0  0  0
    5.9931    5.1394  -13.1522 I   0  0  0  0  0  0  0  0  0  0  0  0
    4.1146    6.0986  -13.1573 C   0  0  0  0  0  0  0  0  0  0  0  0
    3.0320    5.4847  -12.5605 C   0  0  0  0  0  0  0  0  0  0  0  0
    1.7844    6.1065  -12.5566 C   0  0  0  0  0  0  0  0  0  0  0  0
    1.6855    7.3255  -13.1567 C   0  0  0  0  0  0  0  0  0  0  0  0
    2.7581    7.9660  -13.7640 C   0  0  0  0  0  0  0  0  0  0  0  0
    3.9739    7.3399  -13.7577 C   0  0  0  0  0  0  0  0  0  0  0  0
    3.1726    4.2468  -11.9618 O   0  0  0  0  0  0  0  0  0  0  0  0
    0.7318    5.4417  -11.9420 O   0  0  0  0  0  0  0  0  0  0  0  0
   -0.5610    5.5561  -12.5064 C   0  0  0  0  0  0  0  0  0  0  0  0
 19 20  1  0  0  0
 20 21  2  0  0  0
 20 25  1  0  0  0
 21 22  1  0  0  0
 21 26  1  0  0  0
 22 23  2  0  0  0
 22 27  1  0  0  0
 23 24  1  0  0  0
 24 25  2  0  0  0
 24  1  1  0  0  0
  1  2  1  0  0  0
  1 10  1  0  0  0
  2  3  1  0  0  0
  3  4  1  0  0  0
  3  7  2  0  0  0
  4  5  1  0  0  0
  5  6  2  0  0  0
  5 14  1  0  0  0
  6  7  1  0  0  0
  6 11  1  0  0  0
  7  8  1  0  0  0
  8  9  2  0  0  0
  8 10  1  0  0  0
 11 12  1  0  0  0
 12 13  1  0  0  0
 13 14  1  0  0  0
 13 15  1  0  0  0
 27 28  1  0  0  0
  2 16  1  0  0  0
 10 17  1  0  0  0
 13 18  1  0  0  0
M  CHG 1  13   1
M  CHG 1  26  -1
M  END
> <minimizedAffinity>
-6.56289

$$$$
906


 27 30  0  0  0  0  0  0  0  0999 V2000
    1.9739    9.1213  -13.7104 C   0  0  0  0  0  0  0  0  0  0  0  0
    1.1165    8.3877  -13.0104 N   0  0  0  0  0  0  0  0  0  0  0  0
    1.3518    7.1590  -12.5204 C   0  0  0  0  0  0  0  0  0  0  0  0
    0.7045    6.2249  -11.8132 N   0  0  0  0  0  0  0  0  0  0  0  0
    1.4661    5.1855  -11.6287 O   0  0  0  0  0  0  0  0  0  0  0  0
    2.6216    5.3868  -12.1953 N   0  0  0  0  0  0  0  0  0  0  0  0
    2.6107    6.6004  -12.7671 C   0  0  0  0  0  0  0  0  0  0  0  0
    3.5032    7.2849  -13.4592 N   0  0  0  0  0  0  0  0  0  0  0  0
    3.2217    8.5040  -13.9263 C   0  0  0  0  0  0  0  0  0  0  0  0
    4.3028    8.9208  -14.5654 N   0  0  0  0  0  0  0  0  0  0  0  0
    5.2534    7.9724  -14.4992 N   0  0  0  0  0  0  0  0  0  0  0  0
    4.7727    6.9294  -13.8069 C   0  0  0  0  0  0  0  0  0  0  0  0
    1.7380   10.4105  -14.2301 N   0  0  0  0  0  0  0  0  0  0  0  0
    2.1958   10.6541  -15.1783 H   0  0  0  0  0  0  0  0  0  0  0  0
    3.7318   12.4273  -12.7759 I   0  0  0  0  0  0  0  0  0  0  0  0
    1.6283   12.4753  -12.9564 C   0  0  0  0  0  0  0  0  0  0  0  0
    0.9682   11.4487  -13.6677 C   0  0  0  0  0  0  0  0  0  0  0  0
   -0.3912   11.4640  -13.7982 C   0  0  0  0  0  0  0  0  0  0  0  0
   -1.0885   12.5197  -13.2053 C   0  0  0  0  0  0  0  0  0  0  0  0
   -0.4769   13.5265  -12.5126 C   0  0  0  0  0  0  0  0  0  0  0  0
    0.9104   13.4986  -12.3889 C   0  0  0  0  0  0  0  0  0  0  0  0
    5.4333    5.6440  -13.4559 C   0  0  0  0  0  0  0  0  0  0  0  0
    6.8486    5.8078  -13.0465 C   0  0  0  0  0  0  0  0  0  0  0  0
    7.1904    6.1572  -11.8975 O   0  0  0  0  0  0  0  0  0  0  0  0
    7.8297    5.5690  -13.9686 O   0  0  0  0  0  0  0  0  0  0  0  0
    8.6160    6.5352  -14.5688 C   0  0  0  0  0  0  0  0  0  0  0  0
   10.0395    6.5711  -14.1626 C   0  0  0  0  0  0  0  0  0  0  0  0
 15 16  1  0  0  0
 16 17  2  0  0  0
 16 21  1  0  0  0
 17 18  1  0  0  0
 17 13  1  0  0  0
 18 19  2  0  0  0
 19 20  1  0  0  0
 20 21  2  0  0  0
 13  1  1  0  0  0
  1  2  2  0  0  0
  1  9  1  0  0  0
  2  3  1  0  0  0
  3  4  2  0  0  0
  3  7  1  0  0  0
  4  5  1  0  0  0
  5  6  1  0  0  0
  6  7  2  0  0  0
  7  8  1  0  0  0
  8  9  1  0  0  0
  8 12  1  0  0  0
  9 10  2  0  0  0
 10 11  1  0  0  0
 11 12  2  0  0  0
 12 22  1  0  0  0
 22 23  1  0  0  0
 23 24  2  0  0  0
 23 25  1  0  0  0
 25 26  1  0  0  0
 26 27  1  0  0  0
 13 14  1  0  0  0
M  END
> <minimizedAffinity>
-8.25067

$$$$
908


 25 28  0  0  0  0  0  0  0  0999 V2000
   -0.9843    8.8336  -13.8744 N   0  0  0  0  0  0  0  0  0  0  0  0
   -2.2365    9.3113  -13.7630 C   0  0  0  0  0  0  0  0  0  0  0  0
   -2.5449   10.4543  -13.3095 O   0  0  0  0  0  0  0  0  0  0  0  0
   -3.1672    8.3950  -14.2083 C   0  0  0  0  0  0  0  0  0  0  0  0
   -2.4681    7.3415  -14.5981 C   0  0  0  0  0  0  0  0  0  0  0  0
   -3.3928    6.4531  -15.0328 N   0  0  0  0  0  0  0  0  0  0  0  0
   -4.6091    6.9520  -14.9102 N   0  0  0  0  0  0  0  0  0  0  0  0
   -4.4933    8.1518  -14.4023 N   0  0  0  0  0  0  0  0  0  0  0  0
   -1.1218    7.6015  -14.3971 C   0  0  0  0  0  0  0  0  0  0  0  0
   -0.1822    6.7859  -14.6709 O   0  0  0  0  0  0  0  0  0  0  0  0
   -3.1960    5.5038  -15.4142 H   0  0  0  0  0  0  0  0  0  0  0  0
   -5.4989    6.4790  -15.1681 H   0  0  0  0  0  0  0  0  0  0  0  0
    0.4121    7.2104  -11.5381 I   0  0  0  0  0  0  0  0  0  0  0  0
    1.0622    8.9625  -12.5318 C   0  0  0  0  0  0  0  0  0  0  0  0
    0.2483    9.4656  -13.5260 C   0  0  0  0  0  0  0  0  0  0  0  0
    0.6898   10.6077  -14.1623 C   0  0  0  0  0  0  0  0  0  0  0  0
    1.8863   11.2107  -13.8141 C   0  0  0  0  0  0  0  0  0  0  0  0
    2.6917   10.6985  -12.8190 C   0  0  0  0  0  0  0  0  0  0  0  0
    2.2571    9.5568  -12.1783 C   0  0  0  0  0  0  0  0  0  0  0  0
   -5.5231    9.0797  -14.0884 C   0  0  0  0  0  0  0  0  0  0  0  0
   -5.7319    9.5355  -12.8056 C   0  0  0  0  0  0  0  0  0  0  0  0
   -6.7446   10.4405  -12.5324 C   0  0  0  0  0  0  0  0  0  0  0  0
   -7.5797   10.9201  -13.5203 C   0  0  0  0  0  0  0  0  0  0  0  0
   -7.3717   10.4652  -14.8050 C   0  0  0  0  0  0  0  0  0  0  0  0
   -6.3705    9.5676  -15.0852 C   0  0  0  0  0  0  0  0  0  0  0  0
 13 14  1  0  0  0
 14 15  2  0  0  0
 14 19  1  0  0  0
 15 16  1  0  0  0
 15  1  1  0  0  0
 16 17  2  0  0  0
 17 18  1  0  0  0
 18 19  2  0  0  0
  1  2  1  0  0  0
  1  9  1  0  0  0
  2  3  2  0  0  0
  2  4  1  0  0  0
  4  5  2  0  0  0
  4  8  1  0  0  0
  5  6  1  0  0  0
  5  9  1  0  0  0
  6  7  1  0  0  0
  7  8  1  0  0  0
  8 20  1  0  0  0
 20 21  2  0  0  0
 20 25  1  0  0  0
 21 22  1  0  0  0
 22 23  2  0  0  0
 23 24  1  0  0  0
 24 25  2  0  0  0
  9 10  2  0  0  0
  6 11  1  0  0  0
  7 12  1  0  0  0
M  END
> <minimizedAffinity>
-8.07078

$$$$
910


 26 29  0  0  0  0  0  0  0  0999 V2000
    5.7621    5.9782  -13.4284 C   0  0  0  0  0  0  0  0  0  0  0  0
    4.5382    5.3980  -13.0220 C   0  0  0  0  0  0  0  0  0  0  0  0
    4.2488    4.1803  -12.5783 N   0  0  0  0  0  0  0  0  0  0  0  0
    2.9742    4.1260  -12.3376 O   0  0  0  0  0  0  0  0  0  0  0  0
    2.4190    5.2525  -12.6053 N   0  0  0  0  0  0  0  0  0  0  0  0
    3.3706    6.0879  -13.0421 C   0  0  0  0  0  0  0  0  0  0  0  0
    3.3567    7.3974  -13.4681 C   0  0  0  0  0  0  0  0  0  0  0  0
    4.5261    7.9895  -13.8702 C   0  0  0  0  0  0  0  0  0  0  0  0
    5.7220    7.2986  -13.8548 C   0  0  0  0  0  0  0  0  0  0  0  0
    2.1278    8.0739  -13.4808 N   0  0  0  0  0  0  0  0  0  0  0  0
    1.5635    8.7123  -12.2908 C   0  0  0  0  0  0  0  0  0  0  0  0
    0.2697    7.9663  -12.0354 C   0  0  0  0  0  0  0  0  0  0  0  0
   -0.0013    6.9841  -12.9742 O   0  0  0  0  0  0  0  0  0  0  0  0
    0.0205    7.4026  -14.2878 C   0  0  0  0  0  0  0  0  0  0  0  0
    1.2398    8.2494  -14.6075 C   0  0  0  0  0  0  0  0  0  0  0  0
    7.9387    4.3908  -13.1174 C   0  0  0  0  0  0  0  0  0  0  0  0
    8.4768    4.1120  -11.9690 O   0  0  0  0  0  0  0  0  0  0  0  0
    6.8695    5.1707  -13.2701 N   0  0  0  0  0  0  0  0  0  0  0  0
    6.9180    5.5226  -11.9559 H   0  0  0  0  0  0  0  0  0  0  0  0
   10.8607    6.0012  -14.2765 I   0  0  0  0  0  0  0  0  0  0  0  0
    9.8646    4.1851  -14.7658 C   0  0  0  0  0  0  0  0  0  0  0  0
    8.6946    3.7168  -14.2082 C   0  0  0  0  0  0  0  0  0  0  0  0
    8.4189    2.5462  -14.7888 N   0  0  0  0  0  0  0  0  0  0  0  0
    9.3714    2.2870  -15.6763 N   0  0  0  0  0  0  0  0  0  0  0  0
   10.2768    3.2628  -15.6955 C   0  0  0  0  0  0  0  0  0  0  0  0
    7.3050    1.6210  -14.5091 C   0  0  0  0  0  0  0  0  0  0  0  0
 20 21  1  0  0  0
 21 22  2  0  0  0
 21 25  1  0  0  0
 22 23  1  0  0  0
 22 16  1  0  0  0
 23 24  1  0  0  0
 23 26  1  0  0  0
 24 25  2  0  0  0
 16 17  2  0  0  0
 16 18  1  0  0  0
 18  1  1  0  0  0
  1  2  1  0  0  0
  1  9  2  0  0  0
  2  3  2  0  0  0
  2  6  1  0  0  0
  3  4  1  0  0  0
  4  5  1  0  0  0
  5  6  2  0  0  0
  6  7  1  0  0  0
  7  8  2  0  0  0
  7 10  1  0  0  0
  8  9  1  0  0  0
 10 11  1  0  0  0
 10 15  1  0  0  0
 11 12  1  0  0  0
 12 13  1  0  0  0
 13 14  1  0  0  0
 14 15  1  0  0  0
 18 19  1  0  0  0
M  END
> <minimizedAffinity>
-7.24021

$$$$
920


 24 27  0  0  0  0  0  0  0  0999 V2000
   -0.9140   17.0731  -12.3333 N   0  0  0  0  0  0  0  0  0  0  0  0
   -2.0726   17.5811  -12.6177 C   0  0  0  0  0  0  0  0  0  0  0  0
   -3.3470   17.5257  -13.8873 S   0  0  0  0  0  0  0  0  0  0  0  0
   -4.3994   18.6899  -13.0517 C   0  0  0  0  0  0  0  0  0  0  0  0
   -3.8183   19.0596  -11.9322 C   0  0  0  0  0  0  0  0  0  0  0  0
   -2.5554   18.4780  -11.6623 N   0  0  0  0  0  0  0  0  0  0  0  0
   -1.5242   18.5373  -10.5948 C   0  0  0  0  0  0  0  0  0  0  0  0
   -0.4430   17.6491  -11.1040 C   0  0  0  0  0  0  0  0  0  0  0  0
   -4.5312   20.0474  -11.0694 C   0  0  0  0  0  0  0  0  0  0  0  0
   -3.9411   20.6233   -9.9751 C   0  0  0  0  0  0  0  0  0  0  0  0
   -4.6146   21.5623   -9.1693 C   0  0  0  0  0  0  0  0  0  0  0  0
   -5.9060   21.9303   -9.4683 C   0  0  0  0  0  0  0  0  0  0  0  0
   -6.5019   21.3565  -10.5633 C   0  0  0  0  0  0  0  0  0  0  0  0
   -5.8295   20.4318  -11.3522 C   0  0  0  0  0  0  0  0  0  0  0  0
   -0.2077   16.1385  -13.1265 C   0  0  0  0  0  0  0  0  0  0  0  0
    0.4729   15.0109  -12.5470 C   0  0  0  0  0  0  0  0  0  0  0  0
    1.2211   15.3419  -11.5284 O   0  0  0  0  0  0  0  0  0  0  0  0
    0.7456    8.8035  -13.8200 I   0  0  0  0  0  0  0  0  0  0  0  0
    0.6094   10.8417  -13.4184 C   0  0  0  0  0  0  0  0  0  0  0  0
   -0.5595   11.5739  -13.4969 C   0  0  0  0  0  0  0  0  0  0  0  0
   -0.6151   12.9144  -13.2249 C   0  0  0  0  0  0  0  0  0  0  0  0
    0.4979   13.6072  -12.8571 C   0  0  0  0  0  0  0  0  0  0  0  0
    1.6872   12.8854  -12.7722 C   0  0  0  0  0  0  0  0  0  0  0  0
    1.7452   11.5585  -13.0410 C   0  0  0  0  0  0  0  0  0  0  0  0
 18 19  1  0  0  0
 19 20  2  0  0  0
 19 24  1  0  0  0
 20 21  1  0  0  0
 21 22  2  0  0  0
 22 23  1  0  0  0
 22 16  1  0  0  0
 23 24  2  0  0  0
 16 17  2  0  0  0
 16 15  1  0  0  0
 15  1  1  0  0  0
  1  2  2  0  0  0
  1  8  1  0  0  0
  2  3  1  0  0  0
  2  6  1  0  0  0
  3  4  1  0  0  0
  4  5  2  0  0  0
  5  6  1  0  0  0
  5  9  1  0  0  0
  6  7  1  0  0  0
  7  8  1  0  0  0
  9 10  2  0  0  0
  9 14  1  0  0  0
 10 11  1  0  0  0
 11 12  2  0  0  0
 12 13  1  0  0  0
 13 14  2  0  0  0
M  END
> <minimizedAffinity>
-9.93381

$$$$
924


 29 32  0  0  0  0  0  0  0  0999 V2000
   -2.6206   10.3276  -13.9271 C   0  0  0  0  0  0  0  0  0  0  0  0
   -1.9124    9.2044  -13.7203 N   0  0  0  0  0  0  0  0  0  0  0  0
   -0.6283    9.2530  -13.3442 C   0  0  0  0  0  0  0  0  0  0  0  0
   -0.0894   10.4732  -13.1873 N   0  0  0  0  0  0  0  0  0  0  0  0
   -0.7670   11.6217  -13.3860 C   0  0  0  0  0  0  0  0  0  0  0  0
   -2.0560   11.5297  -13.7622 N   0  0  0  0  0  0  0  0  0  0  0  0
   -0.1200   12.8729  -13.1987 N   0  0  0  0  0  0  0  0  0  0  0  0
    1.3009   12.9112  -12.9418 C   0  0  0  0  0  0  0  0  0  0  0  0
    1.5072   14.0838  -11.9725 C   0  0  0  0  0  0  0  0  0  0  0  0
    1.1895   15.2343  -12.6459 O   0  0  0  0  0  0  0  0  0  0  0  0
   -0.1001   15.3466  -13.0843 C   0  0  0  0  0  0  0  0  0  0  0  0
   -0.8626   14.0839  -13.2618 C   0  0  0  0  0  0  0  0  0  0  0  0
    0.1440    8.0732  -13.1192 N   0  0  0  0  0  0  0  0  0  0  0  0
   -0.1780    6.8020  -13.6935 C   0  0  0  0  0  0  0  0  0  0  0  0
    0.7636    5.7646  -13.0782 C   0  0  0  0  0  0  0  0  0  0  0  0
    0.7969    5.8627  -11.6971 O   0  0  0  0  0  0  0  0  0  0  0  0
    1.3301    7.0444  -11.2448 C   0  0  0  0  0  0  0  0  0  0  0  0
    1.3185    8.1530  -12.2661 C   0  0  0  0  0  0  0  0  0  0  0  0
   -4.0079   10.2496  -14.3326 N   0  0  0  0  0  0  0  0  0  0  0  0
   -4.4897   11.0988  -14.7009 H   0  0  0  0  0  0  0  0  0  0  0  0
   -5.9229    8.9537  -14.2905 C   0  0  0  0  0  0  0  0  0  0  0  0
   -4.6726    9.0757  -14.2018 N   0  0  0  0  0  0  0  0  0  0  0  0
  -10.3345   13.2448  -15.8536 I   0  0  0  0  0  0  0  0  0  0  0  0
   -8.8691   11.8760  -15.2572 C   0  0  0  0  0  0  0  0  0  0  0  0
   -8.2182   11.9658  -14.0657 C   0  0  0  0  0  0  0  0  0  0  0  0
   -7.2445   11.0147  -13.7260 C   0  0  0  0  0  0  0  0  0  0  0  0
   -6.9012    9.9762  -14.5406 C   0  0  0  0  0  0  0  0  0  0  0  0
   -7.5876    9.9080  -15.7623 C   0  0  0  0  0  0  0  0  0  0  0  0
   -8.5421   10.8369  -16.0998 C   0  0  0  0  0  0  0  0  0  0  0  0
 23 24  1  0  0  0
 24 25  2  0  0  0
 24 29  1  0  0  0
 25 26  1  0  0  0
 26 27  2  0  0  0
 27 28  1  0  0  0
 27 21  1  0  0  0
 28 29  2  0  0  0
 21 22  2  0  0  0
 22 19  1  0  0  0
 19  1  1  0  0  0
  1  2  2  0  0  0
  1  6  1  0  0  0
  2  3  1  0  0  0
  3  4  2  0  0  0
  3 13  1  0  0  0
  4  5  1  0  0  0
  5  6  2  0  0  0
  5  7  1  0  0  0
  7  8  1  0  0  0
  7 12  1  0  0  0
  8  9  1  0  0  0
  9 10  1  0  0  0
 10 11  1  0  0  0
 11 12  1  0  0  0
 13 14  1  0  0  0
 13 18  1  0  0  0
 14 15  1  0  0  0
 15 16  1  0  0  0
 16 17  1  0  0  0
 17 18  1  0  0  0
 19 20  1  0  0  0
M  END
> <minimizedAffinity>
-9.28269

$$$$
935


 34 38  0  0  0  0  0  0  0  0999 V2000
    4.5530    7.2330  -13.8940 N   0  0  0  0  0  0  0  0  0  0  0  0
    3.4376    6.6318  -13.4449 C   0  0  0  0  0  0  0  0  0  0  0  0
    2.1756    7.0438  -13.8136 C   0  0  0  0  0  0  0  0  0  0  0  0
    2.1201    8.1183  -14.6797 C   0  0  0  0  0  0  0  0  0  0  0  0
    1.0378    8.6174  -15.1129 O   0  0  0  0  0  0  0  0  0  0  0  0
    3.2487    8.7391  -15.1443 N   0  0  0  0  0  0  0  0  0  0  0  0
    4.4416    8.2749  -14.7338 C   0  0  0  0  0  0  0  0  0  0  0  0
    5.5054    8.8127  -15.1333 O   0  0  0  0  0  0  0  0  0  0  0  0
    3.5354    5.5659  -12.5882 O   0  0  0  0  0  0  0  0  0  0  0  0
    3.2020    9.5460  -15.7938 H   0  0  0  0  0  0  0  0  0  0  0  0
    0.9277    6.4580  -13.3601 C   0  0  0  0  0  0  0  0  0  0  0  0
    0.9087    5.8760  -12.0559 N   0  0  0  0  0  0  0  0  0  0  0  0
    1.1244    6.8058  -10.9812 C   0  0  0  0  0  0  0  0  0  0  0  0
    1.0865    8.2533  -11.4241 C   0  0  0  0  0  0  0  0  0  0  0  0
   -0.0910    8.4364  -12.3518 C   0  0  0  0  0  0  0  0  0  0  0  0
   -0.1733    7.4865  -13.3382 C   0  0  0  0  0  0  0  0  0  0  0  0
   -1.2119    7.5040  -14.2379 C   0  0  0  0  0  0  0  0  0  0  0  0
   -2.1548    8.5129  -14.1012 C   0  0  0  0  0  0  0  0  0  0  0  0
   -2.0858    9.4759  -13.1157 C   0  0  0  0  0  0  0  0  0  0  0  0
   -1.0157    9.4202  -12.2237 C   0  0  0  0  0  0  0  0  0  0  0  0
   -3.1706   10.3270  -13.2562 O   0  0  0  0  0  0  0  0  0  0  0  0
   -3.7449   10.1387  -14.5599 C   0  0  0  0  0  0  0  0  0  0  0  0
   -3.3145    8.8177  -14.8304 O   0  0  0  0  0  0  0  0  0  0  0  0
   -0.4854    5.3946  -11.8700 C   0  0  0  0  0  0  0  0  0  0  0  0
    1.4406    4.9986  -11.9328 H   0  0  0  0  0  0  0  0  0  0  0  0
   -1.2866    6.5533  -15.2158 O   0  0  0  0  0  0  0  0  0  0  0  0
   -2.2315    5.5378  -15.3321 C   0  0  0  0  0  0  0  0  0  0  0  0
   10.3064    5.2563  -12.1361 I   0  0  0  0  0  0  0  0  0  0  0  0
    8.3948    5.8920  -12.7250 C   0  0  0  0  0  0  0  0  0  0  0  0
    8.0248    7.2232  -12.5652 C   0  0  0  0  0  0  0  0  0  0  0  0
    6.7842    7.6447  -12.9455 C   0  0  0  0  0  0  0  0  0  0  0  0
    5.8428    6.7920  -13.4995 C   0  0  0  0  0  0  0  0  0  0  0  0
    6.2067    5.4593  -13.6615 C   0  0  0  0  0  0  0  0  0  0  0  0
    7.4629    5.0429  -13.2740 C   0  0  0  0  0  0  0  0  0  0  0  0
 28 29  1  0  0  0
 29 30  2  0  0  0
 29 34  1  0  0  0
 30 31  1  0  0  0
 31 32  2  0  0  0
 32 33  1  0  0  0
 32  1  1  0  0  0
 33 34  2  0  0  0
  1  2  1  0  0  0
  1  7  1  0  0  0
  2  3  2  0  0  0
  2  9  1  0  0  0
  3  4  1  0  0  0
  3 11  1  0  0  0
  4  5  2  0  0  0
  4  6  1  0  0  0
  6  7  1  0  0  0
  7  8  2  0  0  0
 11 12  1  0  0  0
 11 16  1  0  0  0
 12 13  1  0  0  0
 12 24  1  0  0  0
 13 14  1  0  0  0
 14 15  1  0  0  0
 15 16  2  0  0  0
 15 20  1  0  0  0
 16 17  1  0  0  0
 17 18  2  0  0  0
 17 26  1  0  0  0
 18 19  1  0  0  0
 18 23  1  0  0  0
 19 20  2  0  0  0
 19 21  1  0  0  0
 21 22  1  0  0  0
 22 23  1  0  0  0
 26 27  1  0  0  0
  6 10  1  0  0  0
 12 25  1  0  0  0
M  CHG 1   9  -1
M  CHG 1  12   1
M  END
> <minimizedAffinity>
-5.44762

$$$$
937


 26 29  0  0  0  0  0  0  0  0999 V2000
    2.2937   11.6846  -13.2191 N   0  0  0  0  0  0  0  0  0  0  0  0
    2.1939   10.5933  -14.1188 C   0  0  0  0  0  0  0  0  0  0  0  0
    1.5732   10.6442  -15.2121 O   0  0  0  0  0  0  0  0  0  0  0  0
    2.9278    9.4208  -13.5665 C   0  0  0  0  0  0  0  0  0  0  0  0
    4.0048   10.1012  -12.7386 C   0  0  0  0  0  0  0  0  0  0  0  0
    3.4398   11.4252  -12.4115 C   0  0  0  0  0  0  0  0  0  0  0  0
    3.8816   12.2382  -11.5478 O   0  0  0  0  0  0  0  0  0  0  0  0
   -1.4103   16.8364  -12.7258 I   0  0  0  0  0  0  0  0  0  0  0  0
   -0.1729   15.1318  -12.8875 C   0  0  0  0  0  0  0  0  0  0  0  0
    1.1966   15.2036  -12.7432 C   0  0  0  0  0  0  0  0  0  0  0  0
    1.9812   14.0733  -12.8546 C   0  0  0  0  0  0  0  0  0  0  0  0
    1.4330   12.8346  -13.1137 C   0  0  0  0  0  0  0  0  0  0  0  0
    0.0666   12.7845  -13.2540 C   0  0  0  0  0  0  0  0  0  0  0  0
   -0.7380   13.9019  -13.1464 C   0  0  0  0  0  0  0  0  0  0  0  0
    2.0296    8.6534  -12.8067 N   0  0  0  0  0  0  0  0  0  0  0  0
    0.9030    9.2276  -12.2188 C   0  0  0  0  0  0  0  0  0  0  0  0
   -0.1474    8.0979  -12.0544 C   0  0  0  0  0  0  0  0  0  0  0  0
   -0.2596    7.4018  -13.3275 N   0  0  0  0  0  0  0  0  0  0  0  0
    0.9404    6.7755  -13.8241 C   0  0  0  0  0  0  0  0  0  0  0  0
    2.0959    7.2555  -12.9499 C   0  0  0  0  0  0  0  0  0  0  0  0
   -1.4804    7.3555  -14.0311 C   0  0  0  0  0  0  0  0  0  0  0  0
   -2.3746    8.3772  -13.9386 N   0  0  0  0  0  0  0  0  0  0  0  0
   -3.5376    8.3956  -14.5860 C   0  0  0  0  0  0  0  0  0  0  0  0
   -3.8953    7.3353  -15.4081 C   0  0  0  0  0  0  0  0  0  0  0  0
   -2.9821    6.2994  -15.4980 C   0  0  0  0  0  0  0  0  0  0  0  0
   -1.8217    6.3224  -14.8288 N   0  0  0  0  0  0  0  0  0  0  0  0
  8  9  1  0  0  0
  9 10  2  0  0  0
  9 14  1  0  0  0
 10 11  1  0  0  0
 11 12  2  0  0  0
 12 13  1  0  0  0
 12  1  1  0  0  0
 13 14  2  0  0  0
  1  2  1  0  0  0
  1  6  1  0  0  0
  2  3  2  0  0  0
  2  4  1  0  0  0
  4  5  1  0  0  0
  4 15  1  0  0  0
  5  6  1  0  0  0
  6  7  2  0  0  0
 15 16  1  0  0  0
 15 20  1  0  0  0
 16 17  1  0  0  0
 17 18  1  0  0  0
 18 19  1  0  0  0
 18 21  1  0  0  0
 19 20  1  0  0  0
 21 22  2  0  0  0
 21 26  1  0  0  0
 22 23  1  0  0  0
 23 24  2  0  0  0
 24 25  1  0  0  0
 25 26  2  0  0  0
M  END
> <minimizedAffinity>
-7.64204

$$$$
950


 26 29  0  0  0  0  0  0  0  0999 V2000
   -3.8282    9.5976  -14.3442 C   0  0  0  0  0  0  0  0  0  0  0  0
   -3.5236    8.2866  -14.7236 C   0  0  0  0  0  0  0  0  0  0  0  0
   -4.1861    7.4053  -15.4928 N   0  0  0  0  0  0  0  0  0  0  0  0
   -3.4927    6.3065  -15.5504 O   0  0  0  0  0  0  0  0  0  0  0  0
   -2.4046    6.4233  -14.8542 N   0  0  0  0  0  0  0  0  0  0  0  0
   -2.3786    7.6561  -14.3124 C   0  0  0  0  0  0  0  0  0  0  0  0
   -1.4856    8.3189  -13.4984 C   0  0  0  0  0  0  0  0  0  0  0  0
   -1.7940    9.6052  -13.1329 C   0  0  0  0  0  0  0  0  0  0  0  0
   -2.9621   10.2578  -13.5471 C   0  0  0  0  0  0  0  0  0  0  0  0
   -0.3066    7.6497  -13.0833 N   0  0  0  0  0  0  0  0  0  0  0  0
    0.8551    7.5971  -13.9468 C   0  0  0  0  0  0  0  0  0  0  0  0
    1.9632    6.9099  -13.2282 C   0  0  0  0  0  0  0  0  0  0  0  0
    2.1888    7.3798  -11.9491 O   0  0  0  0  0  0  0  0  0  0  0  0
    1.1146    7.3346  -11.1181 C   0  0  0  0  0  0  0  0  0  0  0  0
   -0.1866    6.9899  -11.7983 C   0  0  0  0  0  0  0  0  0  0  0  0
   -6.2604   10.1942  -14.1724 C   0  0  0  0  0  0  0  0  0  0  0  0
   -6.3724    9.6989  -12.9978 O   0  0  0  0  0  0  0  0  0  0  0  0
   -5.0381   10.1471  -14.8285 N   0  0  0  0  0  0  0  0  0  0  0  0
   -5.0376   10.5684  -15.8106 H   0  0  0  0  0  0  0  0  0  0  0  0
   -8.0409   13.0389  -12.6521 I   0  0  0  0  0  0  0  0  0  0  0  0
   -8.2625   11.8228  -14.3302 C   0  0  0  0  0  0  0  0  0  0  0  0
   -9.2961   11.9494  -15.2584 C   0  0  0  0  0  0  0  0  0  0  0  0
   -9.1451   11.0053  -16.1886 N   0  0  0  0  0  0  0  0  0  0  0  0
   -8.0826   10.3156  -15.8780 N   0  0  0  0  0  0  0  0  0  0  0  0
   -7.4925   10.7846  -14.7270 C   0  0  0  0  0  0  0  0  0  0  0  0
  -10.0375   10.8116  -17.3398 C   0  0  0  0  0  0  0  0  0  0  0  0
 20 21  1  0  0  0
 21 22  2  0  0  0
 21 25  1  0  0  0
 22 23  1  0  0  0
 23 24  1  0  0  0
 23 26  1  0  0  0
 24 25  2  0  0  0
 25 16  1  0  0  0
 16 17  2  0  0  0
 16 18  1  0  0  0
 18  1  1  0  0  0
  1  2  1  0  0  0
  1  9  2  0  0  0
  2  3  2  0  0  0
  2  6  1  0  0  0
  3  4  1  0  0  0
  4  5  1  0  0  0
  5  6  2  0  0  0
  6  7  1  0  0  0
  7  8  2  0  0  0
  7 10  1  0  0  0
  8  9  1  0  0  0
 10 11  1  0  0  0
 10 15  1  0  0  0
 11 12  1  0  0  0
 12 13  1  0  0  0
 13 14  1  0  0  0
 14 15  1  0  0  0
 18 19  1  0  0  0
M  END
> <minimizedAffinity>
-7.98440

$$$$
956


 30 33  0  0  0  0  0  0  0  0999 V2000
    2.2434   10.0158  -14.2514 I   0  0  0  0  0  0  0  0  0  0  0  0
    3.2954    8.2486  -13.7887 C   0  0  0  0  0  0  0  0  0  0  0  0
    2.7831    7.1354  -13.1906 C   0  0  0  0  0  0  0  0  0  0  0  0
    3.8633    6.2561  -13.1055 C   0  0  0  0  0  0  0  0  0  0  0  0
    4.9745    6.7868  -13.6175 N   0  0  0  0  0  0  0  0  0  0  0  0
    4.6359    8.0056  -14.0374 C   0  0  0  0  0  0  0  0  0  0  0  0
    3.6442    5.0537  -12.5474 N   0  0  0  0  0  0  0  0  0  0  0  0
    2.4300    4.7131  -12.0882 C   0  0  0  0  0  0  0  0  0  0  0  0
    1.3977    5.5579  -12.1712 N   0  0  0  0  0  0  0  0  0  0  0  0
    1.5321    6.8027  -12.7250 C   0  0  0  0  0  0  0  0  0  0  0  0
    6.2815    6.2099  -13.7182 C   0  0  0  0  0  0  0  0  0  0  0  0
    6.7530    5.6827  -12.5220 O   0  0  0  0  0  0  0  0  0  0  0  0
    8.0571    5.3214  -12.8483 C   0  0  0  0  0  0  0  0  0  0  0  0
    8.6096    6.4157  -13.7315 C   0  0  0  0  0  0  0  0  0  0  0  0
    7.3588    7.2570  -14.0127 C   0  0  0  0  0  0  0  0  0  0  0  0
    9.0298    5.9202  -14.9665 O   0  0  0  0  0  0  0  0  0  0  0  0
    9.9030    5.4538  -14.7819 H   0  0  0  0  0  0  0  0  0  0  0  0
    8.9271    5.3096  -11.5834 C   0  0  0  0  0  0  0  0  0  0  0  0
   10.1558    5.9160  -11.8761 O   0  0  0  0  0  0  0  0  0  0  0  0
   10.1415    6.8925  -11.6215 H   0  0  0  0  0  0  0  0  0  0  0  0
    0.3976    7.6608  -12.7872 N   0  0  0  0  0  0  0  0  0  0  0  0
   -0.6129    7.3867  -13.7534 C   0  0  0  0  0  0  0  0  0  0  0  0
   -0.4395    6.3909  -14.5014 O   0  0  0  0  0  0  0  0  0  0  0  0
    0.2320    8.4762  -12.1907 H   0  0  0  0  0  0  0  0  0  0  0  0
   -1.8061    8.1693  -13.9242 C   0  0  0  0  0  0  0  0  0  0  0  0
   -1.8679    9.4704  -13.5073 C   0  0  0  0  0  0  0  0  0  0  0  0
   -3.0184   10.2453  -13.6694 C   0  0  0  0  0  0  0  0  0  0  0  0
   -4.1180    9.6956  -14.2598 C   0  0  0  0  0  0  0  0  0  0  0  0
   -4.0854    8.3936  -14.6876 C   0  0  0  0  0  0  0  0  0  0  0  0
   -2.9218    7.6352  -14.5153 C   0  0  0  0  0  0  0  0  0  0  0  0
  1  2  1  0  0  0
  2  3  1  0  0  0
  2  6  2  0  0  0
  3  4  2  0  0  0
  3 10  1  0  0  0
  4  5  1  0  0  0
  4  7  1  0  0  0
  5  6  1  0  0  0
  5 11  1  0  0  0
 11 12  1  0  0  0
 11 15  1  0  0  0
 12 13  1  0  0  0
 13 14  1  0  0  0
 13 18  1  0  0  0
 14 15  1  0  0  0
 14 16  1  0  0  0
 18 19  1  0  0  0
  7  8  2  0  0  0
  8  9  1  0  0  0
  9 10  2  0  0  0
 10 21  1  0  0  0
 21 22  1  0  0  0
 22 23  2  0  0  0
 22 25  1  0  0  0
 25 26  2  0  0  0
 25 30  1  0  0  0
 26 27  1  0  0  0
 27 28  2  0  0  0
 28 29  1  0  0  0
 29 30  2  0  0  0
 16 17  1  0  0  0
 19 20  1  0  0  0
 21 24  1  0  0  0
M  END
> <minimizedAffinity>
-8.67797

$$$$
961


 29 33  0  0  0  0  0  0  0  0999 V2000
    1.2583   11.2499  -13.0934 C   0  0  0  0  0  0  0  0  0  0  0  0
    2.4155   10.7367  -12.7511 N   0  0  0  0  0  0  0  0  0  0  0  0
    3.4132   11.5499  -12.2899 C   0  0  0  0  0  0  0  0  0  0  0  0
    3.2884   12.8982  -12.1523 C   0  0  0  0  0  0  0  0  0  0  0  0
    2.0854   13.4735  -12.4992 C   0  0  0  0  0  0  0  0  0  0  0  0
    1.5986   14.7626  -12.4977 N   0  0  0  0  0  0  0  0  0  0  0  0
    0.3523   14.7617  -12.9395 C   0  0  0  0  0  0  0  0  0  0  0  0
    0.0554   13.4632  -13.2188 N   0  0  0  0  0  0  0  0  0  0  0  0
    1.0931   12.6582  -12.9602 C   0  0  0  0  0  0  0  0  0  0  0  0
    2.4217   15.8444  -12.0368 C   0  0  0  0  0  0  0  0  0  0  0  0
    2.6644    9.3254  -12.7692 C   0  0  0  0  0  0  0  0  0  0  0  0
   -0.5799   15.8844  -13.0971 C   0  0  0  0  0  0  0  0  0  0  0  0
   -1.1894   16.2387  -14.2547 C   0  0  0  0  0  0  0  0  0  0  0  0
   -2.0445   17.3562  -14.2913 C   0  0  0  0  0  0  0  0  0  0  0  0
   -2.2679   18.0966  -13.1530 C   0  0  0  0  0  0  0  0  0  0  0  0
   -1.6569   17.7541  -11.9543 C   0  0  0  0  0  0  0  0  0  0  0  0
   -0.8413   16.6712  -11.9634 C   0  0  0  0  0  0  0  0  0  0  0  0
   -0.7526    9.7614  -13.2020 C   0  0  0  0  0  0  0  0  0  0  0  0
    0.1375   10.5494  -13.6927 C   0  0  0  0  0  0  0  0  0  0  0  0
   -0.3465    6.6948  -14.1315 Br  0  0  0  0  0  0  0  0  0  0  0  0
   -1.9158    7.7746  -14.1896 C   0  0  0  0  0  0  0  0  0  0  0  0
   -3.0958    7.1803  -14.7028 C   0  0  0  0  0  0  0  0  0  0  0  0
   -4.2494    7.9072  -14.8194 C   0  0  0  0  0  0  0  0  0  0  0  0
   -4.2375    9.2280  -14.4283 C   0  0  0  0  0  0  0  0  0  0  0  0
   -3.0860    9.7953  -13.9312 C   0  0  0  0  0  0  0  0  0  0  0  0
   -1.8750    9.0710  -13.7952 C   0  0  0  0  0  0  0  0  0  0  0  0
   -5.5283    9.7356  -14.6509 O   0  0  0  0  0  0  0  0  0  0  0  0
   -6.3899    8.6162  -14.6728 C   0  0  0  0  0  0  0  0  0  0  0  0
   -5.5445    7.6344  -15.2707 O   0  0  0  0  0  0  0  0  0  0  0  0
 20 21  1  0  0  0
 21 22  2  0  0  0
 21 26  1  0  0  0
 22 23  1  0  0  0
 23 24  2  0  0  0
 23 29  1  0  0  0
 24 25  1  0  0  0
 24 27  1  0  0  0
 25 26  2  0  0  0
 26 18  1  0  0  0
 18 19  2  0  0  0
 19  1  1  0  0  0
  1  2  2  0  0  0
  1  9  1  0  0  0
  2  3  1  0  0  0
  2 11  1  0  0  0
  3  4  2  0  0  0
  4  5  1  0  0  0
  5  6  1  0  0  0
  5  9  2  0  0  0
  6  7  1  0  0  0
  6 10  1  0  0  0
  7  8  2  0  0  0
  7 12  1  0  0  0
  8  9  1  0  0  0
 12 13  2  0  0  0
 12 17  1  0  0  0
 13 14  1  0  0  0
 14 15  2  0  0  0
 15 16  1  0  0  0
 16 17  2  0  0  0
 27 28  1  0  0  0
 28 29  1  0  0  0
M  END
> <minimizedAffinity>
-9.90898

$$$$
969


 31 34  0  0  0  0  0  0  0  0999 V2000
   -0.9330   13.7645  -13.1030 Br  0  0  0  0  0  0  0  0  0  0  0  0
    0.4646   12.4846  -12.9550 C   0  0  0  0  0  0  0  0  0  0  0  0
    0.2857   11.1261  -13.2002 C   0  0  0  0  0  0  0  0  0  0  0  0
    1.3372   10.2327  -13.0772 C   0  0  0  0  0  0  0  0  0  0  0  0
    2.5877   10.6834  -12.7064 C   0  0  0  0  0  0  0  0  0  0  0  0
    2.7720   12.0159  -12.4637 C   0  0  0  0  0  0  0  0  0  0  0  0
    1.7260   12.8951  -12.5875 C   0  0  0  0  0  0  0  0  0  0  0  0
    1.9933   14.2510  -12.3227 O   0  0  0  0  0  0  0  0  0  0  0  0
    4.5363   12.5762  -11.9540 Br  0  0  0  0  0  0  0  0  0  0  0  0
    1.1869    8.8833  -13.3139 C   0  0  0  0  0  0  0  0  0  0  0  0
   -0.0656    8.4411  -13.6851 C   0  0  0  0  0  0  0  0  0  0  0  0
   -1.1201    9.4569  -13.7896 C   0  0  0  0  0  0  0  0  0  0  0  0
   -2.3821    8.9936  -14.1649 C   0  0  0  0  0  0  0  0  0  0  0  0
   -2.5932    7.6575  -14.4150 C   0  0  0  0  0  0  0  0  0  0  0  0
   -3.7466    7.2868  -14.7510 O   0  0  0  0  0  0  0  0  0  0  0  0
   -1.5723    6.7191  -14.3067 C   0  0  0  0  0  0  0  0  0  0  0  0
   -0.3137    7.1026  -13.9448 C   0  0  0  0  0  0  0  0  0  0  0  0
   -1.9536    4.8823  -14.6735 Br  0  0  0  0  0  0  0  0  0  0  0  0
   -3.8118   10.2683  -14.3201 Br  0  0  0  0  0  0  0  0  0  0  0  0
   -0.9111   10.7299  -13.5501 O   0  0  0  0  0  0  0  0  0  0  0  0
    2.2977    7.9400  -13.1755 C   0  0  0  0  0  0  0  0  0  0  0  0
    2.2759    6.9650  -12.1950 C   0  0  0  0  0  0  0  0  0  0  0  0
    3.3122    6.0687  -12.0407 C   0  0  0  0  0  0  0  0  0  0  0  0
    4.3930    6.1569  -12.8936 C   0  0  0  0  0  0  0  0  0  0  0  0
    4.4549    7.1009  -13.8724 C   0  0  0  0  0  0  0  0  0  0  0  0
    3.4109    7.9888  -14.0115 C   0  0  0  0  0  0  0  0  0  0  0  0
    5.8680    7.1407  -14.9146 Cl  0  0  0  0  0  0  0  0  0  0  0  0
    0.8796    6.8714  -11.1160 Cl  0  0  0  0  0  0  0  0  0  0  0  0
    3.4709    8.9962  -15.0430 C   0  0  0  0  0  0  0  0  0  0  0  0
    4.2998    9.9467  -15.0106 O   0  0  0  0  0  0  0  0  0  0  0  0
    2.5969    8.9480  -16.1266 O   0  0  0  0  0  0  0  0  0  0  0  0
  1  2  1  0  0  0
  2  3  2  0  0  0
  2  7  1  0  0  0
  3  4  1  0  0  0
  3 20  1  0  0  0
  4  5  2  0  0  0
  4 10  1  0  0  0
  5  6  1  0  0  0
  6  7  2  0  0  0
  6  9  1  0  0  0
  7  8  1  0  0  0
 10 11  2  0  0  0
 10 21  1  0  0  0
 11 12  1  0  0  0
 11 17  1  0  0  0
 12 13  2  0  0  0
 12 20  1  0  0  0
 13 14  1  0  0  0
 13 19  1  0  0  0
 14 15  2  0  0  0
 14 16  1  0  0  0
 16 17  2  0  0  0
 16 18  1  0  0  0
 21 22  2  0  0  0
 21 26  1  0  0  0
 22 23  1  0  0  0
 22 28  1  0  0  0
 23 24  2  0  0  0
 24 25  1  0  0  0
 25 26  2  0  0  0
 25 27  1  0  0  0
 26 29  1  0  0  0
 29 30  2  0  0  0
 29 31  1  0  0  0
M  CHG 1   8  -1
M  END
> <minimizedAffinity>
-8.38791

$$$$
971


 29 33  0  0  0  0  0  0  0  0999 V2000
   -1.3135    4.5172  -12.6439 Br  0  0  0  0  0  0  0  0  0  0  0  0
   -0.9030    6.2956  -13.1974 C   0  0  0  0  0  0  0  0  0  0  0  0
    0.4274    6.7269  -13.3544 C   0  0  0  0  0  0  0  0  0  0  0  0
    0.7624    7.9888  -13.7477 C   0  0  0  0  0  0  0  0  0  0  0  0
   -0.2796    8.8828  -14.0031 C   0  0  0  0  0  0  0  0  0  0  0  0
   -1.5684    8.4650  -13.8506 C   0  0  0  0  0  0  0  0  0  0  0  0
   -1.9139    7.1894  -13.4537 C   0  0  0  0  0  0  0  0  0  0  0  0
   -3.2651    6.8285  -13.3180 O   0  0  0  0  0  0  0  0  0  0  0  0
   -2.9980    9.6799  -14.1978 Br  0  0  0  0  0  0  0  0  0  0  0  0
    2.1497    8.4059  -13.9020 C   0  0  0  0  0  0  0  0  0  0  0  0
    2.3265    8.7303  -15.2796 O   0  0  0  0  0  0  0  0  0  0  0  0
    2.6885   10.0374  -15.4583 C   0  0  0  0  0  0  0  0  0  0  0  0
    2.9090   10.5884  -16.5608 O   0  0  0  0  0  0  0  0  0  0  0  0
    2.7577   10.6163  -14.1306 C   0  0  0  0  0  0  0  0  0  0  0  0
    2.4429    9.6753  -13.1768 C   0  0  0  0  0  0  0  0  0  0  0  0
    2.4601   10.0528  -11.8745 C   0  0  0  0  0  0  0  0  0  0  0  0
    2.7858   11.3498  -11.5369 C   0  0  0  0  0  0  0  0  0  0  0  0
    3.1011   12.2955  -12.4892 C   0  0  0  0  0  0  0  0  0  0  0  0
    3.0892   11.9292  -13.8092 C   0  0  0  0  0  0  0  0  0  0  0  0
    3.1171    7.3569  -13.5974 C   0  0  0  0  0  0  0  0  0  0  0  0
    2.7192    6.1084  -13.2070 C   0  0  0  0  0  0  0  0  0  0  0  0
    3.6685    5.1071  -12.9168 C   0  0  0  0  0  0  0  0  0  0  0  0
    5.0053    5.4080  -13.0340 C   0  0  0  0  0  0  0  0  0  0  0  0
    5.4169    6.6723  -13.4298 C   0  0  0  0  0  0  0  0  0  0  0  0
    4.4910    7.6380  -13.7088 C   0  0  0  0  0  0  0  0  0  0  0  0
    7.2652    7.1038  -13.5965 Br  0  0  0  0  0  0  0  0  0  0  0  0
    5.9282    4.4140  -12.7461 O   0  0  0  0  0  0  0  0  0  0  0  0
    3.0725    3.3723  -12.3734 Br  0  0  0  0  0  0  0  0  0  0  0  0
    1.3853    5.7496  -13.0729 O   0  0  0  0  0  0  0  0  0  0  0  0
  1  2  1  0  0  0
  2  3  2  0  0  0
  2  7  1  0  0  0
  3  4  1  0  0  0
  3 29  1  0  0  0
  4  5  2  0  0  0
  4 10  1  0  0  0
  5  6  1  0  0  0
  6  7  2  0  0  0
  6  9  1  0  0  0
  7  8  1  0  0  0
 10 11  1  0  0  0
 10 15  1  0  0  0
 10 20  1  0  0  0
 11 12  1  0  0  0
 12 13  2  0  0  0
 12 14  1  0  0  0
 14 15  2  0  0  0
 14 19  1  0  0  0
 15 16  1  0  0  0
 16 17  2  0  0  0
 17 18  1  0  0  0
 18 19  2  0  0  0
 20 21  2  0  0  0
 20 25  1  0  0  0
 21 22  1  0  0  0
 21 29  1  0  0  0
 22 23  2  0  0  0
 22 28  1  0  0  0
 23 24  1  0  0  0
 23 27  1  0  0  0
 24 25  2  0  0  0
 24 26  1  0  0  0
M  CHG 1   8  -1
M  CHG 1  27  -1
M  END
> <minimizedAffinity>
-3.80677

$$$$
978


 33 37  0  0  0  0  0  0  0  0999 V2000
    2.9751    2.9399  -12.5542 I   0  0  0  0  0  0  0  0  0  0  0  0
    3.6233    4.8954  -13.0183 C   0  0  0  0  0  0  0  0  0  0  0  0
    2.6405    5.8459  -13.2751 C   0  0  0  0  0  0  0  0  0  0  0  0
    3.0267    7.1111  -13.5761 C   0  0  0  0  0  0  0  0  0  0  0  0
    4.3900    7.4141  -13.6180 C   0  0  0  0  0  0  0  0  0  0  0  0
    5.3703    6.4797  -13.3651 C   0  0  0  0  0  0  0  0  0  0  0  0
    4.9693    5.1949  -13.0593 C   0  0  0  0  0  0  0  0  0  0  0  0
    5.9395    4.2374  -12.8016 O   0  0  0  0  0  0  0  0  0  0  0  0
    7.4262    6.9905  -13.4418 I   0  0  0  0  0  0  0  0  0  0  0  0
    2.0856    8.1784  -13.8608 C   0  0  0  0  0  0  0  0  0  0  0  0
    2.2890    8.7185  -15.1748 O   0  0  0  0  0  0  0  0  0  0  0  0
    2.5510   10.0629  -15.1463 C   0  0  0  0  0  0  0  0  0  0  0  0
    2.7787   10.8612  -16.1005 O   0  0  0  0  0  0  0  0  0  0  0  0
    2.5239   10.4535  -13.7442 C   0  0  0  0  0  0  0  0  0  0  0  0
    2.2519    9.3530  -12.9893 C   0  0  0  0  0  0  0  0  0  0  0  0
    2.1689    9.4536  -11.6006 C   0  0  0  0  0  0  0  0  0  0  0  0
    2.3583   10.6605  -10.9622 C   0  0  0  0  0  0  0  0  0  0  0  0
    2.6363   11.7840  -11.7362 C   0  0  0  0  0  0  0  0  0  0  0  0
    2.7183   11.6887  -13.1021 C   0  0  0  0  0  0  0  0  0  0  0  0
    3.0634   13.0882  -14.0457 Cl  0  0  0  0  0  0  0  0  0  0  0  0
    2.8853   13.3383  -10.9911 Cl  0  0  0  0  0  0  0  0  0  0  0  0
    2.2460   10.7503   -9.2198 Cl  0  0  0  0  0  0  0  0  0  0  0  0
    1.8191    8.0146  -10.7020 Cl  0  0  0  0  0  0  0  0  0  0  0  0
    0.6740    7.7142  -13.7805 C   0  0  0  0  0  0  0  0  0  0  0  0
    0.3242    6.4431  -13.4772 C   0  0  0  0  0  0  0  0  0  0  0  0
   -1.0358    6.1425  -13.4363 C   0  0  0  0  0  0  0  0  0  0  0  0
   -2.0158    7.0757  -13.6886 C   0  0  0  0  0  0  0  0  0  0  0  0
   -1.6215    8.3628  -13.9945 C   0  0  0  0  0  0  0  0  0  0  0  0
   -0.2922    8.6937  -14.0448 C   0  0  0  0  0  0  0  0  0  0  0  0
   -3.0976    9.8136  -14.3858 I   0  0  0  0  0  0  0  0  0  0  0  0
   -3.3539    6.7804  -13.6478 O   0  0  0  0  0  0  0  0  0  0  0  0
   -1.5916    4.1738  -12.9666 I   0  0  0  0  0  0  0  0  0  0  0  0
    1.2814    5.4792  -13.2178 O   0  0  0  0  0  0  0  0  0  0  0  0
  1  2  1  0  0  0
  2  3  2  0  0  0
  2  7  1  0  0  0
  3  4  1  0  0  0
  3 33  1  0  0  0
  4  5  2  0  0  0
  4 10  1  0  0  0
  5  6  1  0  0  0
  6  7  2  0  0  0
  6  9  1  0  0  0
  7  8  1  0  0  0
 10 11  1  0  0  0
 10 15  1  0  0  0
 10 24  1  0  0  0
 11 12  1  0  0  0
 12 13  2  0  0  0
 12 14  1  0  0  0
 14 15  2  0  0  0
 14 19  1  0  0  0
 15 16  1  0  0  0
 16 17  2  0  0  0
 16 23  1  0  0  0
 17 18  1  0  0  0
 17 22  1  0  0  0
 18 19  2  0  0  0
 18 21  1  0  0  0
 19 20  1  0  0  0
 24 25  2  0  0  0
 24 29  1  0  0  0
 25 26  1  0  0  0
 25 33  1  0  0  0
 26 27  2  0  0  0
 26 32  1  0  0  0
 27 28  1  0  0  0
 27 31  1  0  0  0
 28 29  2  0  0  0
 28 30  1  0  0  0
M  CHG 1   8  -1
M  CHG 1  31  -1
M  END
> <minimizedAffinity>
9.33368

$$$$
979


 29 33  0  0  0  0  0  0  0  0999 V2000
    3.2385    3.2217  -12.2429 I   0  0  0  0  0  0  0  0  0  0  0  0
    3.8822    5.1083  -12.9617 C   0  0  0  0  0  0  0  0  0  0  0  0
    2.8702    6.0345  -13.2664 C   0  0  0  0  0  0  0  0  0  0  0  0
    3.2571    7.2523  -13.7291 C   0  0  0  0  0  0  0  0  0  0  0  0
    4.6281    7.5265  -13.8803 C   0  0  0  0  0  0  0  0  0  0  0  0
    5.6135    6.6219  -13.5820 C   0  0  0  0  0  0  0  0  0  0  0  0
    5.2208    5.3879  -13.1124 C   0  0  0  0  0  0  0  0  0  0  0  0
    6.1921    4.4476  -12.8009 O   0  0  0  0  0  0  0  0  0  0  0  0
    7.6627    7.1024  -13.8327 I   0  0  0  0  0  0  0  0  0  0  0  0
    2.2756    8.2873  -14.0756 C   0  0  0  0  0  0  0  0  0  0  0  0
    2.4759    8.7841  -15.3849 O   0  0  0  0  0  0  0  0  0  0  0  0
    2.7501   10.1264  -15.3990 C   0  0  0  0  0  0  0  0  0  0  0  0
    2.9770   10.8767  -16.3852 O   0  0  0  0  0  0  0  0  0  0  0  0
    2.7376   10.5802  -14.0153 C   0  0  0  0  0  0  0  0  0  0  0  0
    2.4612    9.5077  -13.2307 C   0  0  0  0  0  0  0  0  0  0  0  0
    2.3952    9.6984  -11.8455 C   0  0  0  0  0  0  0  0  0  0  0  0
    2.6079   10.9464  -11.3068 C   0  0  0  0  0  0  0  0  0  0  0  0
    2.8901   12.0369  -12.1018 C   0  0  0  0  0  0  0  0  0  0  0  0
    2.9567   11.8619  -13.4629 C   0  0  0  0  0  0  0  0  0  0  0  0
    0.8813    7.8605  -13.8677 C   0  0  0  0  0  0  0  0  0  0  0  0
    0.5601    6.6319  -13.4026 C   0  0  0  0  0  0  0  0  0  0  0  0
   -0.7793    6.2968  -13.2320 C   0  0  0  0  0  0  0  0  0  0  0  0
   -1.7664    7.1943  -13.5274 C   0  0  0  0  0  0  0  0  0  0  0  0
   -1.4760    8.4527  -14.0011 C   0  0  0  0  0  0  0  0  0  0  0  0
   -0.1526    8.7583  -14.1617 C   0  0  0  0  0  0  0  0  0  0  0  0
   -3.0080    9.8373  -14.4564 I   0  0  0  0  0  0  0  0  0  0  0  0
   -3.0956    6.8340  -13.3463 O   0  0  0  0  0  0  0  0  0  0  0  0
   -1.2746    4.3630  -12.5006 I   0  0  0  0  0  0  0  0  0  0  0  0
    1.5336    5.6709  -13.0847 O   0  0  0  0  0  0  0  0  0  0  0  0
  1  2  1  0  0  0
  2  3  2  0  0  0
  2  7  1  0  0  0
  3  4  1  0  0  0
  3 29  1  0  0  0
  4  5  2  0  0  0
  4 10  1  0  0  0
  5  6  1  0  0  0
  6  7  2  0  0  0
  6  9  1  0  0  0
  7  8  1  0  0  0
 10 11  1  0  0  0
 10 15  1  0  0  0
 10 20  1  0  0  0
 11 12  1  0  0  0
 12 13  2  0  0  0
 12 14  1  0  0  0
 14 15  2  0  0  0
 14 19  1  0  0  0
 15 16  1  0  0  0
 16 17  2  0  0  0
 17 18  1  0  0  0
 18 19  2  0  0  0
 20 21  2  0  0  0
 20 25  1  0  0  0
 21 22  1  0  0  0
 21 29  1  0  0  0
 22 23  2  0  0  0
 22 28  1  0  0  0
 23 24  1  0  0  0
 23 27  1  0  0  0
 24 25  2  0  0  0
 24 26  1  0  0  0
M  CHG 1   8  -1
M  CHG 1  27  -1
M  END
> <minimizedAffinity>
0.36405

$$$$
980


 27 30  0  0  0  0  0  0  0  0999 V2000
   -3.4556   10.2391  -14.0277 I   0  0  0  0  0  0  0  0  0  0  0  0
   -1.8801    8.8402  -14.0341 C   0  0  0  0  0  0  0  0  0  0  0  0
   -0.5761    9.1886  -13.7432 C   0  0  0  0  0  0  0  0  0  0  0  0
    0.4577    8.2769  -13.7467 C   0  0  0  0  0  0  0  0  0  0  0  0
    0.1508    6.9651  -14.0578 C   0  0  0  0  0  0  0  0  0  0  0  0
   -1.1561    6.6060  -14.3517 C   0  0  0  0  0  0  0  0  0  0  0  0
   -2.1918    7.5319  -14.3466 C   0  0  0  0  0  0  0  0  0  0  0  0
   -3.4861    7.1167  -14.6489 O   0  0  0  0  0  0  0  0  0  0  0  0
    1.7666    8.6055  -13.4577 C   0  0  0  0  0  0  0  0  0  0  0  0
    2.0008    9.9434  -13.1541 C   0  0  0  0  0  0  0  0  0  0  0  0
    0.8793   10.8785  -13.1612 C   0  0  0  0  0  0  0  0  0  0  0  0
    1.1745   12.1896  -12.8516 C   0  0  0  0  0  0  0  0  0  0  0  0
    2.4484   12.6207  -12.5488 C   0  0  0  0  0  0  0  0  0  0  0  0
    2.6996   13.8297  -12.2670 O   0  0  0  0  0  0  0  0  0  0  0  0
    3.5098   11.7369  -12.5422 C   0  0  0  0  0  0  0  0  0  0  0  0
    3.2471   10.4162  -12.8474 C   0  0  0  0  0  0  0  0  0  0  0  0
   -0.3747   13.6099  -12.8355 I   0  0  0  0  0  0  0  0  0  0  0  0
   -0.3202   10.4388  -13.4528 O   0  0  0  0  0  0  0  0  0  0  0  0
    2.8633    7.6434  -13.4606 C   0  0  0  0  0  0  0  0  0  0  0  0
    2.8143    6.5813  -12.5630 C   0  0  0  0  0  0  0  0  0  0  0  0
    3.8206    5.6524  -12.5292 C   0  0  0  0  0  0  0  0  0  0  0  0
    4.8885    5.7743  -13.3907 C   0  0  0  0  0  0  0  0  0  0  0  0
    4.9605    6.8158  -14.2891 C   0  0  0  0  0  0  0  0  0  0  0  0
    3.9376    7.7376  -14.3059 C   0  0  0  0  0  0  0  0  0  0  0  0
    1.6874    6.4423  -11.6452 C   0  0  0  0  0  0  0  0  0  0  0  0
    1.4095    7.2977  -10.7757 O   0  0  0  0  0  0  0  0  0  0  0  0
    0.8636    5.3272  -11.7041 O   0  0  0  0  0  0  0  0  0  0  0  0
  1  2  1  0  0  0
  2  3  2  0  0  0
  2  7  1  0  0  0
  3  4  1  0  0  0
  3 18  1  0  0  0
  4  5  2  0  0  0
  4  9  1  0  0  0
  5  6  1  0  0  0
  6  7  2  0  0  0
  7  8  1  0  0  0
  9 10  2  0  0  0
  9 19  1  0  0  0
 10 11  1  0  0  0
 10 16  1  0  0  0
 11 12  2  0  0  0
 11 18  1  0  0  0
 12 13  1  0  0  0
 12 17  1  0  0  0
 13 14  2  0  0  0
 13 15  1  0  0  0
 15 16  2  0  0  0
 19 20  2  0  0  0
 19 24  1  0  0  0
 20 21  1  0  0  0
 20 25  1  0  0  0
 21 22  2  0  0  0
 22 23  1  0  0  0
 23 24  2  0  0  0
 25 26  2  0  0  0
 25 27  1  0  0  0
M  CHG 1   8  -1
M  END
> <minimizedAffinity>
-9.49486

$$$$
983


 34 37  0  0  0  0  0  0  0  0999 V2000
    1.9560    6.8446  -12.8585 C   0  0  0  0  0  0  0  0  0  0  0  0
    3.0088    5.9217  -12.9202 C   0  0  0  0  0  0  0  0  0  0  0  0
    4.0993    6.6598  -13.3242 C   0  0  0  0  0  0  0  0  0  0  0  0
    3.7155    7.9334  -13.4896 N   0  0  0  0  0  0  0  0  0  0  0  0
    2.3865    8.0968  -13.2090 C   0  0  0  0  0  0  0  0  0  0  0  0
    5.3209    6.0102  -13.4808 C   0  0  0  0  0  0  0  0  0  0  0  0
    5.4066    4.6682  -13.2308 C   0  0  0  0  0  0  0  0  0  0  0  0
    4.3025    3.9142  -12.8210 C   0  0  0  0  0  0  0  0  0  0  0  0
    3.0776    4.5703  -12.6648 C   0  0  0  0  0  0  0  0  0  0  0  0
    4.4868    2.0536  -12.4901 Br  0  0  0  0  0  0  0  0  0  0  0  0
    6.8377    6.9994  -14.0354 Br  0  0  0  0  0  0  0  0  0  0  0  0
    4.3456    8.7273  -13.7975 H   0  0  0  0  0  0  0  0  0  0  0  0
    1.6668    9.3643  -13.2506 C   0  0  0  0  0  0  0  0  0  0  0  0
    0.3093    9.4388  -13.3163 N   0  0  0  0  0  0  0  0  0  0  0  0
   -0.0952   10.7179  -13.3591 C   0  0  0  0  0  0  0  0  0  0  0  0
    1.0115   11.5374  -13.3227 C   0  0  0  0  0  0  0  0  0  0  0  0
    2.0954   10.6545  -13.2567 C   0  0  0  0  0  0  0  0  0  0  0  0
    0.9102   12.9132  -13.3521 C   0  0  0  0  0  0  0  0  0  0  0  0
   -0.3319   13.5245  -13.4217 C   0  0  0  0  0  0  0  0  0  0  0  0
   -1.4552   12.7138  -13.4587 C   0  0  0  0  0  0  0  0  0  0  0  0
   -1.3338   11.3401  -13.4278 C   0  0  0  0  0  0  0  0  0  0  0  0
   -2.9203   10.2841  -13.4820 Br  0  0  0  0  0  0  0  0  0  0  0  0
   -0.4972   15.4338  -13.4647 Br  0  0  0  0  0  0  0  0  0  0  0  0
   -0.3553    8.6341  -13.3321 H   0  0  0  0  0  0  0  0  0  0  0  0
    3.4057   11.0950  -13.2112 O   0  0  0  0  0  0  0  0  0  0  0  0
    3.9030   12.3781  -12.2043 S   0  0  0  0  0  0  0  0  0  0  0  0
    5.2693   12.1186  -11.6395 O   0  0  0  0  0  0  0  0  0  0  0  0
    2.9673   12.5700  -11.0446 O   0  0  0  0  0  0  0  0  0  0  0  0
    3.8714   13.8296  -13.0838 O   0  0  0  0  0  0  0  0  0  0  0  0
    0.6649    6.4865  -12.4867 O   0  0  0  0  0  0  0  0  0  0  0  0
   -0.5953    6.3854  -13.6415 S   0  0  0  0  0  0  0  0  0  0  0  0
   -1.7316    7.2154  -13.1112 O   0  0  0  0  0  0  0  0  0  0  0  0
   -0.1548    6.9473  -14.9707 O   0  0  0  0  0  0  0  0  0  0  0  0
   -1.1434    4.8045  -13.8055 O   0  0  0  0  0  0  0  0  0  0  0  0
 31 32  2  0  0  0
 31 33  2  0  0  0
 31 34  1  0  0  0
 31 30  1  0  0  0
 30  1  1  0  0  0
  1  2  1  0  0  0
  1  5  2  0  0  0
  2  3  2  0  0  0
  2  9  1  0  0  0
  3  4  1  0  0  0
  3  6  1  0  0  0
  4  5  1  0  0  0
  5 13  1  0  0  0
 13 14  1  0  0  0
 13 17  2  0  0  0
 14 15  1  0  0  0
 15 16  2  0  0  0
 15 21  1  0  0  0
 16 17  1  0  0  0
 16 18  1  0  0  0
 17 25  1  0  0  0
 25 26  1  0  0  0
 26 27  2  0  0  0
 26 28  2  0  0  0
 26 29  1  0  0  0
 18 19  2  0  0  0
 19 20  1  0  0  0
 19 23  1  0  0  0
 20 21  2  0  0  0
 21 22  1  0  0  0
  6  7  2  0  0  0
  6 11  1  0  0  0
  7  8  1  0  0  0
  8  9  2  0  0  0
  8 10  1  0  0  0
  4 12  1  0  0  0
 14 24  1  0  0  0
M  END
> <minimizedAffinity>
-8.11319

$$$$
985


 28 31  0  0  0  0  0  0  0  0999 V2000
    1.4134   10.1262  -13.8999 N   0  0  0  0  0  0  0  0  0  0  0  0
    0.2378    9.4898  -13.8370 C   0  0  0  0  0  0  0  0  0  0  0  0
   -1.0070    9.9155  -13.4873 N   0  0  0  0  0  0  0  0  0  0  0  0
   -2.0752    9.1230  -13.4859 C   0  0  0  0  0  0  0  0  0  0  0  0
   -1.9196    7.8363  -13.8466 N   0  0  0  0  0  0  0  0  0  0  0  0
   -0.7140    7.3489  -14.2052 C   0  0  0  0  0  0  0  0  0  0  0  0
    0.3952    8.1688  -14.2075 C   0  0  0  0  0  0  0  0  0  0  0  0
    1.6963    8.0205  -14.4967 N   0  0  0  0  0  0  0  0  0  0  0  0
    2.3111    9.2117  -14.3083 C   0  0  0  0  0  0  0  0  0  0  0  0
    4.1737    9.5728  -14.5743 Br  0  0  0  0  0  0  0  0  0  0  0  0
   -0.5484    6.0188  -14.5798 O   0  0  0  0  0  0  0  0  0  0  0  0
   -3.3585    9.6158  -13.1109 N   0  0  0  0  0  0  0  0  0  0  0  0
   -1.2541    5.6443  -15.2316 H   0  0  0  0  0  0  0  0  0  0  0  0
   -3.6647    9.4219  -12.1331 H   0  0  0  0  0  0  0  0  0  0  0  0
   -3.9744   10.1476  -13.7757 H   0  0  0  0  0  0  0  0  0  0  0  0
    1.8120   15.5544  -12.3015 P   0  0  0  0  0  0  0  0  0  0  0  0
    2.8569   15.8535  -13.3538 O   0  0  0  0  0  0  0  0  0  0  0  0
    0.5804   14.5538  -12.9296 O   0  0  0  0  0  0  0  0  0  0  0  0
    0.7329   13.3137  -12.3143 C   0  0  0  0  0  0  0  0  0  0  0  0
    2.2444   13.0638  -12.2448 C   0  0  0  0  0  0  0  0  0  0  0  0
    2.3079   11.7007  -12.3964 O   0  0  0  0  0  0  0  0  0  0  0  0
    1.5800   11.5207  -13.5722 C   0  0  0  0  0  0  0  0  0  0  0  0
    0.2538   12.1755  -13.1902 C   0  0  0  0  0  0  0  0  0  0  0  0
   -0.4640   12.5932  -14.2825 O   0  0  0  0  0  0  0  0  0  0  0  0
    2.7398   13.5848  -10.9486 C   0  0  0  0  0  0  0  0  0  0  0  0
    2.4558   14.9533  -10.8861 O   0  0  0  0  0  0  0  0  0  0  0  0
    1.0562   17.0491  -11.9502 O   0  0  0  0  0  0  0  0  0  0  0  0
   -1.4336   12.3339  -14.1752 H   0  0  0  0  0  0  0  0  0  0  0  0
 16 17  2  0  0  0
 16 18  1  0  0  0
 16 26  1  0  0  0
 16 27  1  0  0  0
 18 19  1  0  0  0
 19 20  1  0  0  0
 19 23  1  0  0  0
 20 21  1  0  0  0
 20 25  1  0  0  0
 21 22  1  0  0  0
 22 23  1  0  0  0
 22  1  1  0  0  0
 23 24  1  0  0  0
  1  2  1  0  0  0
  1  9  1  0  0  0
  2  3  2  0  0  0
  2  7  1  0  0  0
  3  4  1  0  0  0
  4  5  2  0  0  0
  4 12  1  0  0  0
  5  6  1  0  0  0
  6  7  2  0  0  0
  6 11  1  0  0  0
  7  8  1  0  0  0
  8  9  2  0  0  0
  9 10  1  0  0  0
 25 26  1  0  0  0
 24 28  1  0  0  0
 11 13  1  0  0  0
 12 14  1  0  0  0
 12 15  1  0  0  0
M  END
> <minimizedAffinity>
-7.15297

$$$$
991


 34 39  0  0  0  0  0  0  0  0999 V2000
   -1.3516    7.8706  -13.6183 N   0  0  0  0  0  0  0  0  0  0  0  0
   -2.6165    8.2362  -13.9452 C   0  0  0  0  0  0  0  0  0  0  0  0
   -3.2960    7.1799  -14.5137 C   0  0  0  0  0  0  0  0  0  0  0  0
   -2.4140    6.1586  -14.5259 N   0  0  0  0  0  0  0  0  0  0  0  0
   -1.2517    6.5817  -13.9885 C   0  0  0  0  0  0  0  0  0  0  0  0
    0.3489    5.5622  -13.7498 Br  0  0  0  0  0  0  0  0  0  0  0  0
   -4.6050    7.3509  -14.9176 C   0  0  0  0  0  0  0  0  0  0  0  0
   -5.2312    6.3993  -15.4340 O   0  0  0  0  0  0  0  0  0  0  0  0
   -5.2554    8.5283  -14.7747 N   0  0  0  0  0  0  0  0  0  0  0  0
   -4.5734    9.5456  -14.2179 C   0  0  0  0  0  0  0  0  0  0  0  0
   -5.4268   10.5847  -14.1899 N   0  0  0  0  0  0  0  0  0  0  0  0
   -6.6249   10.2613  -14.7088 C   0  0  0  0  0  0  0  0  0  0  0  0
   -6.5155    8.9392  -15.0858 C   0  0  0  0  0  0  0  0  0  0  0  0
   -3.2802    9.3968  -13.8131 N   0  0  0  0  0  0  0  0  0  0  0  0
   -2.7551   10.1899  -13.3806 H   0  0  0  0  0  0  0  0  0  0  0  0
    2.7621   11.9126  -12.8908 P   0  0  0  0  0  0  0  0  0  0  0  0
    4.2633   12.5403  -13.4981 S   0  0  0  0  0  0  0  0  0  0  0  0
    2.6961   10.2580  -13.2706 O   0  0  0  0  0  0  0  0  0  0  0  0
    1.4360   10.0257  -13.8140 C   0  0  0  0  0  0  0  0  0  0  0  0
    0.4480   10.7906  -12.9302 C   0  0  0  0  0  0  0  0  0  0  0  0
   -0.6895   10.0325  -12.9690 O   0  0  0  0  0  0  0  0  0  0  0  0
   -0.3141    8.6911  -12.9986 C   0  0  0  0  0  0  0  0  0  0  0  0
    0.9966    8.5970  -13.7001 C   0  0  0  0  0  0  0  0  0  0  0  0
    1.9214    7.8571  -12.9519 O   0  0  0  0  0  0  0  0  0  0  0  0
    0.2960   12.1586  -13.5512 C   0  0  0  0  0  0  0  0  0  0  0  0
    1.5242   12.7716  -13.6543 O   0  0  0  0  0  0  0  0  0  0  0  0
    2.6144   12.1733  -11.2278 O   0  0  0  0  0  0  0  0  0  0  0  0
    2.1873    8.3210  -12.1321 H   0  0  0  0  0  0  0  0  0  0  0  0
   -7.8031   11.1272  -14.8489 C   0  0  0  0  0  0  0  0  0  0  0  0
   -8.4814   11.1880  -16.0452 C   0  0  0  0  0  0  0  0  0  0  0  0
   -9.5990   11.9969  -16.2083 C   0  0  0  0  0  0  0  0  0  0  0  0
  -10.0309   12.7519  -15.1419 C   0  0  0  0  0  0  0  0  0  0  0  0
   -9.3758   12.7198  -13.9206 C   0  0  0  0  0  0  0  0  0  0  0  0
   -8.2737   11.8994  -13.8159 C   0  0  0  0  0  0  0  0  0  0  0  0
 16 17  2  0  0  0
 16 18  1  0  0  0
 16 26  1  0  0  0
 16 27  1  0  0  0
 18 19  1  0  0  0
 19 20  1  0  0  0
 19 23  1  0  0  0
 20 21  1  0  0  0
 20 25  1  0  0  0
 21 22  1  0  0  0
 22 23  1  0  0  0
 22  1  1  0  0  0
 23 24  1  0  0  0
  1  2  1  0  0  0
  1  5  1  0  0  0
  2  3  2  0  0  0
  2 14  1  0  0  0
  3  4  1  0  0  0
  3  7  1  0  0  0
  4  5  2  0  0  0
  5  6  1  0  0  0
  7  8  2  0  0  0
  7  9  1  0  0  0
  9 10  1  0  0  0
  9 13  1  0  0  0
 10 11  2  0  0  0
 10 14  1  0  0  0
 11 12  1  0  0  0
 12 13  2  0  0  0
 12 29  1  0  0  0
 29 30  2  0  0  0
 29 34  1  0  0  0
 30 31  1  0  0  0
 31 32  2  0  0  0
 32 33  1  0  0  0
 33 34  2  0  0  0
 25 26  1  0  0  0
 24 28  1  0  0  0
 14 15  1  0  0  0
M  END
> <minimizedAffinity>
-9.27904

$$$$
993


 26 29  0  0  0  0  0  0  0  0999 V2000
    1.7107    6.7525  -12.5961 P   0  0  0  0  0  0  0  0  0  0  0  0
    0.2818    6.4502  -11.6404 S   0  0  0  0  0  0  0  0  0  0  0  0
    2.4209    8.2292  -12.1162 O   0  0  0  0  0  0  0  0  0  0  0  0
    1.6047    9.2313  -12.5798 C   0  0  0  0  0  0  0  0  0  0  0  0
    1.5730    9.1677  -14.1128 C   0  0  0  0  0  0  0  0  0  0  0  0
    1.0208   10.4153  -14.3976 O   0  0  0  0  0  0  0  0  0  0  0  0
    1.7296   11.3187  -13.6420 C   0  0  0  0  0  0  0  0  0  0  0  0
    2.1967   10.6156  -12.3927 C   0  0  0  0  0  0  0  0  0  0  0  0
    3.5868   10.4716  -12.4990 O   0  0  0  0  0  0  0  0  0  0  0  0
    0.7284    8.0289  -14.5924 C   0  0  0  0  0  0  0  0  0  0  0  0
    1.3402    6.8448  -14.2223 O   0  0  0  0  0  0  0  0  0  0  0  0
    2.8049    5.5280  -12.2942 O   0  0  0  0  0  0  0  0  0  0  0  0
    4.0680   10.8061  -11.7200 H   0  0  0  0  0  0  0  0  0  0  0  0
    0.9322   12.4574  -13.2275 N   0  0  0  0  0  0  0  0  0  0  0  0
    1.4528   13.6414  -12.8171 C   0  0  0  0  0  0  0  0  0  0  0  0
    2.7327   14.0745  -12.6829 N   0  0  0  0  0  0  0  0  0  0  0  0
    3.0042   15.3202  -12.2468 C   0  0  0  0  0  0  0  0  0  0  0  0
    1.9869   16.1602  -11.9349 N   0  0  0  0  0  0  0  0  0  0  0  0
    0.7061   15.7684  -12.0543 C   0  0  0  0  0  0  0  0  0  0  0  0
    0.4137   14.4928  -12.5012 C   0  0  0  0  0  0  0  0  0  0  0  0
   -0.7333   13.8248  -12.7204 N   0  0  0  0  0  0  0  0  0  0  0  0
   -0.4031   12.5906  -13.1609 C   0  0  0  0  0  0  0  0  0  0  0  0
   -1.6047   11.1731  -13.6440 Br  0  0  0  0  0  0  0  0  0  0  0  0
   -0.3568   16.6674  -11.7214 N   0  0  0  0  0  0  0  0  0  0  0  0
   -0.1568   17.7051  -11.7272 H   0  0  0  0  0  0  0  0  0  0  0  0
   -1.3111   16.3380  -11.4761 H   0  0  0  0  0  0  0  0  0  0  0  0
  1  2  2  0  0  0
  1  3  1  0  0  0
  1 11  1  0  0  0
  1 12  1  0  0  0
  3  4  1  0  0  0
  4  5  1  0  0  0
  4  8  1  0  0  0
  5  6  1  0  0  0
  5 10  1  0  0  0
  6  7  1  0  0  0
  7  8  1  0  0  0
  7 14  1  0  0  0
  8  9  1  0  0  0
 14 15  1  0  0  0
 14 22  1  0  0  0
 15 16  2  0  0  0
 15 20  1  0  0  0
 16 17  1  0  0  0
 17 18  2  0  0  0
 18 19  1  0  0  0
 19 20  2  0  0  0
 19 24  1  0  0  0
 20 21  1  0  0  0
 21 22  2  0  0  0
 22 23  1  0  0  0
 10 11  1  0  0  0
  9 13  1  0  0  0
 24 25  1  0  0  0
 24 26  1  0  0  0
M  END
> <minimizedAffinity>
-6.55170

$$$$
999


 35 38  0  0  0  0  0  0  0  0999 V2000
   -2.0983    7.5759  -14.3748 N   0  0  0  0  0  0  0  0  0  0  0  0
   -3.3926    7.7178  -14.9332 C   0  0  0  0  0  0  0  0  0  0  0  0
   -3.7524    6.8992  -15.8208 O   0  0  0  0  0  0  0  0  0  0  0  0
   -1.8205    8.2706  -13.6363 H   0  0  0  0  0  0  0  0  0  0  0  0
    0.8356    8.3222  -15.5531 S   0  0  0  0  0  0  0  0  0  0  0  0
    0.1942    6.7705  -14.9293 C   0  0  0  0  0  0  0  0  0  0  0  0
    0.1828    6.8307  -13.5021 N   0  0  0  0  0  0  0  0  0  0  0  0
    0.8958    7.7066  -12.6243 C   0  0  0  0  0  0  0  0  0  0  0  0
    1.8826    8.4115  -13.0809 C   0  0  0  0  0  0  0  0  0  0  0  0
    2.3589    8.3756  -14.5402 C   0  0  0  0  0  0  0  0  0  0  0  0
   -0.7543    5.7728  -13.6046 C   0  0  0  0  0  0  0  0  0  0  0  0
   -1.1394    4.7165  -13.0904 O   0  0  0  0  0  0  0  0  0  0  0  0
   -1.2518    6.5211  -14.8303 C   0  0  0  0  0  0  0  0  0  0  0  0
    0.4272    7.7276  -11.2079 C   0  0  0  0  0  0  0  0  0  0  0  0
    1.0799    7.4511  -10.2245 O   0  0  0  0  0  0  0  0  0  0  0  0
   -0.9043    8.1018  -10.9465 O   0  0  0  0  0  0  0  0  0  0  0  0
    2.6855    9.3366  -12.3228 C   0  0  0  0  0  0  0  0  0  0  0  0
    3.2127   10.4703  -12.8444 O   0  0  0  0  0  0  0  0  0  0  0  0
    2.6027   11.7257  -12.7348 C   0  0  0  0  0  0  0  0  0  0  0  0
    1.5169   11.8812  -13.3238 O   0  0  0  0  0  0  0  0  0  0  0  0
    3.2925   12.7644  -11.9338 C   0  0  0  0  0  0  0  0  0  0  0  0
   -4.3121    8.7785  -14.5100 C   0  0  0  0  0  0  0  0  0  0  0  0
   -5.5975    8.8616  -14.6555 O   0  0  0  0  0  0  0  0  0  0  0  0
   -6.0824    9.9508  -14.1536 C   0  0  0  0  0  0  0  0  0  0  0  0
   -5.0113   10.6742  -13.6169 C   0  0  0  0  0  0  0  0  0  0  0  0
   -3.8969    9.9150  -13.8531 C   0  0  0  0  0  0  0  0  0  0  0  0
   -7.5200   10.4076  -14.1234 C   0  0  0  0  0  0  0  0  0  0  0  0
   -8.0832   10.3694  -15.4092 O   0  0  0  0  0  0  0  0  0  0  0  0
   -9.0147   11.2354  -15.9060 C   0  0  0  0  0  0  0  0  0  0  0  0
   -9.7474   11.0241  -17.0707 C   0  0  0  0  0  0  0  0  0  0  0  0
  -10.6651   11.9656  -17.4797 C   0  0  0  0  0  0  0  0  0  0  0  0
  -10.9102   13.1321  -16.7936 C   0  0  0  0  0  0  0  0  0  0  0  0
  -10.1863   13.3503  -15.6340 C   0  0  0  0  0  0  0  0  0  0  0  0
   -9.2594   12.4046  -15.2153 C   0  0  0  0  0  0  0  0  0  0  0  0
  -12.1954   14.4002  -17.4091 Br  0  0  0  0  0  0  0  0  0  0  0  0
  5  6  1  0  0  0
  5 10  1  0  0  0
  6  7  1  0  0  0
  6 13  1  0  0  0
  7  8  1  0  0  0
  7 11  1  0  0  0
  8  9  2  0  0  0
  8 14  1  0  0  0
  9 10  1  0  0  0
  9 17  1  0  0  0
 17 18  1  0  0  0
 18 19  1  0  0  0
 19 20  2  0  0  0
 19 21  1  0  0  0
 14 15  2  0  0  0
 14 16  1  0  0  0
 11 12  2  0  0  0
 11 13  1  0  0  0
 13  1  1  0  0  0
  1  2  1  0  0  0
  2  3  2  0  0  0
  2 22  1  0  0  0
 22 23  1  0  0  0
 22 26  2  0  0  0
 23 24  1  0  0  0
 24 25  2  0  0  0
 24 27  1  0  0  0
 25 26  1  0  0  0
 27 28  1  0  0  0
 28 29  1  0  0  0
 29 30  2  0  0  0
 29 34  1  0  0  0
 30 31  1  0  0  0
 31 32  2  0  0  0
 32 33  1  0  0  0
 32 35  1  0  0  0
 33 34  2  0  0  0
  1  4  1  0  0  0
M  END
> <minimizedAffinity>
-6.43777

$$$$
1001


 26 29  0  0  0  0  0  0  0  0999 V2000
    2.0113   14.8312  -11.9863 P   0  0  0  0  0  0  0  0  0  0  0  0
    1.6503   15.8806  -10.9331 O   0  0  0  0  0  0  0  0  0  0  0  0
    0.5866   14.0810  -12.4605 O   0  0  0  0  0  0  0  0  0  0  0  0
    0.7114   12.7161  -12.4873 C   0  0  0  0  0  0  0  0  0  0  0  0
    2.1546   12.4163  -12.9151 C   0  0  0  0  0  0  0  0  0  0  0  0
    2.1244   11.2041  -13.5375 O   0  0  0  0  0  0  0  0  0  0  0  0
    0.8772   10.9708  -14.0474 C   0  0  0  0  0  0  0  0  0  0  0  0
   -0.0495   12.0481  -13.6014 C   0  0  0  0  0  0  0  0  0  0  0  0
   -0.3586   12.9626  -14.5888 O   0  0  0  0  0  0  0  0  0  0  0  0
    2.9774   12.4761  -11.6684 C   0  0  0  0  0  0  0  0  0  0  0  0
    3.1190   13.7913  -11.2961 O   0  0  0  0  0  0  0  0  0  0  0  0
    2.6811   15.7033  -13.2967 O   0  0  0  0  0  0  0  0  0  0  0  0
   -1.2069   13.4156  -14.4555 H   0  0  0  0  0  0  0  0  0  0  0  0
    0.4572    9.6474  -13.6055 N   0  0  0  0  0  0  0  0  0  0  0  0
    1.2752    8.5964  -13.3629 C   0  0  0  0  0  0  0  0  0  0  0  0
    2.6111    8.4805  -13.4529 N   0  0  0  0  0  0  0  0  0  0  0  0
    3.1930    7.3084  -13.1516 C   0  0  0  0  0  0  0  0  0  0  0  0
    2.4361    6.2656  -12.7640 N   0  0  0  0  0  0  0  0  0  0  0  0
    1.0999    6.3083  -12.6510 C   0  0  0  0  0  0  0  0  0  0  0  0
    0.5019    7.5262  -12.9650 C   0  0  0  0  0  0  0  0  0  0  0  0
   -0.7692    7.9184  -12.9649 N   0  0  0  0  0  0  0  0  0  0  0  0
   -0.7855    9.2057  -13.3547 C   0  0  0  0  0  0  0  0  0  0  0  0
   -2.3389   10.3318  -13.5505 Br  0  0  0  0  0  0  0  0  0  0  0  0
    0.2907    5.2148  -12.2427 N   0  0  0  0  0  0  0  0  0  0  0  0
   -0.0379    4.5349  -12.9910 H   0  0  0  0  0  0  0  0  0  0  0  0
    0.0026    5.0338  -11.2766 H   0  0  0  0  0  0  0  0  0  0  0  0
  1  2  2  0  0  0
  1  3  1  0  0  0
  1 11  1  0  0  0
  1 12  1  0  0  0
  3  4  1  0  0  0
  4  5  1  0  0  0
  4  8  1  0  0  0
  5  6  1  0  0  0
  5 10  1  0  0  0
  6  7  1  0  0  0
  7  8  1  0  0  0
  7 14  1  0  0  0
  8  9  1  0  0  0
 14 15  1  0  0  0
 14 22  1  0  0  0
 15 16  2  0  0  0
 15 20  1  0  0  0
 16 17  1  0  0  0
 17 18  2  0  0  0
 18 19  1  0  0  0
 19 20  2  0  0  0
 19 24  1  0  0  0
 20 21  1  0  0  0
 21 22  2  0  0  0
 22 23  1  0  0  0
 10 11  1  0  0  0
  9 13  1  0  0  0
 24 25  1  0  0  0
 24 26  1  0  0  0
M  END
> <minimizedAffinity>
-7.41288

$$$$
1008


 29 32  0  0  0  0  0  0  0  0999 V2000
    2.4206   10.8489  -12.7804 C   0  0  0  0  0  0  0  0  0  0  0  0
    2.8821   10.6952  -11.6229 O   0  0  0  0  0  0  0  0  0  0  0  0
    3.0912   10.2684  -13.8976 N   0  0  0  0  0  0  0  0  0  0  0  0
    4.3050    9.5027  -13.7115 C   0  0  0  0  0  0  0  0  0  0  0  0
    4.3718    8.2839  -14.5780 C   0  0  0  0  0  0  0  0  0  0  0  0
    2.9531    8.0283  -15.0938 C   0  0  0  0  0  0  0  0  0  0  0  0
    2.6556    9.1678  -16.0441 C   0  0  0  0  0  0  0  0  0  0  0  0
    2.5764   10.4344  -15.2316 C   0  0  0  0  0  0  0  0  0  0  0  0
    4.9023    7.0799  -13.8621 C   0  0  0  0  0  0  0  0  0  0  0  0
    6.2098    6.7496  -13.6958 N   0  0  0  0  0  0  0  0  0  0  0  0
    6.3150    5.6097  -13.0067 C   0  0  0  0  0  0  0  0  0  0  0  0
    5.0264    5.2358  -12.7460 N   0  0  0  0  0  0  0  0  0  0  0  0
    4.1891    6.1162  -13.2585 N   0  0  0  0  0  0  0  0  0  0  0  0
    7.7355    5.2029  -12.7979 C   0  0  0  0  0  0  0  0  0  0  0  0
    8.4720    6.4518  -13.1717 C   0  0  0  0  0  0  0  0  0  0  0  0
    7.5266    7.2559  -14.0388 C   0  0  0  0  0  0  0  0  0  0  0  0
    0.0638   13.7477  -13.0555 C   0  0  0  0  0  0  0  0  0  0  0  0
    1.2097   13.0058  -12.8842 C   0  0  0  0  0  0  0  0  0  0  0  0
    1.2049   11.6168  -12.9611 C   0  0  0  0  0  0  0  0  0  0  0  0
    0.0028   10.9947  -13.2166 C   0  0  0  0  0  0  0  0  0  0  0  0
   -1.1633   11.7398  -13.3907 C   0  0  0  0  0  0  0  0  0  0  0  0
   -1.1396   13.1142  -13.3110 C   0  0  0  0  0  0  0  0  0  0  0  0
   -0.0858    9.1061  -13.3350 Br  0  0  0  0  0  0  0  0  0  0  0  0
    0.1374   15.4814  -12.9467 S   0  0  0  0  0  0  0  0  0  0  0  0
    0.4597   16.0430  -14.3161 O   0  0  0  0  0  0  0  0  0  0  0  0
    1.2222   15.9115  -11.9898 O   0  0  0  0  0  0  0  0  0  0  0  0
   -1.3881   16.1155  -12.4872 N   0  0  0  0  0  0  0  0  0  0  0  0
   -1.3799   16.4735  -11.5016 H   0  0  0  0  0  0  0  0  0  0  0  0
   -2.1340   15.3841  -12.5979 H   0  0  0  0  0  0  0  0  0  0  0  0
 24 25  2  0  0  0
 24 26  2  0  0  0
 24 27  1  0  0  0
 24 17  1  0  0  0
 17 18  2  0  0  0
 17 22  1  0  0  0
 18 19  1  0  0  0
 19 20  2  0  0  0
 19  1  1  0  0  0
 20 21  1  0  0  0
 20 23  1  0  0  0
 21 22  2  0  0  0
  1  2  2  0  0  0
  1  3  1  0  0  0
  3  4  1  0  0  0
  3  8  1  0  0  0
  4  5  1  0  0  0
  5  6  1  0  0  0
  5  9  1  0  0  0
  6  7  1  0  0  0
  7  8  1  0  0  0
  9 10  1  0  0  0
  9 13  2  0  0  0
 10 11  1  0  0  0
 10 16  1  0  0  0
 11 12  2  0  0  0
 11 14  1  0  0  0
 12 13  1  0  0  0
 14 15  1  0  0  0
 15 16  1  0  0  0
 27 28  1  0  0  0
 27 29  1  0  0  0
M  END
> <minimizedAffinity>
-7.76744

$$$$
1011


 29 32  0  0  0  0  0  0  0  0999 V2000
    1.4206    9.2033  -12.9696 C   0  0  0  0  0  0  0  0  0  0  0  0
    1.0034   10.5265  -12.7947 C   0  0  0  0  0  0  0  0  0  0  0  0
    1.8990   11.5654  -12.9241 C   0  0  0  0  0  0  0  0  0  0  0  0
    3.2331   11.3609  -13.2278 C   0  0  0  0  0  0  0  0  0  0  0  0
    3.6506   10.0711  -13.4013 C   0  0  0  0  0  0  0  0  0  0  0  0
    2.7470    9.0111  -13.2716 C   0  0  0  0  0  0  0  0  0  0  0  0
    3.3437    7.2040  -13.5062 Br  0  0  0  0  0  0  0  0  0  0  0  0
    3.9317   12.6754  -13.2837 C   0  0  0  0  0  0  0  0  0  0  0  0
    2.9655   13.5762  -12.4851 C   0  0  0  0  0  0  0  0  0  0  0  0
    1.6749   12.9812  -12.7930 N   0  0  0  0  0  0  0  0  0  0  0  0
    0.4119   13.5962  -12.9562 C   0  0  0  0  0  0  0  0  0  0  0  0
   -0.6250   12.9550  -13.2443 O   0  0  0  0  0  0  0  0  0  0  0  0
    0.3079   15.0642  -12.7803 C   0  0  0  0  0  0  0  0  0  0  0  0
   -1.0487   15.6157  -12.9480 C   0  0  0  0  0  0  0  0  0  0  0  0
    0.0347   15.9410  -13.9469 C   0  0  0  0  0  0  0  0  0  0  0  0
    0.2649    7.9088  -12.8054 S   0  0  0  0  0  0  0  0  0  0  0  0
    0.8418    6.8089  -11.9217 O   0  0  0  0  0  0  0  0  0  0  0  0
   -0.9888    8.3591  -12.1353 O   0  0  0  0  0  0  0  0  0  0  0  0
   -0.0401    7.1695  -14.3308 N   0  0  0  0  0  0  0  0  0  0  0  0
   -0.7287    7.7570  -14.8406 H   0  0  0  0  0  0  0  0  0  0  0  0
   -0.5124    5.8053  -14.2073 C   0  0  0  0  0  0  0  0  0  0  0  0
   -2.0188    5.8917  -14.0127 C   0  0  0  0  0  0  0  0  0  0  0  0
   -2.6773    6.5516  -15.1949 C   0  0  0  0  0  0  0  0  0  0  0  0
   -3.6649    7.4503  -14.7276 N   0  0  0  0  0  0  0  0  0  0  0  0
   -3.3178    8.8264  -14.7174 C   0  0  0  0  0  0  0  0  0  0  0  0
   -4.2403    9.5467  -13.7485 C   0  0  0  0  0  0  0  0  0  0  0  0
   -5.5449    9.1123  -13.8722 O   0  0  0  0  0  0  0  0  0  0  0  0
   -5.8006    8.4563  -15.0704 C   0  0  0  0  0  0  0  0  0  0  0  0
   -5.0131    7.1433  -15.0349 C   0  0  0  0  0  0  0  0  0  0  0  0
 16 17  2  0  0  0
 16 18  2  0  0  0
 16 19  1  0  0  0
 16  1  1  0  0  0
 19 21  1  0  0  0
 21 22  1  0  0  0
 22 23  1  0  0  0
 23 24  1  0  0  0
 24 25  1  0  0  0
 24 29  1  0  0  0
 25 26  1  0  0  0
 26 27  1  0  0  0
 27 28  1  0  0  0
 28 29  1  0  0  0
  1  2  2  0  0  0
  1  6  1  0  0  0
  2  3  1  0  0  0
  3  4  2  0  0  0
  3 10  1  0  0  0
  4  5  1  0  0  0
  4  8  1  0  0  0
  5  6  2  0  0  0
  6  7  1  0  0  0
  8  9  1  0  0  0
  9 10  1  0  0  0
 10 11  1  0  0  0
 11 12  2  0  0  0
 11 13  1  0  0  0
 13 14  1  0  0  0
 13 15  1  0  0  0
 14 15  1  0  0  0
 19 20  1  0  0  0
M  END
> <minimizedAffinity>
-7.68369

$$$$
1027


 32 35  0  0  0  0  0  0  0  0999 V2000
    0.1096   14.1237  -12.4366 S   0  0  0  0  0  0  0  0  0  0  0  0
   -1.3164   13.6952  -12.7840 O   0  0  0  0  0  0  0  0  0  0  0  0
    0.1171   14.1932  -10.9271 O   0  0  0  0  0  0  0  0  0  0  0  0
    1.1520   12.8424  -12.9912 C   0  0  0  0  0  0  0  0  0  0  0  0
    0.5674   11.6243  -13.3606 C   0  0  0  0  0  0  0  0  0  0  0  0
    1.2849   10.5167  -13.7518 C   0  0  0  0  0  0  0  0  0  0  0  0
    2.6613   10.5703  -13.7953 C   0  0  0  0  0  0  0  0  0  0  0  0
    3.2520   11.7569  -13.4380 C   0  0  0  0  0  0  0  0  0  0  0  0
    2.5147   12.8846  -13.0407 C   0  0  0  0  0  0  0  0  0  0  0  0
    3.4483   14.5168  -12.6636 Br  0  0  0  0  0  0  0  0  0  0  0  0
    3.2196    9.2723  -14.2466 C   0  0  0  0  0  0  0  0  0  0  0  0
    1.9964    8.6179  -14.8904 C   0  0  0  0  0  0  0  0  0  0  0  0
    0.8813    9.2069  -14.1568 N   0  0  0  0  0  0  0  0  0  0  0  0
   -0.3427    8.5616  -13.9078 C   0  0  0  0  0  0  0  0  0  0  0  0
   -0.5214    7.3862  -14.3823 O   0  0  0  0  0  0  0  0  0  0  0  0
   -1.4746    9.1189  -13.1291 C   0  0  0  0  0  0  0  0  0  0  0  0
    0.3553   15.6444  -13.0971 N   0  0  0  0  0  0  0  0  0  0  0  0
    0.5808   16.7594  -12.2948 C   0  0  0  0  0  0  0  0  0  0  0  0
   -0.6330   17.4544  -11.8112 C   0  0  0  0  0  0  0  0  0  0  0  0
   -0.6198   18.1102  -10.7418 O   0  0  0  0  0  0  0  0  0  0  0  0
   -1.7952   17.3335  -12.6240 N   0  0  0  0  0  0  0  0  0  0  0  0
   -1.6056   16.8127  -13.9292 C   0  0  0  0  0  0  0  0  0  0  0  0
   -2.4308   17.1413  -14.8272 O   0  0  0  0  0  0  0  0  0  0  0  0
   -0.4832   15.9091  -14.2575 C   0  0  0  0  0  0  0  0  0  0  0  0
   -3.0899   17.7358  -12.1173 C   0  0  0  0  0  0  0  0  0  0  0  0
   -3.5199   19.1033  -12.5225 C   0  0  0  0  0  0  0  0  0  0  0  0
   -4.1270   19.9203  -11.4737 C   0  0  0  0  0  0  0  0  0  0  0  0
   -3.4140   20.3776  -10.4005 C   0  0  0  0  0  0  0  0  0  0  0  0
   -4.0435   21.1340   -9.4522 C   0  0  0  0  0  0  0  0  0  0  0  0
   -5.3934   21.4553   -9.5436 C   0  0  0  0  0  0  0  0  0  0  0  0
   -6.0850   20.9862  -10.6265 C   0  0  0  0  0  0  0  0  0  0  0  0
   -5.4834   20.2236  -11.5980 C   0  0  0  0  0  0  0  0  0  0  0  0
  1  2  2  0  0  0
  1  3  2  0  0  0
  1 17  1  0  0  0
  1  4  1  0  0  0
 17 18  1  0  0  0
 17 24  1  0  0  0
 18 19  1  0  0  0
 19 20  2  0  0  0
 19 21  1  0  0  0
 21 22  1  0  0  0
 21 25  1  0  0  0
 22 23  2  0  0  0
 22 24  1  0  0  0
 25 26  1  0  0  0
 26 27  1  0  0  0
 27 28  2  0  0  0
 27 32  1  0  0  0
 28 29  1  0  0  0
 29 30  2  0  0  0
 30 31  1  0  0  0
 31 32  2  0  0  0
  4  5  2  0  0  0
  4  9  1  0  0  0
  5  6  1  0  0  0
  6  7  2  0  0  0
  6 13  1  0  0  0
  7  8  1  0  0  0
  7 11  1  0  0  0
  8  9  2  0  0  0
  9 10  1  0  0  0
 11 12  1  0  0  0
 12 13  1  0  0  0
 13 14  1  0  0  0
 14 15  2  0  0  0
 14 16  1  0  0  0
M  END
> <minimizedAffinity>
-8.54055

$$$$
1028


 25 28  0  0  0  0  0  0  0  0999 V2000
    1.9625   14.1498  -12.8736 N   0  0  0  0  0  0  0  0  0  0  0  0
    3.1795   13.4643  -12.6223 C   0  0  0  0  0  0  0  0  0  0  0  0
    2.4474   12.2658  -12.1590 C   0  0  0  0  0  0  0  0  0  0  0  0
    1.2204   12.9636  -12.6322 C   0  0  0  0  0  0  0  0  0  0  0  0
    2.7037   11.0327  -12.8779 N   0  0  0  0  0  0  0  0  0  0  0  0
    3.2612   10.8756  -14.0502 N   0  0  0  0  0  0  0  0  0  0  0  0
    3.3171    9.5753  -14.3692 N   0  0  0  0  0  0  0  0  0  0  0  0
    2.7755    8.8632  -13.3658 C   0  0  0  0  0  0  0  0  0  0  0  0
    2.3898    9.8076  -12.4251 C   0  0  0  0  0  0  0  0  0  0  0  0
    2.6174    7.3730  -13.2731 C   0  0  0  0  0  0  0  0  0  0  0  0
    1.2149    7.0625  -13.4815 N   0  0  0  0  0  0  0  0  0  0  0  0
    0.3662    7.6565  -14.4702 C   0  0  0  0  0  0  0  0  0  0  0  0
   -0.9604    6.9623  -14.3495 C   0  0  0  0  0  0  0  0  0  0  0  0
   -0.7950    5.7797  -13.4511 C   0  0  0  0  0  0  0  0  0  0  0  0
    0.4779    6.1102  -12.7208 C   0  0  0  0  0  0  0  0  0  0  0  0
    0.7910    5.6042  -11.6280 O   0  0  0  0  0  0  0  0  0  0  0  0
    1.5400   15.4768  -11.9193 S   0  0  0  0  0  0  0  0  0  0  0  0
    2.6273   16.5087  -12.0114 O   0  0  0  0  0  0  0  0  0  0  0  0
    1.4205   15.1120  -10.4587 O   0  0  0  0  0  0  0  0  0  0  0  0
    0.0473   16.2649  -12.4253 C   0  0  0  0  0  0  0  0  0  0  0  0
   -0.8130   17.5082  -11.6170 S   0  0  0  0  0  0  0  0  0  0  0  0
   -2.1022   17.7109  -12.7188 C   0  0  0  0  0  0  0  0  0  0  0  0
   -1.8151   16.7900  -13.6928 C   0  0  0  0  0  0  0  0  0  0  0  0
   -0.7132   16.0538  -13.5367 C   0  0  0  0  0  0  0  0  0  0  0  0
   -3.5999   18.9202  -12.6428 Br  0  0  0  0  0  0  0  0  0  0  0  0
 17 18  2  0  0  0
 17 19  2  0  0  0
 17  1  1  0  0  0
 17 20  1  0  0  0
  1  2  1  0  0  0
  1  4  1  0  0  0
  2  3  1  0  0  0
  3  4  1  0  0  0
  3  5  1  0  0  0
  5  6  1  0  0  0
  5  9  1  0  0  0
  6  7  2  0  0  0
  7  8  1  0  0  0
  8  9  2  0  0  0
  8 10  1  0  0  0
 10 11  1  0  0  0
 11 12  1  0  0  0
 11 15  1  0  0  0
 12 13  1  0  0  0
 13 14  1  0  0  0
 14 15  1  0  0  0
 15 16  2  0  0  0
 20 21  1  0  0  0
 20 24  2  0  0  0
 21 22  1  0  0  0
 22 23  2  0  0  0
 22 25  1  0  0  0
 23 24  1  0  0  0
M  END
> <minimizedAffinity>
-7.44840

$$$$
1037


 31 34  0  0  0  0  0  0  0  0999 V2000
    0.4785    7.0875  -13.5671 N   0  0  0  0  0  0  0  0  0  0  0  0
   -0.8573    7.5307  -13.3564 C   0  0  0  0  0  0  0  0  0  0  0  0
   -1.1058    8.9587  -13.2045 C   0  0  0  0  0  0  0  0  0  0  0  0
   -0.0575    9.8849  -13.5860 N   0  0  0  0  0  0  0  0  0  0  0  0
    1.2720    9.4207  -13.8384 C   0  0  0  0  0  0  0  0  0  0  0  0
    1.2895    7.9748  -14.3193 C   0  0  0  0  0  0  0  0  0  0  0  0
   -0.3942   11.2327  -13.7222 C   0  0  0  0  0  0  0  0  0  0  0  0
   -1.7247   11.4064  -13.5721 O   0  0  0  0  0  0  0  0  0  0  0  0
    1.2397    6.3457  -12.2476 S   0  0  0  0  0  0  0  0  0  0  0  0
    0.3674    5.2340  -11.7327 O   0  0  0  0  0  0  0  0  0  0  0  0
    1.3906    7.3298  -11.1001 O   0  0  0  0  0  0  0  0  0  0  0  0
    2.7867    5.6161  -12.6236 C   0  0  0  0  0  0  0  0  0  0  0  0
    3.8934    6.4232  -12.8833 C   0  0  0  0  0  0  0  0  0  0  0  0
    5.1329    5.9094  -13.1978 C   0  0  0  0  0  0  0  0  0  0  0  0
    5.3344    4.5495  -13.2702 C   0  0  0  0  0  0  0  0  0  0  0  0
    4.2450    3.7457  -13.0148 C   0  0  0  0  0  0  0  0  0  0  0  0
    2.9917    4.2565  -12.6974 C   0  0  0  0  0  0  0  0  0  0  0  0
    6.5974    4.0150  -13.5937 O   0  0  0  0  0  0  0  0  0  0  0  0
    7.7822    4.7837  -13.3202 C   0  0  0  0  0  0  0  0  0  0  0  0
    7.4952    6.1578  -13.8069 C   0  0  0  0  0  0  0  0  0  0  0  0
    8.3081    6.8066  -14.5041 O   0  0  0  0  0  0  0  0  0  0  0  0
    6.2577    6.7612  -13.4742 N   0  0  0  0  0  0  0  0  0  0  0  0
    6.0977    7.7773  -13.4166 H   0  0  0  0  0  0  0  0  0  0  0  0
    0.3523   12.4300  -13.9786 C   0  0  0  0  0  0  0  0  0  0  0  0
    1.1579   13.0658  -12.9387 C   0  0  0  0  0  0  0  0  0  0  0  0
    0.8215   14.2930  -12.4223 C   0  0  0  0  0  0  0  0  0  0  0  0
    1.5953   14.8863  -11.4253 C   0  0  0  0  0  0  0  0  0  0  0  0
    2.6992   14.2367  -10.9567 C   0  0  0  0  0  0  0  0  0  0  0  0
    3.0448   12.9876  -11.4754 C   0  0  0  0  0  0  0  0  0  0  0  0
    2.2892   12.4129  -12.4473 C   0  0  0  0  0  0  0  0  0  0  0  0
   -0.7217   15.2280  -13.0703 Br  0  0  0  0  0  0  0  0  0  0  0  0
  9 10  2  0  0  0
  9 11  2  0  0  0
  9  1  1  0  0  0
  9 12  1  0  0  0
  1  2  1  0  0  0
  1  6  1  0  0  0
  2  3  1  0  0  0
  3  4  1  0  0  0
  4  5  1  0  0  0
  4  7  1  0  0  0
  5  6  1  0  0  0
  7  8  2  0  0  0
  7 24  1  0  0  0
 24 25  1  0  0  0
 25 26  2  0  0  0
 25 30  1  0  0  0
 26 27  1  0  0  0
 26 31  1  0  0  0
 27 28  2  0  0  0
 28 29  1  0  0  0
 29 30  2  0  0  0
 12 13  2  0  0  0
 12 17  1  0  0  0
 13 14  1  0  0  0
 14 15  2  0  0  0
 14 22  1  0  0  0
 15 16  1  0  0  0
 15 18  1  0  0  0
 16 17  2  0  0  0
 18 19  1  0  0  0
 19 20  1  0  0  0
 20 21  2  0  0  0
 20 22  1  0  0  0
 22 23  1  0  0  0
M  END
> <minimizedAffinity>
-9.65113

$$$$
1040


 34 38  0  0  0  0  0  0  0  0999 V2000
    1.5864    8.6606  -14.3130 S   0  0  0  0  0  0  0  0  0  0  0  0
    0.5801    7.6727  -14.7623 O   0  0  0  0  0  0  0  0  0  0  0  0
    2.4328    8.9524  -15.5574 O   0  0  0  0  0  0  0  0  0  0  0  0
    0.9396   10.1965  -13.8271 C   0  0  0  0  0  0  0  0  0  0  0  0
   -0.4310   10.3924  -13.6078 C   0  0  0  0  0  0  0  0  0  0  0  0
   -0.9385   11.6175  -13.2242 C   0  0  0  0  0  0  0  0  0  0  0  0
   -0.1103   12.7058  -13.0392 C   0  0  0  0  0  0  0  0  0  0  0  0
    1.2280   12.5225  -13.2528 C   0  0  0  0  0  0  0  0  0  0  0  0
    1.7257   11.2823  -13.6388 C   0  0  0  0  0  0  0  0  0  0  0  0
    3.1838   11.2425  -13.8412 C   0  0  0  0  0  0  0  0  0  0  0  0
    3.9090   11.8677  -12.6696 C   0  0  0  0  0  0  0  0  0  0  0  0
    3.2775   13.0637  -12.2587 N   0  0  0  0  0  0  0  0  0  0  0  0
    2.2434   13.5884  -13.0927 C   0  0  0  0  0  0  0  0  0  0  0  0
    3.0938   13.2471  -10.8620 C   0  0  0  0  0  0  0  0  0  0  0  0
   -2.3028   11.4780  -13.0938 O   0  0  0  0  0  0  0  0  0  0  0  0
   -2.6722   10.1993  -13.5270 C   0  0  0  0  0  0  0  0  0  0  0  0
   -1.4688    9.4724  -13.7218 O   0  0  0  0  0  0  0  0  0  0  0  0
   -0.6214   13.9605  -12.6477 O   0  0  0  0  0  0  0  0  0  0  0  0
   -0.6149   15.0309  -13.6031 C   0  0  0  0  0  0  0  0  0  0  0  0
    2.7081    8.0359  -13.1673 N   0  0  0  0  0  0  0  0  0  0  0  0
    4.0275    7.8714  -13.6720 C   0  0  0  0  0  0  0  0  0  0  0  0
    4.2765    6.5262  -14.3417 C   0  0  0  0  0  0  0  0  0  0  0  0
    3.8654    5.4887  -13.4566 N   0  0  0  0  0  0  0  0  0  0  0  0
    2.4097    5.5865  -13.1149 C   0  0  0  0  0  0  0  0  0  0  0  0
    2.2218    6.9074  -12.4489 C   0  0  0  0  0  0  0  0  0  0  0  0
    4.5592    4.4440  -12.8796 C   0  0  0  0  0  0  0  0  0  0  0  0
    3.8391    3.6676  -12.0945 O   0  0  0  0  0  0  0  0  0  0  0  0
    5.9333    4.0467  -12.9805 C   0  0  0  0  0  0  0  0  0  0  0  0
    6.9568    5.0269  -12.9488 N   0  0  0  0  0  0  0  0  0  0  0  0
    7.0421    6.0928  -12.1546 N   0  0  0  0  0  0  0  0  0  0  0  0
    8.1730    6.7712  -12.3849 C   0  0  0  0  0  0  0  0  0  0  0  0
    8.8278    6.0874  -13.3798 C   0  0  0  0  0  0  0  0  0  0  0  0
    8.0715    5.0083  -13.7264 C   0  0  0  0  0  0  0  0  0  0  0  0
   10.5220    6.5669  -14.1552 Br  0  0  0  0  0  0  0  0  0  0  0  0
  1  2  2  0  0  0
  1  3  2  0  0  0
  1 20  1  0  0  0
  1  4  1  0  0  0
 20 21  1  0  0  0
 20 25  1  0  0  0
 21 22  1  0  0  0
 22 23  1  0  0  0
 23 24  1  0  0  0
 23 26  1  0  0  0
 24 25  1  0  0  0
 26 27  2  0  0  0
 26 28  1  0  0  0
 28 29  1  0  0  0
 29 30  1  0  0  0
 29 33  1  0  0  0
 30 31  2  0  0  0
 31 32  1  0  0  0
 32 33  2  0  0  0
 32 34  1  0  0  0
  4  5  2  0  0  0
  4  9  1  0  0  0
  5  6  1  0  0  0
  5 17  1  0  0  0
  6  7  2  0  0  0
  6 15  1  0  0  0
  7  8  1  0  0  0
  7 18  1  0  0  0
  8  9  2  0  0  0
  8 13  1  0  0  0
  9 10  1  0  0  0
 10 11  1  0  0  0
 11 12  1  0  0  0
 12 13  1  0  0  0
 12 14  1  0  0  0
 18 19  1  0  0  0
 15 16  1  0  0  0
 16 17  1  0  0  0
M  END
> <minimizedAffinity>
-6.98195

$$$$
1042


 31 34  0  0  0  0  0  0  0  0999 V2000
    4.9247    7.2247  -13.6296 N   0  0  0  0  0  0  0  0  0  0  0  0
    3.8620    6.8789  -12.8108 C   0  0  0  0  0  0  0  0  0  0  0  0
    2.5450    7.2274  -13.5570 C   0  0  0  0  0  0  0  0  0  0  0  0
    2.5941    8.5892  -14.0110 N   0  0  0  0  0  0  0  0  0  0  0  0
    3.6771    8.9401  -14.9009 C   0  0  0  0  0  0  0  0  0  0  0  0
    4.6239    7.7602  -14.9287 C   0  0  0  0  0  0  0  0  0  0  0  0
    1.6576    9.5719  -13.6377 C   0  0  0  0  0  0  0  0  0  0  0  0
    0.7216    9.2613  -12.8665 O   0  0  0  0  0  0  0  0  0  0  0  0
    6.4925    6.7650  -13.3564 S   0  0  0  0  0  0  0  0  0  0  0  0
    7.3345    7.1897  -14.5672 O   0  0  0  0  0  0  0  0  0  0  0  0
    7.1295    7.5503  -12.2057 O   0  0  0  0  0  0  0  0  0  0  0  0
    6.8274    5.0759  -13.1340 C   0  0  0  0  0  0  0  0  0  0  0  0
    8.0186    4.5290  -12.7380 C   0  0  0  0  0  0  0  0  0  0  0  0
    8.2002    3.1450  -12.6385 C   0  0  0  0  0  0  0  0  0  0  0  0
    7.2014    2.2704  -12.9298 C   0  0  0  0  0  0  0  0  0  0  0  0
    5.9967    2.7855  -13.3264 C   0  0  0  0  0  0  0  0  0  0  0  0
    5.8141    4.1440  -13.4263 C   0  0  0  0  0  0  0  0  0  0  0  0
    9.4461    5.6769  -12.2439 Br  0  0  0  0  0  0  0  0  0  0  0  0
    1.7624   10.9444  -14.1356 C   0  0  0  0  0  0  0  0  0  0  0  0
    2.1681   11.8503  -13.0643 N   0  0  0  0  0  0  0  0  0  0  0  0
    3.3167   11.8202  -12.2425 C   0  0  0  0  0  0  0  0  0  0  0  0
    4.2407   10.9447  -12.3081 O   0  0  0  0  0  0  0  0  0  0  0  0
    3.2365   12.9291  -11.3556 N   0  0  0  0  0  0  0  0  0  0  0  0
    2.3223   13.8733  -11.9430 C   0  0  0  0  0  0  0  0  0  0  0  0
    2.9810   14.8806  -12.8279 C   0  0  0  0  0  0  0  0  0  0  0  0
    1.8794   15.9390  -12.9654 C   0  0  0  0  0  0  0  0  0  0  0  0
    1.2366   15.9690  -11.6061 C   0  0  0  0  0  0  0  0  0  0  0  0
    1.6168   14.7092  -10.9005 C   0  0  0  0  0  0  0  0  0  0  0  0
    1.3791   12.9917  -12.6712 C   0  0  0  0  0  0  0  0  0  0  0  0
    0.1652   13.2034  -12.8905 O   0  0  0  0  0  0  0  0  0  0  0  0
    3.7795   12.9693  -10.4575 H   0  0  0  0  0  0  0  0  0  0  0  0
  9 10  2  0  0  0
  9 11  2  0  0  0
  9  1  1  0  0  0
  9 12  1  0  0  0
  1  2  1  0  0  0
  1  6  1  0  0  0
  2  3  1  0  0  0
  3  4  1  0  0  0
  4  5  1  0  0  0
  4  7  1  0  0  0
  5  6  1  0  0  0
  7  8  2  0  0  0
  7 19  1  0  0  0
 19 20  1  0  0  0
 20 21  1  0  0  0
 20 29  1  0  0  0
 21 22  2  0  0  0
 21 23  1  0  0  0
 23 24  1  0  0  0
 24 25  1  0  0  0
 24 28  1  0  0  0
 24 29  1  0  0  0
 25 26  1  0  0  0
 26 27  1  0  0  0
 27 28  1  0  0  0
 29 30  2  0  0  0
 12 13  2  0  0  0
 12 17  1  0  0  0
 13 14  1  0  0  0
 13 18  1  0  0  0
 14 15  2  0  0  0
 15 16  1  0  0  0
 16 17  2  0  0  0
 23 31  1  0  0  0
M  END
> <minimizedAffinity>
-8.06429

$$$$
1043


 31 34  0  0  0  0  0  0  0  0999 V2000
   -3.2771    8.0058  -14.1273 N   0  0  0  0  0  0  0  0  0  0  0  0
   -2.3112    6.9826  -14.4669 C   0  0  0  0  0  0  0  0  0  0  0  0
   -1.0179    7.5911  -14.9489 C   0  0  0  0  0  0  0  0  0  0  0  0
   -0.6024    8.5769  -13.9296 N   0  0  0  0  0  0  0  0  0  0  0  0
   -1.5648    9.5910  -13.6304 C   0  0  0  0  0  0  0  0  0  0  0  0
   -2.8170    9.2999  -14.4905 C   0  0  0  0  0  0  0  0  0  0  0  0
    0.6564    8.4842  -13.3187 C   0  0  0  0  0  0  0  0  0  0  0  0
    1.3884    7.4669  -13.7265 O   0  0  0  0  0  0  0  0  0  0  0  0
   -4.8584    7.6388  -14.6547 S   0  0  0  0  0  0  0  0  0  0  0  0
   -5.3125    6.4159  -13.8784 O   0  0  0  0  0  0  0  0  0  0  0  0
   -4.8141    7.2120  -16.1005 O   0  0  0  0  0  0  0  0  0  0  0  0
   -5.9775    8.9644  -14.4483 C   0  0  0  0  0  0  0  0  0  0  0  0
   -6.0160    9.7215  -13.2948 C   0  0  0  0  0  0  0  0  0  0  0  0
   -6.9106   10.7743  -13.1402 C   0  0  0  0  0  0  0  0  0  0  0  0
   -7.7918   11.0972  -14.1394 C   0  0  0  0  0  0  0  0  0  0  0  0
   -7.7636   10.3492  -15.2973 C   0  0  0  0  0  0  0  0  0  0  0  0
   -6.8683    9.3004  -15.4454 C   0  0  0  0  0  0  0  0  0  0  0  0
   -9.0339   12.5548  -13.9333 Br  0  0  0  0  0  0  0  0  0  0  0  0
    1.3219    9.2849  -12.3227 C   0  0  0  0  0  0  0  0  0  0  0  0
    2.1306   10.3978  -12.7094 N   0  0  0  0  0  0  0  0  0  0  0  0
    3.5022   10.3715  -13.1809 C   0  0  0  0  0  0  0  0  0  0  0  0
    4.1534    9.2991  -13.3224 O   0  0  0  0  0  0  0  0  0  0  0  0
    3.9022   11.7101  -13.4244 N   0  0  0  0  0  0  0  0  0  0  0  0
    3.0000   12.5576  -12.7213 C   0  0  0  0  0  0  0  0  0  0  0  0
    3.4912   12.9501  -11.3486 C   0  0  0  0  0  0  0  0  0  0  0  0
    2.5329   14.0713  -10.9950 C   0  0  0  0  0  0  0  0  0  0  0  0
    2.1137   14.6909  -12.3063 C   0  0  0  0  0  0  0  0  0  0  0  0
    2.8276   13.9126  -13.3856 C   0  0  0  0  0  0  0  0  0  0  0  0
    1.7556   11.7909  -12.6893 C   0  0  0  0  0  0  0  0  0  0  0  0
    0.5743   12.2203  -12.6510 O   0  0  0  0  0  0  0  0  0  0  0  0
    4.7337   11.9520  -14.0307 H   0  0  0  0  0  0  0  0  0  0  0  0
  9 10  2  0  0  0
  9 11  2  0  0  0
  9  1  1  0  0  0
  9 12  1  0  0  0
  1  2  1  0  0  0
  1  6  1  0  0  0
  2  3  1  0  0  0
  3  4  1  0  0  0
  4  5  1  0  0  0
  4  7  1  0  0  0
  5  6  1  0  0  0
  7  8  2  0  0  0
  7 19  1  0  0  0
 19 20  1  0  0  0
 20 21  1  0  0  0
 20 29  1  0  0  0
 21 22  2  0  0  0
 21 23  1  0  0  0
 23 24  1  0  0  0
 24 25  1  0  0  0
 24 28  1  0  0  0
 24 29  1  0  0  0
 25 26  1  0  0  0
 26 27  1  0  0  0
 27 28  1  0  0  0
 29 30  2  0  0  0
 12 13  2  0  0  0
 12 17  1  0  0  0
 13 14  1  0  0  0
 14 15  2  0  0  0
 15 16  1  0  0  0
 15 18  1  0  0  0
 16 17  2  0  0  0
 23 31  1  0  0  0
M  END
> <minimizedAffinity>
-7.92725

$$$$
1044


 30 33  0  0  0  0  0  0  0  0999 V2000
    0.7518   15.0443  -12.3589 S   0  0  0  0  0  0  0  0  0  0  0  0
    1.1147   14.7735  -10.9512 O   0  0  0  0  0  0  0  0  0  0  0  0
    1.9799   15.6541  -13.0237 O   0  0  0  0  0  0  0  0  0  0  0  0
   -0.5047   16.2708  -12.4775 C   0  0  0  0  0  0  0  0  0  0  0  0
   -0.7826   17.1208  -11.4269 C   0  0  0  0  0  0  0  0  0  0  0  0
   -1.7604   18.0925  -11.4890 C   0  0  0  0  0  0  0  0  0  0  0  0
   -2.5137   18.2506  -12.6341 C   0  0  0  0  0  0  0  0  0  0  0  0
   -2.2367   17.3985  -13.6922 C   0  0  0  0  0  0  0  0  0  0  0  0
   -1.2576   16.4295  -13.6232 C   0  0  0  0  0  0  0  0  0  0  0  0
   -3.5084   19.2224  -12.7271 O   0  0  0  0  0  0  0  0  0  0  0  0
   -4.0135   19.9496  -11.6237 C   0  0  0  0  0  0  0  0  0  0  0  0
   -3.0627   19.9678  -10.4835 C   0  0  0  0  0  0  0  0  0  0  0  0
   -3.2049   20.8798   -9.6301 O   0  0  0  0  0  0  0  0  0  0  0  0
   -2.0512   18.9695  -10.4083 N   0  0  0  0  0  0  0  0  0  0  0  0
   -1.4911   18.8630   -9.5361 H   0  0  0  0  0  0  0  0  0  0  0  0
    0.3173   13.6734  -13.2485 N   0  0  0  0  0  0  0  0  0  0  0  0
   -0.8507   13.0040  -12.8798 C   0  0  0  0  0  0  0  0  0  0  0  0
   -0.9405   11.5612  -13.2307 C   0  0  0  0  0  0  0  0  0  0  0  0
    0.3178   10.8958  -13.3526 N   0  0  0  0  0  0  0  0  0  0  0  0
    1.5338   11.6458  -13.1237 C   0  0  0  0  0  0  0  0  0  0  0  0
    1.3534   12.9616  -13.8776 C   0  0  0  0  0  0  0  0  0  0  0  0
    0.4224    9.5251  -13.6907 C   0  0  0  0  0  0  0  0  0  0  0  0
   -0.6196    8.8252  -13.9006 O   0  0  0  0  0  0  0  0  0  0  0  0
    1.6969    8.8306  -13.8199 C   0  0  0  0  0  0  0  0  0  0  0  0
    2.1211    7.8866  -12.9031 C   0  0  0  0  0  0  0  0  0  0  0  0
    3.3216    7.2243  -13.0149 C   0  0  0  0  0  0  0  0  0  0  0  0
    4.1319    7.5258  -14.0986 C   0  0  0  0  0  0  0  0  0  0  0  0
    3.7612    8.4553  -15.0418 C   0  0  0  0  0  0  0  0  0  0  0  0
    2.5497    9.0913  -14.8839 C   0  0  0  0  0  0  0  0  0  0  0  0
    0.9533    7.5225  -11.4364 Br  0  0  0  0  0  0  0  0  0  0  0  0
  1  2  2  0  0  0
  1  3  2  0  0  0
  1 16  1  0  0  0
  1  4  1  0  0  0
 16 17  1  0  0  0
 16 21  1  0  0  0
 17 18  1  0  0  0
 18 19  1  0  0  0
 19 20  1  0  0  0
 19 22  1  0  0  0
 20 21  1  0  0  0
 22 23  2  0  0  0
 22 24  1  0  0  0
 24 25  2  0  0  0
 24 29  1  0  0  0
 25 26  1  0  0  0
 25 30  1  0  0  0
 26 27  2  0  0  0
 27 28  1  0  0  0
 28 29  2  0  0  0
  4  5  2  0  0  0
  4  9  1  0  0  0
  5  6  1  0  0  0
  6  7  2  0  0  0
  6 14  1  0  0  0
  7  8  1  0  0  0
  7 10  1  0  0  0
  8  9  2  0  0  0
 10 11  1  0  0  0
 11 12  1  0  0  0
 12 13  2  0  0  0
 12 14  1  0  0  0
 14 15  1  0  0  0
M  END
> <minimizedAffinity>
-8.98304

$$$$
1051


 27 30  0  0  0  0  0  0  0  0999 V2000
    2.6947   11.5349  -13.1189 N   0  0  0  0  0  0  0  0  0  0  0  0
    1.8275   11.3749  -14.2272 C   0  0  0  0  0  0  0  0  0  0  0  0
    0.6812   10.4389  -14.0497 C   0  0  0  0  0  0  0  0  0  0  0  0
    0.9719    9.3091  -13.2082 N   0  0  0  0  0  0  0  0  0  0  0  0
    2.3159    9.2255  -12.6819 C   0  0  0  0  0  0  0  0  0  0  0  0
    2.5755   10.5849  -12.0657 C   0  0  0  0  0  0  0  0  0  0  0  0
    0.0450    8.3029  -12.8780 C   0  0  0  0  0  0  0  0  0  0  0  0
    0.3905    7.3564  -12.1372 O   0  0  0  0  0  0  0  0  0  0  0  0
   -1.3192    8.3534  -13.3932 C   0  0  0  0  0  0  0  0  0  0  0  0
   -2.1979    9.3268  -13.1763 N   0  0  0  0  0  0  0  0  0  0  0  0
   -3.3510    9.0581  -13.7929 N   0  0  0  0  0  0  0  0  0  0  0  0
   -3.2479    7.8755  -14.4412 C   0  0  0  0  0  0  0  0  0  0  0  0
   -1.9478    7.4256  -14.1839 C   0  0  0  0  0  0  0  0  0  0  0  0
   -4.2782    7.3556  -15.1545 N   0  0  0  0  0  0  0  0  0  0  0  0
   -5.4559    8.0410  -15.2247 C   0  0  0  0  0  0  0  0  0  0  0  0
   -5.5914    9.2491  -14.5760 C   0  0  0  0  0  0  0  0  0  0  0  0
   -4.5170    9.7342  -13.8644 C   0  0  0  0  0  0  0  0  0  0  0  0
   -7.2529   10.2132  -14.6766 Br  0  0  0  0  0  0  0  0  0  0  0  0
    2.6759   13.1154  -12.4360 S   0  0  0  0  0  0  0  0  0  0  0  0
    3.7209   13.9680  -13.0803 O   0  0  0  0  0  0  0  0  0  0  0  0
    3.0316   12.9531  -10.9643 O   0  0  0  0  0  0  0  0  0  0  0  0
    1.1200   13.8869  -12.6150 C   0  0  0  0  0  0  0  0  0  0  0  0
    0.8701   15.2232  -12.8291 C   0  0  0  0  0  0  0  0  0  0  0  0
   -0.4452   15.4270  -12.9120 N   0  0  0  0  0  0  0  0  0  0  0  0
   -1.0582   14.2692  -12.7600 N   0  0  0  0  0  0  0  0  0  0  0  0
   -0.1390   13.2879  -12.5736 C   0  0  0  0  0  0  0  0  0  0  0  0
   -1.1227   16.6776  -13.1301 C   0  0  0  0  0  0  0  0  0  0  0  0
 19 20  2  0  0  0
 19 21  2  0  0  0
 19  1  1  0  0  0
 19 22  1  0  0  0
  1  2  1  0  0  0
  1  6  1  0  0  0
  2  3  1  0  0  0
  3  4  1  0  0  0
  4  5  1  0  0  0
  4  7  1  0  0  0
  5  6  1  0  0  0
  7  8  2  0  0  0
  7  9  1  0  0  0
  9 10  2  0  0  0
  9 13  1  0  0  0
 10 11  1  0  0  0
 11 12  1  0  0  0
 11 17  1  0  0  0
 12 13  2  0  0  0
 12 14  1  0  0  0
 14 15  2  0  0  0
 15 16  1  0  0  0
 16 17  2  0  0  0
 16 18  1  0  0  0
 22 23  2  0  0  0
 22 26  1  0  0  0
 23 24  1  0  0  0
 24 25  1  0  0  0
 24 27  1  0  0  0
 25 26  2  0  0  0
M  END
> <minimizedAffinity>
-8.04498

$$$$
1056


 30 33  0  0  0  0  0  0  0  0999 V2000
    0.6196    7.0175  -12.5311 N   0  0  0  0  0  0  0  0  0  0  0  0
    1.3068    8.2444  -12.6692 C   0  0  0  0  0  0  0  0  0  0  0  0
    2.5976    8.2204  -13.3777 C   0  0  0  0  0  0  0  0  0  0  0  0
    3.3670    7.0550  -13.0584 N   0  0  0  0  0  0  0  0  0  0  0  0
    2.8648    6.1246  -12.0887 C   0  0  0  0  0  0  0  0  0  0  0  0
    1.3932    5.8757  -12.2020 C   0  0  0  0  0  0  0  0  0  0  0  0
    4.6063    6.8150  -13.6849 C   0  0  0  0  0  0  0  0  0  0  0  0
    5.0280    7.6375  -14.5293 O   0  0  0  0  0  0  0  0  0  0  0  0
    5.4409    5.6527  -13.4090 C   0  0  0  0  0  0  0  0  0  0  0  0
    5.0120    4.3928  -13.7845 C   0  0  0  0  0  0  0  0  0  0  0  0
    5.7796    3.3214  -13.5318 N   0  0  0  0  0  0  0  0  0  0  0  0
    6.9778    3.4172  -12.9158 C   0  0  0  0  0  0  0  0  0  0  0  0
    7.4245    4.6272  -12.5377 N   0  0  0  0  0  0  0  0  0  0  0  0
    8.6328    4.7287  -11.9155 C   0  0  0  0  0  0  0  0  0  0  0  0
    9.4159    3.6219  -11.6591 C   0  0  0  0  0  0  0  0  0  0  0  0
    8.9757    2.3649  -12.0396 C   0  0  0  0  0  0  0  0  0  0  0  0
    7.7523    2.2894  -12.6665 C   0  0  0  0  0  0  0  0  0  0  0  0
   10.7359    3.6923  -10.9845 C   0  0  0  0  0  0  0  0  0  0  0  0
    6.6674    5.7298  -12.7807 C   0  0  0  0  0  0  0  0  0  0  0  0
    7.0810    6.8458  -12.4318 O   0  0  0  0  0  0  0  0  0  0  0  0
   -0.6883    6.7634  -13.5735 S   0  0  0  0  0  0  0  0  0  0  0  0
   -0.2137    6.2677  -14.8948 O   0  0  0  0  0  0  0  0  0  0  0  0
   -1.5883    5.7162  -12.9650 O   0  0  0  0  0  0  0  0  0  0  0  0
   -1.6075    8.2337  -13.7517 C   0  0  0  0  0  0  0  0  0  0  0  0
   -1.0355    9.4508  -13.4460 C   0  0  0  0  0  0  0  0  0  0  0  0
   -1.8253   10.5838  -13.6115 C   0  0  0  0  0  0  0  0  0  0  0  0
   -3.1190   10.5141  -14.0583 C   0  0  0  0  0  0  0  0  0  0  0  0
   -3.6845    9.2843  -14.3632 C   0  0  0  0  0  0  0  0  0  0  0  0
   -2.9072    8.1321  -14.2039 C   0  0  0  0  0  0  0  0  0  0  0  0
   -1.0945   12.2920  -13.2064 Br  0  0  0  0  0  0  0  0  0  0  0  0
 21 22  2  0  0  0
 21 23  2  0  0  0
 21  1  1  0  0  0
 21 24  1  0  0  0
  1  2  1  0  0  0
  1  6  1  0  0  0
  2  3  1  0  0  0
  3  4  1  0  0  0
  4  5  1  0  0  0
  4  7  1  0  0  0
  5  6  1  0  0  0
  7  8  2  0  0  0
  7  9  1  0  0  0
  9 10  2  0  0  0
  9 19  1  0  0  0
 10 11  1  0  0  0
 11 12  2  0  0  0
 12 13  1  0  0  0
 12 17  1  0  0  0
 13 14  1  0  0  0
 13 19  1  0  0  0
 14 15  2  0  0  0
 15 16  1  0  0  0
 15 18  1  0  0  0
 16 17  2  0  0  0
 19 20  2  0  0  0
 24 25  2  0  0  0
 24 29  1  0  0  0
 25 26  1  0  0  0
 26 27  2  0  0  0
 26 30  1  0  0  0
 27 28  1  0  0  0
 28 29  2  0  0  0
M  END
> <minimizedAffinity>
-8.98874

$$$$
1061


 30 34  0  0  0  0  0  0  0  0999 V2000
    0.1855    7.2499  -12.3802 N   0  0  0  0  0  0  0  0  0  0  0  0
    0.0334    5.8209  -12.4587 C   0  0  0  0  0  0  0  0  0  0  0  0
    1.3071    5.1025  -12.0767 C   0  0  0  0  0  0  0  0  0  0  0  0
    2.4366    5.5982  -12.9028 N   0  0  0  0  0  0  0  0  0  0  0  0
    2.6372    7.0016  -12.5714 C   0  0  0  0  0  0  0  0  0  0  0  0
    1.4579    7.6160  -11.8378 C   0  0  0  0  0  0  0  0  0  0  0  0
   -0.4015    8.1443  -13.6745 S   0  0  0  0  0  0  0  0  0  0  0  0
    0.3218    7.6785  -14.9317 O   0  0  0  0  0  0  0  0  0  0  0  0
   -1.8515    7.7196  -13.9108 O   0  0  0  0  0  0  0  0  0  0  0  0
   -0.3894    9.8551  -13.5250 C   0  0  0  0  0  0  0  0  0  0  0  0
   -1.5569   10.5530  -13.3327 C   0  0  0  0  0  0  0  0  0  0  0  0
   -1.5073   11.9297  -13.2063 C   0  0  0  0  0  0  0  0  0  0  0  0
   -0.3217   12.6392  -13.2669 C   0  0  0  0  0  0  0  0  0  0  0  0
    0.8478   11.9342  -13.4598 C   0  0  0  0  0  0  0  0  0  0  0  0
    0.7970   10.5505  -13.5867 C   0  0  0  0  0  0  0  0  0  0  0  0
   -0.2517   14.5367  -13.0950 Br  0  0  0  0  0  0  0  0  0  0  0  0
    3.5675    4.8249  -12.4367 C   0  0  0  0  0  0  0  0  0  0  0  0
    4.6089    4.4727  -13.4114 C   0  0  0  0  0  0  0  0  0  0  0  0
    5.9582    4.8619  -13.1782 N   0  0  0  0  0  0  0  0  0  0  0  0
    6.5405    6.1515  -13.0267 C   0  0  0  0  0  0  0  0  0  0  0  0
    6.0807    7.2047  -13.4916 O   0  0  0  0  0  0  0  0  0  0  0  0
    7.7815    6.0244  -12.2254 C   0  0  0  0  0  0  0  0  0  0  0  0
    8.2173    4.5928  -12.6130 C   0  0  0  0  0  0  0  0  0  0  0  0
    9.2493    4.7615  -13.6635 C   0  0  0  0  0  0  0  0  0  0  0  0
    8.9100    6.1501  -14.2311 C   0  0  0  0  0  0  0  0  0  0  0  0
    8.8774    6.8159  -12.8441 C   0  0  0  0  0  0  0  0  0  0  0  0
   10.1651    6.2740  -12.2943 C   0  0  0  0  0  0  0  0  0  0  0  0
   10.5208    5.1682  -12.9483 C   0  0  0  0  0  0  0  0  0  0  0  0
    7.0066    3.8835  -13.0011 C   0  0  0  0  0  0  0  0  0  0  0  0
    6.9238    2.6383  -13.1476 O   0  0  0  0  0  0  0  0  0  0  0  0
  7  8  2  0  0  0
  7  9  2  0  0  0
  7  1  1  0  0  0
  7 10  1  0  0  0
  1  2  1  0  0  0
  1  6  1  0  0  0
  2  3  1  0  0  0
  3  4  1  0  0  0
  4  5  1  0  0  0
  4 17  1  0  0  0
  5  6  1  0  0  0
 17 18  1  0  0  0
 18 19  1  0  0  0
 19 20  1  0  0  0
 19 29  1  0  0  0
 20 21  2  0  0  0
 20 22  1  0  0  0
 22 23  1  0  0  0
 22 26  1  0  0  0
 23 24  1  0  0  0
 23 29  1  0  0  0
 24 25  1  0  0  0
 24 28  1  0  0  0
 25 26  1  0  0  0
 26 27  1  0  0  0
 27 28  2  0  0  0
 29 30  2  0  0  0
 10 11  2  0  0  0
 10 15  1  0  0  0
 11 12  1  0  0  0
 12 13  2  0  0  0
 13 14  1  0  0  0
 13 16  1  0  0  0
 14 15  2  0  0  0
M  END
> <minimizedAffinity>
-8.86744

$$$$
1073


 28 31  0  0  0  0  0  0  0  0999 V2000
    2.7483   11.4839  -13.0206 N   0  0  0  0  0  0  0  0  0  0  0  0
    3.7036   10.5143  -12.6664 C   0  0  0  0  0  0  0  0  0  0  0  0
    3.4731    9.1806  -13.3216 C   0  0  0  0  0  0  0  0  0  0  0  0
    2.1484    8.9777  -13.7880 N   0  0  0  0  0  0  0  0  0  0  0  0
    1.7587    9.9965  -14.6960 C   0  0  0  0  0  0  0  0  0  0  0  0
    2.1205   11.3743  -14.2817 C   0  0  0  0  0  0  0  0  0  0  0  0
    2.8407   12.9932  -12.3328 S   0  0  0  0  0  0  0  0  0  0  0  0
    3.0506   12.9443  -10.8569 O   0  0  0  0  0  0  0  0  0  0  0  0
    3.9473   13.7864  -12.9499 O   0  0  0  0  0  0  0  0  0  0  0  0
    1.3148   13.8566  -12.6171 C   0  0  0  0  0  0  0  0  0  0  0  0
    1.0259   15.5352  -12.6867 S   0  0  0  0  0  0  0  0  0  0  0  0
   -0.6502   15.5104  -12.9894 C   0  0  0  0  0  0  0  0  0  0  0  0
   -0.9442   14.1696  -13.0273 C   0  0  0  0  0  0  0  0  0  0  0  0
    0.0772   13.3207  -12.8339 C   0  0  0  0  0  0  0  0  0  0  0  0
   -1.8572   16.9795  -13.2231 Br  0  0  0  0  0  0  0  0  0  0  0  0
    1.2576    8.6441  -12.7401 C   0  0  0  0  0  0  0  0  0  0  0  0
    0.2958    7.6287  -13.0051 N   0  0  0  0  0  0  0  0  0  0  0  0
   -0.8196    7.9088  -13.6472 N   0  0  0  0  0  0  0  0  0  0  0  0
   -1.7785    7.0140  -13.9316 C   0  0  0  0  0  0  0  0  0  0  0  0
   -1.5617    5.7217  -13.5157 C   0  0  0  0  0  0  0  0  0  0  0  0
   -0.4149    5.3646  -12.8388 C   0  0  0  0  0  0  0  0  0  0  0  0
    0.5132    6.3686  -12.5964 C   0  0  0  0  0  0  0  0  0  0  0  0
    1.5775    6.0332  -11.9687 O   0  0  0  0  0  0  0  0  0  0  0  0
   -2.9820    7.3501  -14.6319 N   0  0  0  0  0  0  0  0  0  0  0  0
   -3.6212    6.6515  -15.5756 C   0  0  0  0  0  0  0  0  0  0  0  0
   -4.7107    7.3431  -15.9573 N   0  0  0  0  0  0  0  0  0  0  0  0
   -4.7742    8.4904  -15.2586 C   0  0  0  0  0  0  0  0  0  0  0  0
   -3.6756    8.4805  -14.4255 C   0  0  0  0  0  0  0  0  0  0  0  0
  7  8  2  0  0  0
  7  9  2  0  0  0
  7  1  1  0  0  0
  7 10  1  0  0  0
  1  2  1  0  0  0
  1  6  1  0  0  0
  2  3  1  0  0  0
  3  4  1  0  0  0
  4  5  1  0  0  0
  4 16  1  0  0  0
  5  6  1  0  0  0
 16 17  1  0  0  0
 17 18  1  0  0  0
 17 22  1  0  0  0
 18 19  2  0  0  0
 19 20  1  0  0  0
 19 24  1  0  0  0
 20 21  2  0  0  0
 21 22  1  0  0  0
 22 23  2  0  0  0
 24 25  1  0  0  0
 24 28  1  0  0  0
 25 26  2  0  0  0
 26 27  1  0  0  0
 27 28  2  0  0  0
 10 11  1  0  0  0
 10 14  2  0  0  0
 11 12  1  0  0  0
 12 13  2  0  0  0
 12 15  1  0  0  0
 13 14  1  0  0  0
M  END
> <minimizedAffinity>
-8.40624

$$$$
1076


 29 32  0  0  0  0  0  0  0  0999 V2000
    2.7392   13.4852  -12.5034 N   0  0  0  0  0  0  0  0  0  0  0  0
    2.7134   13.7297  -11.0959 C   0  0  0  0  0  0  0  0  0  0  0  0
    1.5888   14.7546  -10.8682 C   0  0  0  0  0  0  0  0  0  0  0  0
    1.4415   15.6124  -11.9624 N   0  0  0  0  0  0  0  0  0  0  0  0
    2.6359   15.9051  -12.7069 C   0  0  0  0  0  0  0  0  0  0  0  0
    3.4074   14.6618  -13.0882 C   0  0  0  0  0  0  0  0  0  0  0  0
    3.6651   12.1192  -12.9571 S   0  0  0  0  0  0  0  0  0  0  0  0
    4.5002   11.5980  -11.8173 O   0  0  0  0  0  0  0  0  0  0  0  0
    4.6364   12.5711  -14.0229 O   0  0  0  0  0  0  0  0  0  0  0  0
    2.7304   10.8269  -13.6052 C   0  0  0  0  0  0  0  0  0  0  0  0
    1.4625   10.4873  -13.2359 C   0  0  0  0  0  0  0  0  0  0  0  0
    0.7953    9.4226  -13.8242 C   0  0  0  0  0  0  0  0  0  0  0  0
    1.3794    8.6693  -14.7987 C   0  0  0  0  0  0  0  0  0  0  0  0
    2.6682    8.9908  -15.1954 C   0  0  0  0  0  0  0  0  0  0  0  0
    3.3183   10.0455  -14.6057 C   0  0  0  0  0  0  0  0  0  0  0  0
   -0.9915    8.9625  -13.2869 Br  0  0  0  0  0  0  0  0  0  0  0  0
    0.2458   15.6604  -12.6938 C   0  0  0  0  0  0  0  0  0  0  0  0
   -0.7216   16.6539  -12.3555 N   0  0  0  0  0  0  0  0  0  0  0  0
   -0.5825   17.4418  -11.1844 N   0  0  0  0  0  0  0  0  0  0  0  0
   -1.7037   18.3213  -11.1761 C   0  0  0  0  0  0  0  0  0  0  0  0
   -1.9122   19.2167  -10.2185 C   0  0  0  0  0  0  0  0  0  0  0  0
   -2.9607   20.2299   -9.9626 C   0  0  0  0  0  0  0  0  0  0  0  0
   -4.2724   19.8201  -10.5884 C   0  0  0  0  0  0  0  0  0  0  0  0
   -4.0972   19.9949  -12.0864 C   0  0  0  0  0  0  0  0  0  0  0  0
   -3.7520   18.7025  -12.7607 C   0  0  0  0  0  0  0  0  0  0  0  0
   -2.5344   18.1035  -12.3057 N   0  0  0  0  0  0  0  0  0  0  0  0
   -1.9037   17.0540  -13.0331 C   0  0  0  0  0  0  0  0  0  0  0  0
   -2.3588   16.5851  -14.1058 O   0  0  0  0  0  0  0  0  0  0  0  0
    0.1842   17.3883  -10.4727 H   0  0  0  0  0  0  0  0  0  0  0  0
  7  8  2  0  0  0
  7  9  2  0  0  0
  7  1  1  0  0  0
  7 10  1  0  0  0
  1  2  1  0  0  0
  1  6  1  0  0  0
  2  3  1  0  0  0
  3  4  1  0  0  0
  4  5  1  0  0  0
  4 17  1  0  0  0
  5  6  1  0  0  0
 17 18  1  0  0  0
 18 19  1  0  0  0
 18 27  1  0  0  0
 19 20  1  0  0  0
 20 21  2  0  0  0
 20 26  1  0  0  0
 21 22  1  0  0  0
 22 23  1  0  0  0
 23 24  1  0  0  0
 24 25  1  0  0  0
 25 26  1  0  0  0
 26 27  1  0  0  0
 27 28  2  0  0  0
 10 11  2  0  0  0
 10 15  1  0  0  0
 11 12  1  0  0  0
 12 13  2  0  0  0
 12 16  1  0  0  0
 13 14  1  0  0  0
 14 15  2  0  0  0
 19 29  1  0  0  0
M  END
> <minimizedAffinity>
-9.96424

$$$$
1081


 27 30  0  0  0  0  0  0  0  0999 V2000
    2.9628   10.6950  -14.1060 N   0  0  0  0  0  0  0  0  0  0  0  0
    1.6818   10.3472  -14.5897 C   0  0  0  0  0  0  0  0  0  0  0  0
    1.2806    8.9144  -14.4774 C   0  0  0  0  0  0  0  0  0  0  0  0
    2.2726    8.0604  -13.8727 N   0  0  0  0  0  0  0  0  0  0  0  0
    3.6564    8.3213  -14.1043 C   0  0  0  0  0  0  0  0  0  0  0  0
    4.0126    9.7595  -14.2503 C   0  0  0  0  0  0  0  0  0  0  0  0
    1.8012    6.9714  -13.0659 C   0  0  0  0  0  0  0  0  0  0  0  0
    0.5174    6.7172  -12.7603 N   0  0  0  0  0  0  0  0  0  0  0  0
    0.5486    5.6279  -11.9837 N   0  0  0  0  0  0  0  0  0  0  0  0
    1.7921    5.2329  -11.8211 N   0  0  0  0  0  0  0  0  0  0  0  0
    2.5987    6.0405  -12.4770 N   0  0  0  0  0  0  0  0  0  0  0  0
   -0.6235    7.4486  -13.1861 C   0  0  0  0  0  0  0  0  0  0  0  0
   -0.9165    8.6865  -12.6615 C   0  0  0  0  0  0  0  0  0  0  0  0
   -2.0436    9.3797  -13.1009 C   0  0  0  0  0  0  0  0  0  0  0  0
   -2.8814    8.8510  -14.0583 C   0  0  0  0  0  0  0  0  0  0  0  0
   -2.5833    7.5908  -14.5922 C   0  0  0  0  0  0  0  0  0  0  0  0
   -1.4508    6.9115  -14.1401 C   0  0  0  0  0  0  0  0  0  0  0  0
    3.0249   11.6461  -12.6973 S   0  0  0  0  0  0  0  0  0  0  0  0
    4.3555   12.2008  -12.3768 O   0  0  0  0  0  0  0  0  0  0  0  0
    2.6352   10.7580  -11.5218 O   0  0  0  0  0  0  0  0  0  0  0  0
    1.8367   12.9167  -12.7881 C   0  0  0  0  0  0  0  0  0  0  0  0
    0.5137   12.6838  -13.0677 C   0  0  0  0  0  0  0  0  0  0  0  0
   -0.4279   13.7104  -13.1346 C   0  0  0  0  0  0  0  0  0  0  0  0
    0.0077   15.0196  -12.9057 C   0  0  0  0  0  0  0  0  0  0  0  0
    1.3333   15.2652  -12.6248 C   0  0  0  0  0  0  0  0  0  0  0  0
    2.2251   14.2309  -12.5681 C   0  0  0  0  0  0  0  0  0  0  0  0
   -1.2303   16.4771  -12.9791 Br  0  0  0  0  0  0  0  0  0  0  0  0
 18 19  2  0  0  0
 18 20  2  0  0  0
 18  1  1  0  0  0
 18 21  1  0  0  0
  1  2  1  0  0  0
  1  6  1  0  0  0
  2  3  1  0  0  0
  3  4  1  0  0  0
  4  5  1  0  0  0
  4  7  1  0  0  0
  5  6  1  0  0  0
  7  8  1  0  0  0
  7 11  2  0  0  0
  8  9  1  0  0  0
  8 12  1  0  0  0
  9 10  2  0  0  0
 10 11  1  0  0  0
 12 13  2  0  0  0
 12 17  1  0  0  0
 13 14  1  0  0  0
 14 15  2  0  0  0
 15 16  1  0  0  0
 16 17  2  0  0  0
 21 22  2  0  0  0
 21 26  1  0  0  0
 22 23  1  0  0  0
 23 24  2  0  0  0
 24 25  1  0  0  0
 24 27  1  0  0  0
 25 26  2  0  0  0
M  END
> <minimizedAffinity>
-9.08499

$$$$
1084


 29 32  0  0  0  0  0  0  0  0999 V2000
   -3.4444    8.7209  -14.5599 N   0  0  0  0  0  0  0  0  0  0  0  0
   -2.5693    7.6048  -14.4282 C   0  0  0  0  0  0  0  0  0  0  0  0
   -1.4922    7.8034  -13.3836 C   0  0  0  0  0  0  0  0  0  0  0  0
   -1.2582    9.2132  -13.2665 N   0  0  0  0  0  0  0  0  0  0  0  0
   -2.3299   10.0522  -12.8175 C   0  0  0  0  0  0  0  0  0  0  0  0
   -3.6221    9.4828  -13.3465 C   0  0  0  0  0  0  0  0  0  0  0  0
    0.0004    9.7487  -13.5874 C   0  0  0  0  0  0  0  0  0  0  0  0
    0.3999   10.9622  -13.1721 N   0  0  0  0  0  0  0  0  0  0  0  0
    1.5671   11.5199  -13.4404 C   0  0  0  0  0  0  0  0  0  0  0  0
    2.4605   10.7969  -14.2128 C   0  0  0  0  0  0  0  0  0  0  0  0
    2.0973    9.5471  -14.6618 C   0  0  0  0  0  0  0  0  0  0  0  0
    0.8869    9.0548  -14.3418 N   0  0  0  0  0  0  0  0  0  0  0  0
    3.0284    8.7389  -15.4946 C   0  0  0  0  0  0  0  0  0  0  0  0
    1.8677   12.8105  -12.9421 N   0  0  0  0  0  0  0  0  0  0  0  0
    0.8586   13.7758  -12.5575 C   0  0  0  0  0  0  0  0  0  0  0  0
    1.5341   14.7298  -11.5735 C   0  0  0  0  0  0  0  0  0  0  0  0
    2.3150   13.9482  -10.7195 O   0  0  0  0  0  0  0  0  0  0  0  0
    3.4664   13.4802  -11.3106 C   0  0  0  0  0  0  0  0  0  0  0  0
    3.2516   13.2018  -12.8024 C   0  0  0  0  0  0  0  0  0  0  0  0
   -5.0033    8.1311  -15.0216 S   0  0  0  0  0  0  0  0  0  0  0  0
   -4.9278    7.7152  -16.4816 O   0  0  0  0  0  0  0  0  0  0  0  0
   -5.3262    6.9107  -14.2092 O   0  0  0  0  0  0  0  0  0  0  0  0
   -6.2257    9.3586  -14.8562 C   0  0  0  0  0  0  0  0  0  0  0  0
   -7.1959    9.4692  -15.8430 C   0  0  0  0  0  0  0  0  0  0  0  0
   -8.1937   10.4164  -15.7790 C   0  0  0  0  0  0  0  0  0  0  0  0
   -8.2410   11.2837  -14.7149 C   0  0  0  0  0  0  0  0  0  0  0  0
   -7.2930   11.2061  -13.7121 C   0  0  0  0  0  0  0  0  0  0  0  0
   -6.2979   10.2369  -13.8061 C   0  0  0  0  0  0  0  0  0  0  0  0
   -9.6284   12.5881  -14.6416 Br  0  0  0  0  0  0  0  0  0  0  0  0
 20 21  2  0  0  0
 20 22  2  0  0  0
 20  1  1  0  0  0
 20 23  1  0  0  0
  1  2  1  0  0  0
  1  6  1  0  0  0
  2  3  1  0  0  0
  3  4  1  0  0  0
  4  5  1  0  0  0
  4  7  1  0  0  0
  5  6  1  0  0  0
  7  8  2  0  0  0
  7 12  1  0  0  0
  8  9  1  0  0  0
  9 10  2  0  0  0
  9 14  1  0  0  0
 10 11  1  0  0  0
 11 12  2  0  0  0
 11 13  1  0  0  0
 14 15  1  0  0  0
 14 19  1  0  0  0
 15 16  1  0  0  0
 16 17  1  0  0  0
 17 18  1  0  0  0
 18 19  1  0  0  0
 23 24  2  0  0  0
 23 28  1  0  0  0
 24 25  1  0  0  0
 25 26  2  0  0  0
 26 27  1  0  0  0
 26 29  1  0  0  0
 27 28  2  0  0  0
M  END
> <minimizedAffinity>
-9.51981

$$$$
1089


 25 28  0  0  0  0  0  0  0  0999 V2000
    2.2508    7.9416  -14.0368 N   0  0  0  0  0  0  0  0  0  0  0  0
    3.5321    8.2524  -13.5331 C   0  0  0  0  0  0  0  0  0  0  0  0
    3.8011    9.7119  -13.2624 C   0  0  0  0  0  0  0  0  0  0  0  0
    2.7183   10.5602  -13.6500 N   0  0  0  0  0  0  0  0  0  0  0  0
    1.7942   10.2353  -14.7222 C   0  0  0  0  0  0  0  0  0  0  0  0
    1.8607    8.7841  -15.0986 C   0  0  0  0  0  0  0  0  0  0  0  0
    2.5023   11.7898  -12.9708 C   0  0  0  0  0  0  0  0  0  0  0  0
    3.5398   12.3854  -12.3109 N   0  0  0  0  0  0  0  0  0  0  0  0
    3.3612   13.5433  -11.6743 C   0  0  0  0  0  0  0  0  0  0  0  0
    2.1835   14.1652  -11.6517 N   0  0  0  0  0  0  0  0  0  0  0  0
    1.1594   13.6015  -12.2887 C   0  0  0  0  0  0  0  0  0  0  0  0
   -0.1124   13.9850  -12.4313 N   0  0  0  0  0  0  0  0  0  0  0  0
   -0.7639   13.0484  -13.1761 C   0  0  0  0  0  0  0  0  0  0  0  0
    0.0834   12.0741  -13.5086 N   0  0  0  0  0  0  0  0  0  0  0  0
    1.2719   12.3912  -12.9752 C   0  0  0  0  0  0  0  0  0  0  0  0
   -0.1586   11.2384  -14.0723 H   0  0  0  0  0  0  0  0  0  0  0  0
    1.0823    7.3536  -12.9970 S   0  0  0  0  0  0  0  0  0  0  0  0
    0.8698    8.3698  -11.8805 O   0  0  0  0  0  0  0  0  0  0  0  0
    1.4611    6.0788  -12.3355 O   0  0  0  0  0  0  0  0  0  0  0  0
   -0.5118    7.1287  -13.7232 C   0  0  0  0  0  0  0  0  0  0  0  0
   -1.7920    8.2416  -13.8871 S   0  0  0  0  0  0  0  0  0  0  0  0
   -2.9283    7.2489  -14.6750 C   0  0  0  0  0  0  0  0  0  0  0  0
   -2.2632    6.0521  -14.7912 C   0  0  0  0  0  0  0  0  0  0  0  0
   -1.0205    5.9980  -14.2992 C   0  0  0  0  0  0  0  0  0  0  0  0
   -4.6956    7.6695  -15.2632 Br  0  0  0  0  0  0  0  0  0  0  0  0
 17 18  2  0  0  0
 17 19  2  0  0  0
 17  1  1  0  0  0
 17 20  1  0  0  0
  1  2  1  0  0  0
  1  6  1  0  0  0
  2  3  1  0  0  0
  3  4  1  0  0  0
  4  5  1  0  0  0
  4  7  1  0  0  0
  5  6  1  0  0  0
  7  8  2  0  0  0
  7 15  1  0  0  0
  8  9  1  0  0  0
  9 10  2  0  0  0
 10 11  1  0  0  0
 11 12  1  0  0  0
 11 15  2  0  0  0
 12 13  2  0  0  0
 13 14  1  0  0  0
 14 15  1  0  0  0
 20 21  1  0  0  0
 20 24  2  0  0  0
 21 22  1  0  0  0
 22 23  2  0  0  0
 22 25  1  0  0  0
 23 24  1  0  0  0
 14 16  1  0  0  0
M  END
> <minimizedAffinity>
-8.09971

$$$$
1100


 26 29  0  0  0  0  0  0  0  0999 V2000
    2.0123   11.1874  -12.9209 N   0  0  0  0  0  0  0  0  0  0  0  0
    1.9559   10.9650  -14.3268 C   0  0  0  0  0  0  0  0  0  0  0  0
    1.8980    9.4963  -14.6903 C   0  0  0  0  0  0  0  0  0  0  0  0
    1.1342    8.8319  -13.6654 N   0  0  0  0  0  0  0  0  0  0  0  0
    1.7344    8.7978  -12.3560 C   0  0  0  0  0  0  0  0  0  0  0  0
    2.4275   10.0903  -12.1134 C   0  0  0  0  0  0  0  0  0  0  0  0
   -0.1289    8.2399  -13.8967 C   0  0  0  0  0  0  0  0  0  0  0  0
   -0.2690    6.9372  -14.1438 C   0  0  0  0  0  0  0  0  0  0  0  0
   -1.5468    6.2923  -14.3851 C   0  0  0  0  0  0  0  0  0  0  0  0
   -1.6259    4.9941  -14.6260 C   0  0  0  0  0  0  0  0  0  0  0  0
   -2.7180    7.0804  -14.3591 N   0  0  0  0  0  0  0  0  0  0  0  0
   -2.5296    8.4777  -14.0894 C   0  0  0  0  0  0  0  0  0  0  0  0
   -1.3243    9.0263  -13.8726 N   0  0  0  0  0  0  0  0  0  0  0  0
   -1.4739   10.3349  -13.6518 N   0  0  0  0  0  0  0  0  0  0  0  0
   -2.7794   10.6478  -13.7239 C   0  0  0  0  0  0  0  0  0  0  0  0
   -3.4189    9.4974  -13.9943 N   0  0  0  0  0  0  0  0  0  0  0  0
   -3.6691    6.7203  -14.5171 H   0  0  0  0  0  0  0  0  0  0  0  0
    2.8672   12.6153  -12.5828 S   0  0  0  0  0  0  0  0  0  0  0  0
    4.0162   12.8475  -13.5296 O   0  0  0  0  0  0  0  0  0  0  0  0
    3.4857   12.4695  -11.2001 O   0  0  0  0  0  0  0  0  0  0  0  0
    1.8188   14.0301  -12.5042 C   0  0  0  0  0  0  0  0  0  0  0  0
    0.2504   14.1667  -13.1411 S   0  0  0  0  0  0  0  0  0  0  0  0
   -0.0970   15.7688  -12.6841 C   0  0  0  0  0  0  0  0  0  0  0  0
    1.0414   16.1638  -12.0337 C   0  0  0  0  0  0  0  0  0  0  0  0
    2.0401   15.2536  -11.9409 C   0  0  0  0  0  0  0  0  0  0  0  0
   -1.6921   16.8139  -12.9868 Br  0  0  0  0  0  0  0  0  0  0  0  0
 18 19  2  0  0  0
 18 20  2  0  0  0
 18  1  1  0  0  0
 18 21  1  0  0  0
  1  2  1  0  0  0
  1  6  1  0  0  0
  2  3  1  0  0  0
  3  4  1  0  0  0
  4  5  1  0  0  0
  4  7  1  0  0  0
  5  6  1  0  0  0
  7  8  2  0  0  0
  7 13  1  0  0  0
  8  9  1  0  0  0
  9 10  2  0  0  0
  9 11  1  0  0  0
 11 12  1  0  0  0
 12 13  1  0  0  0
 12 16  2  0  0  0
 13 14  1  0  0  0
 14 15  2  0  0  0
 15 16  1  0  0  0
 21 22  1  0  0  0
 21 25  2  0  0  0
 22 23  1  0  0  0
 23 24  2  0  0  0
 23 26  1  0  0  0
 24 25  1  0  0  0
 11 17  1  0  0  0
M  END
> <minimizedAffinity>
-7.80209

$$$$
1101


 26 29  0  0  0  0  0  0  0  0999 V2000
    2.0703    7.8444  -13.1460 N   0  0  0  0  0  0  0  0  0  0  0  0
    1.8798    8.3619  -14.4480 C   0  0  0  0  0  0  0  0  0  0  0  0
    1.2944    9.7272  -14.5329 C   0  0  0  0  0  0  0  0  0  0  0  0
    1.8731   10.6251  -13.5208 N   0  0  0  0  0  0  0  0  0  0  0  0
    3.0147   10.0820  -12.8160 C   0  0  0  0  0  0  0  0  0  0  0  0
    2.5489    8.7887  -12.1747 C   0  0  0  0  0  0  0  0  0  0  0  0
    1.3248   11.9079  -13.2901 C   0  0  0  0  0  0  0  0  0  0  0  0
    2.0735   12.8352  -12.5757 C   0  0  0  0  0  0  0  0  0  0  0  0
    1.5227   14.0959  -12.3543 C   0  0  0  0  0  0  0  0  0  0  0  0
    0.3183   14.4187  -12.8071 N   0  0  0  0  0  0  0  0  0  0  0  0
    0.0736   15.6863  -12.4372 C   0  0  0  0  0  0  0  0  0  0  0  0
    1.1497   16.1220  -11.7540 N   0  0  0  0  0  0  0  0  0  0  0  0
    2.0427   15.1489  -11.7003 N   0  0  0  0  0  0  0  0  0  0  0  0
   -1.1657   16.4774  -12.7268 C   0  0  0  0  0  0  0  0  0  0  0  0
   -0.3946   13.5587  -13.4789 N   0  0  0  0  0  0  0  0  0  0  0  0
    0.0954   12.3150  -13.7225 C   0  0  0  0  0  0  0  0  0  0  0  0
    0.8230    6.8467  -12.5588 S   0  0  0  0  0  0  0  0  0  0  0  0
    0.5802    7.2314  -11.1044 O   0  0  0  0  0  0  0  0  0  0  0  0
    1.2524    5.4099  -12.5419 O   0  0  0  0  0  0  0  0  0  0  0  0
   -0.6936    7.0731  -13.3876 C   0  0  0  0  0  0  0  0  0  0  0  0
   -1.4244    8.2472  -13.2667 C   0  0  0  0  0  0  0  0  0  0  0  0
   -2.6228    8.4246  -13.9219 C   0  0  0  0  0  0  0  0  0  0  0  0
   -3.1030    7.3989  -14.7201 C   0  0  0  0  0  0  0  0  0  0  0  0
   -2.4124    6.2124  -14.8733 C   0  0  0  0  0  0  0  0  0  0  0  0
   -1.2200    6.0760  -14.2013 C   0  0  0  0  0  0  0  0  0  0  0  0
   -4.7714    7.6624  -15.6244 Br  0  0  0  0  0  0  0  0  0  0  0  0
 17 18  2  0  0  0
 17 19  2  0  0  0
 17  1  1  0  0  0
 17 20  1  0  0  0
  1  2  1  0  0  0
  1  6  1  0  0  0
  2  3  1  0  0  0
  3  4  1  0  0  0
  4  5  1  0  0  0
  4  7  1  0  0  0
  5  6  1  0  0  0
  7  8  2  0  0  0
  7 16  1  0  0  0
  8  9  1  0  0  0
  9 10  1  0  0  0
  9 13  2  0  0  0
 10 11  1  0  0  0
 10 15  1  0  0  0
 11 12  2  0  0  0
 11 14  1  0  0  0
 12 13  1  0  0  0
 15 16  2  0  0  0
 20 21  2  0  0  0
 20 25  1  0  0  0
 21 22  1  0  0  0
 22 23  2  0  0  0
 23 24  1  0  0  0
 23 26  1  0  0  0
 24 25  2  0  0  0
M  END
> <minimizedAffinity>
-8.76794

$$$$
1105


 33 36  0  0  0  0  0  0  0  0999 V2000
    1.4927    9.8068  -14.4237 N   0  0  0  0  0  0  0  0  0  0  0  0
    2.1616    9.1621  -15.5033 C   0  0  0  0  0  0  0  0  0  0  0  0
    3.6233    9.5207  -15.6469 C   0  0  0  0  0  0  0  0  0  0  0  0
    4.2955    9.4905  -14.3456 N   0  0  0  0  0  0  0  0  0  0  0  0
    3.5566   10.1792  -13.3111 C   0  0  0  0  0  0  0  0  0  0  0  0
    3.9409   10.2249  -12.1399 O   0  0  0  0  0  0  0  0  0  0  0  0
    2.2994   10.8106  -13.8336 C   0  0  0  0  0  0  0  0  0  0  0  0
    5.1904    9.0421  -14.1518 H   0  0  0  0  0  0  0  0  0  0  0  0
    0.8470    8.6472  -13.3627 S   0  0  0  0  0  0  0  0  0  0  0  0
    0.9119    9.0323  -11.9190 O   0  0  0  0  0  0  0  0  0  0  0  0
    1.6020    7.3288  -13.4820 O   0  0  0  0  0  0  0  0  0  0  0  0
   -0.8216    8.2696  -13.7529 C   0  0  0  0  0  0  0  0  0  0  0  0
   -1.2160    7.0178  -14.2090 C   0  0  0  0  0  0  0  0  0  0  0  0
   -2.5080    6.7023  -14.5226 C   0  0  0  0  0  0  0  0  0  0  0  0
   -3.4963    7.6429  -14.3921 C   0  0  0  0  0  0  0  0  0  0  0  0
   -3.1367    8.9161  -13.9341 C   0  0  0  0  0  0  0  0  0  0  0  0
   -1.8273    9.1989  -13.6288 C   0  0  0  0  0  0  0  0  0  0  0  0
   -5.3130    7.2639  -14.8114 Br  0  0  0  0  0  0  0  0  0  0  0  0
    1.6637   11.7197  -12.8581 C   0  0  0  0  0  0  0  0  0  0  0  0
    0.5689   12.4700  -13.5187 C   0  0  0  0  0  0  0  0  0  0  0  0
    0.0417   11.9277  -14.5262 O   0  0  0  0  0  0  0  0  0  0  0  0
    0.1304   13.7431  -13.0417 N   0  0  0  0  0  0  0  0  0  0  0  0
    0.7405   14.3514  -11.8911 C   0  0  0  0  0  0  0  0  0  0  0  0
    0.7273   15.8482  -11.9097 C   0  0  0  0  0  0  0  0  0  0  0  0
   -0.4190   16.4198  -12.5949 N   0  0  0  0  0  0  0  0  0  0  0  0
   -0.6481   15.8874  -13.9297 C   0  0  0  0  0  0  0  0  0  0  0  0
   -0.9391   14.4148  -13.7325 C   0  0  0  0  0  0  0  0  0  0  0  0
   -1.2627   17.4131  -12.0800 C   0  0  0  0  0  0  0  0  0  0  0  0
   -2.3901   17.7749  -12.7834 C   0  0  0  0  0  0  0  0  0  0  0  0
   -3.2154   18.7679  -12.2783 C   0  0  0  0  0  0  0  0  0  0  0  0
   -2.9586   19.4165  -11.0959 C   0  0  0  0  0  0  0  0  0  0  0  0
   -1.8314   19.0512  -10.3967 C   0  0  0  0  0  0  0  0  0  0  0  0
   -1.0008   18.0586  -10.8960 C   0  0  0  0  0  0  0  0  0  0  0  0
  9 10  2  0  0  0
  9 11  2  0  0  0
  9  1  1  0  0  0
  9 12  1  0  0  0
  1  2  1  0  0  0
  1  7  1  0  0  0
  2  3  1  0  0  0
  3  4  1  0  0  0
  4  5  1  0  0  0
  5  6  2  0  0  0
  5  7  1  0  0  0
  7 19  1  0  0  0
 19 20  1  0  0  0
 20 21  2  0  0  0
 20 22  1  0  0  0
 22 23  1  0  0  0
 22 27  1  0  0  0
 23 24  1  0  0  0
 24 25  1  0  0  0
 25 26  1  0  0  0
 25 28  1  0  0  0
 26 27  1  0  0  0
 28 29  2  0  0  0
 28 33  1  0  0  0
 29 30  1  0  0  0
 30 31  2  0  0  0
 31 32  1  0  0  0
 32 33  2  0  0  0
 12 13  2  0  0  0
 12 17  1  0  0  0
 13 14  1  0  0  0
 14 15  2  0  0  0
 15 16  1  0  0  0
 15 18  1  0  0  0
 16 17  2  0  0  0
  4  8  1  0  0  0
M  END
> <minimizedAffinity>
-8.64569

$$$$
1112


 32 35  0  0  0  0  0  0  0  0999 V2000
    1.3126   14.6887  -12.0433 C   0  0  0  0  0  0  0  0  0  0  0  0
    2.2727   10.6708  -13.2227 C   0  0  0  0  0  0  0  0  0  0  0  0
    3.1537   11.4001  -12.4778 C   0  0  0  0  0  0  0  0  0  0  0  0
    2.8676   12.7031  -12.0814 C   0  0  0  0  0  0  0  0  0  0  0  0
    1.6934   13.3059  -12.4210 C   0  0  0  0  0  0  0  0  0  0  0  0
    0.7942   12.5730  -13.1758 C   0  0  0  0  0  0  0  0  0  0  0  0
    1.0800   11.2782  -13.5683 C   0  0  0  0  0  0  0  0  0  0  0  0
    2.6005    9.0239  -13.7407 S   0  0  0  0  0  0  0  0  0  0  0  0
    1.9433    8.7194  -15.0429 O   0  0  0  0  0  0  0  0  0  0  0  0
    4.0970    8.9397  -13.9638 O   0  0  0  0  0  0  0  0  0  0  0  0
    2.1964    7.8735  -12.5445 N   0  0  0  0  0  0  0  0  0  0  0  0
    2.4455    6.5164  -12.9541 C   0  0  0  0  0  0  0  0  0  0  0  0
    1.6144    5.6223  -12.0293 C   0  0  0  0  0  0  0  0  0  0  0  0
    0.2797    5.6881  -12.3657 O   0  0  0  0  0  0  0  0  0  0  0  0
    0.0298    6.9166  -13.0028 C   0  0  0  0  0  0  0  0  0  0  0  0
    0.7864    7.9774  -12.2174 C   0  0  0  0  0  0  0  0  0  0  0  0
    0.6698   15.3713  -13.0968 O   0  0  0  0  0  0  0  0  0  0  0  0
   -0.6861   15.5643  -13.2000 C   0  0  0  0  0  0  0  0  0  0  0  0
   -1.4610   14.6902  -12.7644 O   0  0  0  0  0  0  0  0  0  0  0  0
   -1.2289   16.7745  -13.8117 C   0  0  0  0  0  0  0  0  0  0  0  0
   -1.8699   17.6547  -12.8795 N   0  0  0  0  0  0  0  0  0  0  0  0
   -3.1904   18.1758  -13.0771 C   0  0  0  0  0  0  0  0  0  0  0  0
   -3.9398   17.9354  -14.0665 O   0  0  0  0  0  0  0  0  0  0  0  0
   -3.5383   19.0323  -11.9494 C   0  0  0  0  0  0  0  0  0  0  0  0
   -2.4838   19.0550  -11.0747 C   0  0  0  0  0  0  0  0  0  0  0  0
   -2.5524   19.7982   -9.9117 C   0  0  0  0  0  0  0  0  0  0  0  0
   -3.6813   20.5335   -9.6039 C   0  0  0  0  0  0  0  0  0  0  0  0
   -4.7499   20.5204  -10.4755 C   0  0  0  0  0  0  0  0  0  0  0  0
   -4.6545   19.7706  -11.6296 C   0  0  0  0  0  0  0  0  0  0  0  0
   -6.3282   21.5195  -10.0952 Br  0  0  0  0  0  0  0  0  0  0  0  0
   -1.4317   18.1955  -11.6447 C   0  0  0  0  0  0  0  0  0  0  0  0
   -0.3116   17.9588  -11.1406 O   0  0  0  0  0  0  0  0  0  0  0  0
  8  9  2  0  0  0
  8 10  2  0  0  0
  8 11  1  0  0  0
  8  2  1  0  0  0
 11 12  1  0  0  0
 11 16  1  0  0  0
 12 13  1  0  0  0
 13 14  1  0  0  0
 14 15  1  0  0  0
 15 16  1  0  0  0
  2  3  2  0  0  0
  2  7  1  0  0  0
  3  4  1  0  0  0
  4  5  2  0  0  0
  5  6  1  0  0  0
  5  1  1  0  0  0
  6  7  2  0  0  0
  1 17  1  0  0  0
 17 18  1  0  0  0
 18 19  2  0  0  0
 18 20  1  0  0  0
 20 21  1  0  0  0
 21 22  1  0  0  0
 21 31  1  0  0  0
 22 23  2  0  0  0
 22 24  1  0  0  0
 24 25  2  0  0  0
 24 29  1  0  0  0
 25 26  1  0  0  0
 25 31  1  0  0  0
 26 27  2  0  0  0
 27 28  1  0  0  0
 28 29  2  0  0  0
 28 30  1  0  0  0
 31 32  2  0  0  0
M  END
> <minimizedAffinity>
-10.73346

$$$$
1113


 28 31  0  0  0  0  0  0  0  0999 V2000
    3.1908   10.8271  -13.6233 C   0  0  0  0  0  0  0  0  0  0  0  0
    4.1874   11.7003  -13.8463 N   0  0  0  0  0  0  0  0  0  0  0  0
    3.9257   12.8473  -13.1692 C   0  0  0  0  0  0  0  0  0  0  0  0
    2.7622   12.7161  -12.5095 N   0  0  0  0  0  0  0  0  0  0  0  0
    2.3067   11.5004  -12.7738 C   0  0  0  0  0  0  0  0  0  0  0  0
    3.0225    9.2034  -14.2497 S   0  0  0  0  0  0  0  0  0  0  0  0
    2.8859    9.3022  -15.7637 O   0  0  0  0  0  0  0  0  0  0  0  0
    4.3113    8.4394  -14.0203 O   0  0  0  0  0  0  0  0  0  0  0  0
    1.7012    8.3623  -13.6548 N   0  0  0  0  0  0  0  0  0  0  0  0
    1.8932    7.4921  -12.5709 C   0  0  0  0  0  0  0  0  0  0  0  0
    0.8135    7.6627  -11.5435 C   0  0  0  0  0  0  0  0  0  0  0  0
   -0.4009    7.4500  -12.1725 O   0  0  0  0  0  0  0  0  0  0  0  0
   -0.6992    8.4359  -13.1046 C   0  0  0  0  0  0  0  0  0  0  0  0
    0.4133    8.7626  -14.0242 C   0  0  0  0  0  0  0  0  0  0  0  0
    2.1631   13.7396  -11.6775 C   0  0  0  0  0  0  0  0  0  0  0  0
    0.9431   14.3056  -12.3004 C   0  0  0  0  0  0  0  0  0  0  0  0
   -0.2724   13.6984  -12.3315 N   0  0  0  0  0  0  0  0  0  0  0  0
   -1.0989   14.4827  -12.9542 O   0  0  0  0  0  0  0  0  0  0  0  0
   -0.5096   15.5841  -13.3453 C   0  0  0  0  0  0  0  0  0  0  0  0
    0.7783   15.4695  -12.9317 N   0  0  0  0  0  0  0  0  0  0  0  0
   -1.0993   16.7383  -14.0890 C   0  0  0  0  0  0  0  0  0  0  0  0
   -1.8401   17.5593  -13.0912 C   0  0  0  0  0  0  0  0  0  0  0  0
   -3.0577   18.1074  -13.4628 C   0  0  0  0  0  0  0  0  0  0  0  0
   -3.8071   18.8750  -12.6107 C   0  0  0  0  0  0  0  0  0  0  0  0
   -3.3253   19.1006  -11.3499 C   0  0  0  0  0  0  0  0  0  0  0  0
   -2.1357   18.5857  -10.9373 C   0  0  0  0  0  0  0  0  0  0  0  0
   -1.3951   17.8092  -11.8244 C   0  0  0  0  0  0  0  0  0  0  0  0
   -4.3407   20.1651  -10.1352 Br  0  0  0  0  0  0  0  0  0  0  0  0
  6  7  2  0  0  0
  6  8  2  0  0  0
  6  9  1  0  0  0
  6  1  1  0  0  0
  9 10  1  0  0  0
  9 14  1  0  0  0
 10 11  1  0  0  0
 11 12  1  0  0  0
 12 13  1  0  0  0
 13 14  1  0  0  0
  1  2  1  0  0  0
  1  5  2  0  0  0
  2  3  2  0  0  0
  3  4  1  0  0  0
  4  5  1  0  0  0
  4 15  1  0  0  0
 15 16  1  0  0  0
 16 17  2  0  0  0
 16 20  1  0  0  0
 17 18  1  0  0  0
 18 19  1  0  0  0
 19 20  2  0  0  0
 19 21  1  0  0  0
 21 22  1  0  0  0
 22 23  2  0  0  0
 22 27  1  0  0  0
 23 24  1  0  0  0
 24 25  2  0  0  0
 25 26  1  0  0  0
 25 28  1  0  0  0
 26 27  2  0  0  0
M  END
> <minimizedAffinity>
-9.77552

$$$$
1114


 27 30  0  0  0  0  0  0  0  0999 V2000
    3.0451   11.4881  -13.2691 C   0  0  0  0  0  0  0  0  0  0  0  0
    4.0961   12.2585  -13.6003 N   0  0  0  0  0  0  0  0  0  0  0  0
    3.9424   13.4636  -13.0210 C   0  0  0  0  0  0  0  0  0  0  0  0
    2.8038   13.5001  -12.3132 N   0  0  0  0  0  0  0  0  0  0  0  0
    2.2502   12.2862  -12.4642 C   0  0  0  0  0  0  0  0  0  0  0  0
    2.7459    9.8154  -13.7576 S   0  0  0  0  0  0  0  0  0  0  0  0
    2.3654    9.8392  -15.2139 O   0  0  0  0  0  0  0  0  0  0  0  0
    3.9878    8.9930  -13.6328 O   0  0  0  0  0  0  0  0  0  0  0  0
    1.4520    9.1361  -12.8696 N   0  0  0  0  0  0  0  0  0  0  0  0
    1.6815    7.8164  -12.4122 C   0  0  0  0  0  0  0  0  0  0  0  0
    0.5051    6.8970  -12.3984 C   0  0  0  0  0  0  0  0  0  0  0  0
   -0.6280    7.6748  -12.0656 O   0  0  0  0  0  0  0  0  0  0  0  0
   -0.8903    8.4150  -13.2223 C   0  0  0  0  0  0  0  0  0  0  0  0
    0.1674    9.4487  -13.3804 C   0  0  0  0  0  0  0  0  0  0  0  0
    2.2914   14.6194  -11.5497 C   0  0  0  0  0  0  0  0  0  0  0  0
    1.0431   15.1763  -12.1193 C   0  0  0  0  0  0  0  0  0  0  0  0
    0.3981   14.6740  -13.1891 N   0  0  0  0  0  0  0  0  0  0  0  0
   -0.6532   15.4013  -13.4177 O   0  0  0  0  0  0  0  0  0  0  0  0
   -0.7467   16.3718  -12.5503 C   0  0  0  0  0  0  0  0  0  0  0  0
    0.3124   16.2343  -11.7363 N   0  0  0  0  0  0  0  0  0  0  0  0
   -1.8096   17.3775  -12.5141 C   0  0  0  0  0  0  0  0  0  0  0  0
   -1.9535   18.2511  -11.4566 C   0  0  0  0  0  0  0  0  0  0  0  0
   -2.9701   19.2032  -11.4367 C   0  0  0  0  0  0  0  0  0  0  0  0
   -3.8675   19.3049  -12.4760 C   0  0  0  0  0  0  0  0  0  0  0  0
   -3.7262   18.4337  -13.5343 C   0  0  0  0  0  0  0  0  0  0  0  0
   -2.7060   17.4792  -13.5513 C   0  0  0  0  0  0  0  0  0  0  0  0
   -3.1519   20.4046   -9.9603 Br  0  0  0  0  0  0  0  0  0  0  0  0
  6  7  2  0  0  0
  6  8  2  0  0  0
  6  9  1  0  0  0
  6  1  1  0  0  0
  9 10  1  0  0  0
  9 14  1  0  0  0
 10 11  1  0  0  0
 11 12  1  0  0  0
 12 13  1  0  0  0
 13 14  1  0  0  0
  1  2  1  0  0  0
  1  5  2  0  0  0
  2  3  2  0  0  0
  3  4  1  0  0  0
  4  5  1  0  0  0
  4 15  1  0  0  0
 15 16  1  0  0  0
 16 17  2  0  0  0
 16 20  1  0  0  0
 17 18  1  0  0  0
 18 19  1  0  0  0
 19 20  2  0  0  0
 19 21  1  0  0  0
 21 22  2  0  0  0
 21 26  1  0  0  0
 22 23  1  0  0  0
 23 24  2  0  0  0
 23 27  1  0  0  0
 24 25  1  0  0  0
 25 26  2  0  0  0
M  END
> <minimizedAffinity>
-9.06252

$$$$
1130


 29 32  0  0  0  0  0  0  0  0999 V2000
    1.0410   14.3819  -12.4579 C   0  0  0  0  0  0  0  0  0  0  0  0
    2.3635   14.1464  -12.4122 N   0  0  0  0  0  0  0  0  0  0  0  0
    2.9124   12.9762  -12.6961 N   0  0  0  0  0  0  0  0  0  0  0  0
    2.1505   11.9218  -13.0575 C   0  0  0  0  0  0  0  0  0  0  0  0
    0.7889   12.1396  -13.1109 C   0  0  0  0  0  0  0  0  0  0  0  0
    0.2474   10.9643  -13.4886 N   0  0  0  0  0  0  0  0  0  0  0  0
    1.1949   10.0308  -13.6726 C   0  0  0  0  0  0  0  0  0  0  0  0
    2.4175   10.6083  -13.4051 C   0  0  0  0  0  0  0  0  0  0  0  0
    3.6128    9.9120  -13.5019 C   0  0  0  0  0  0  0  0  0  0  0  0
    3.5337    8.5843  -13.8837 C   0  0  0  0  0  0  0  0  0  0  0  0
    2.3228    7.9812  -14.1558 C   0  0  0  0  0  0  0  0  0  0  0  0
    1.1504    8.6906  -14.0543 C   0  0  0  0  0  0  0  0  0  0  0  0
    5.1825    7.6234  -14.0164 Br  0  0  0  0  0  0  0  0  0  0  0  0
   -1.1788   10.7712  -13.6629 C   0  0  0  0  0  0  0  0  0  0  0  0
    0.2466   13.3576  -12.8125 N   0  0  0  0  0  0  0  0  0  0  0  0
    0.3654   16.0069  -12.0565 S   0  0  0  0  0  0  0  0  0  0  0  0
   -1.0985   16.2781  -13.0909 C   0  0  0  0  0  0  0  0  0  0  0  0
   -1.7577   17.5423  -12.6533 C   0  0  0  0  0  0  0  0  0  0  0  0
   -1.9848   18.4808  -13.4815 O   0  0  0  0  0  0  0  0  0  0  0  0
   -2.1512   17.7452  -11.3144 N   0  0  0  0  0  0  0  0  0  0  0  0
   -1.9710   16.9852  -10.6239 H   0  0  0  0  0  0  0  0  0  0  0  0
   -2.7779   18.9455  -10.9008 C   0  0  0  0  0  0  0  0  0  0  0  0
   -2.3432   19.8387   -9.9964 N   0  0  0  0  0  0  0  0  0  0  0  0
   -3.1940   20.8211   -9.8815 O   0  0  0  0  0  0  0  0  0  0  0  0
   -4.1711   20.5869  -10.6899 N   0  0  0  0  0  0  0  0  0  0  0  0
   -3.9925   19.4420  -11.3610 C   0  0  0  0  0  0  0  0  0  0  0  0
   -4.8651   18.8863  -12.3214 N   0  0  0  0  0  0  0  0  0  0  0  0
   -4.4721   18.3334  -13.1060 H   0  0  0  0  0  0  0  0  0  0  0  0
   -5.8974   19.0064  -12.2786 H   0  0  0  0  0  0  0  0  0  0  0  0
 16 17  1  0  0  0
 16  1  1  0  0  0
 17 18  1  0  0  0
 18 19  2  0  0  0
 18 20  1  0  0  0
 20 22  1  0  0  0
 22 23  2  0  0  0
 22 26  1  0  0  0
 23 24  1  0  0  0
 24 25  1  0  0  0
 25 26  2  0  0  0
 26 27  1  0  0  0
  1  2  2  0  0  0
  1 15  1  0  0  0
  2  3  1  0  0  0
  3  4  2  0  0  0
  4  5  1  0  0  0
  4  8  1  0  0  0
  5  6  1  0  0  0
  5 15  2  0  0  0
  6  7  1  0  0  0
  6 14  1  0  0  0
  7  8  2  0  0  0
  7 12  1  0  0  0
  8  9  1  0  0  0
  9 10  2  0  0  0
 10 11  1  0  0  0
 10 13  1  0  0  0
 11 12  2  0  0  0
 20 21  1  0  0  0
 27 28  1  0  0  0
 27 29  1  0  0  0
M  END
> <minimizedAffinity>
-9.23658

$$$$
1133


 35 38  0  0  0  0  0  0  0  0999 V2000
    3.6381    8.0869  -13.8304 C   0  0  0  0  0  0  0  0  0  0  0  0
    2.9979    7.0169  -13.3593 N   0  0  0  0  0  0  0  0  0  0  0  0
    3.9282    6.0362  -13.2151 C   0  0  0  0  0  0  0  0  0  0  0  0
    3.9528    4.7395  -12.8703 N   0  0  0  0  0  0  0  0  0  0  0  0
    5.0309    3.9484  -12.8725 C   0  0  0  0  0  0  0  0  0  0  0  0
    6.2421    4.5093  -13.2544 N   0  0  0  0  0  0  0  0  0  0  0  0
    6.3145    5.7680  -13.6091 C   0  0  0  0  0  0  0  0  0  0  0  0
    5.1878    6.5653  -13.6078 C   0  0  0  0  0  0  0  0  0  0  0  0
    4.9435    7.8170  -13.9759 N   0  0  0  0  0  0  0  0  0  0  0  0
    7.4867    6.3740  -13.9858 O   0  0  0  0  0  0  0  0  0  0  0  0
    5.0282    2.5500  -12.5471 N   0  0  0  0  0  0  0  0  0  0  0  0
    7.9482    7.0949  -13.4429 H   0  0  0  0  0  0  0  0  0  0  0  0
    5.4219    2.1131  -11.7165 H   0  0  0  0  0  0  0  0  0  0  0  0
    4.5957    1.8851  -13.2787 H   0  0  0  0  0  0  0  0  0  0  0  0
    1.6291    6.8341  -12.9985 C   0  0  0  0  0  0  0  0  0  0  0  0
    0.7416    6.8224  -14.0971 O   0  0  0  0  0  0  0  0  0  0  0  0
   -0.4838    6.8129  -13.3919 C   0  0  0  0  0  0  0  0  0  0  0  0
   -0.2798    8.1345  -12.6061 C   0  0  0  0  0  0  0  0  0  0  0  0
    1.0732    7.7747  -11.9785 C   0  0  0  0  0  0  0  0  0  0  0  0
    0.7873    7.1051  -10.7610 O   0  0  0  0  0  0  0  0  0  0  0  0
   -1.2618    8.3508  -11.6779 O   0  0  0  0  0  0  0  0  0  0  0  0
    0.6005    7.8322  -10.1262 H   0  0  0  0  0  0  0  0  0  0  0  0
   -1.5229    9.3028  -11.6729 H   0  0  0  0  0  0  0  0  0  0  0  0
   -1.6566    6.8703  -14.2951 C   0  0  0  0  0  0  0  0  0  0  0  0
   -2.3413    8.0820  -14.1411 O   0  0  0  0  0  0  0  0  0  0  0  0
   -1.9384    8.5483  -13.3457 H   0  0  0  0  0  0  0  0  0  0  0  0
    2.8829    9.6474  -14.3072 S   0  0  0  0  0  0  0  0  0  0  0  0
    2.8963   10.8281  -12.8880 C   0  0  0  0  0  0  0  0  0  0  0  0
    1.7877   11.7978  -13.0403 C   0  0  0  0  0  0  0  0  0  0  0  0
    1.7244   13.0090  -12.3961 C   0  0  0  0  0  0  0  0  0  0  0  0
    0.6329   13.8038  -12.4567 C   0  0  0  0  0  0  0  0  0  0  0  0
   -0.4921   13.4392  -13.1874 C   0  0  0  0  0  0  0  0  0  0  0  0
   -0.4629   12.2069  -13.8553 C   0  0  0  0  0  0  0  0  0  0  0  0
    0.6579   11.4028  -13.7820 C   0  0  0  0  0  0  0  0  0  0  0  0
    3.3287   13.5682  -11.5177 Br  0  0  0  0  0  0  0  0  0  0  0  0
 27 28  1  0  0  0
 27  1  1  0  0  0
 28 29  1  0  0  0
 29 30  2  0  0  0
 29 34  1  0  0  0
 30 31  1  0  0  0
 30 35  1  0  0  0
 31 32  2  0  0  0
 32 33  1  0  0  0
 33 34  2  0  0  0
  1  2  1  0  0  0
  1  9  2  0  0  0
  2  3  1  0  0  0
  2 15  1  0  0  0
  3  4  2  0  0  0
  3  8  1  0  0  0
  4  5  1  0  0  0
  5  6  2  0  0  0
  5 11  1  0  0  0
  6  7  1  0  0  0
  7  8  2  0  0  0
  7 10  1  0  0  0
  8  9  1  0  0  0
 15 16  1  0  0  0
 15 19  1  0  0  0
 16 17  1  0  0  0
 17 18  1  0  0  0
 17 24  1  0  0  0
 18 19  1  0  0  0
 18 21  1  0  0  0
 19 20  1  0  0  0
 24 25  1  0  0  0
 10 12  1  0  0  0
 11 13  1  0  0  0
 11 14  1  0  0  0
 20 22  1  0  0  0
 21 23  1  0  0  0
 25 26  1  0  0  0
M  END
> <minimizedAffinity>
-8.43990

$$$$
1143


 33 37  0  0  0  0  0  0  0  0999 V2000
    3.1465   10.3507  -13.1460 C   0  0  0  0  0  0  0  0  0  0  0  0
    4.3169    9.8110  -13.8245 N   0  0  0  0  0  0  0  0  0  0  0  0
    4.1287    9.8672  -15.2640 C   0  0  0  0  0  0  0  0  0  0  0  0
    2.7106   10.1450  -15.6896 C   0  0  0  0  0  0  0  0  0  0  0  0
    1.7932    9.3299  -14.8157 C   0  0  0  0  0  0  0  0  0  0  0  0
    2.0563    9.4335  -13.4289 C   0  0  0  0  0  0  0  0  0  0  0  0
    1.2968    8.7145  -12.5483 C   0  0  0  0  0  0  0  0  0  0  0  0
    0.2868    7.9085  -13.0686 C   0  0  0  0  0  0  0  0  0  0  0  0
    0.0492    7.8259  -14.4202 C   0  0  0  0  0  0  0  0  0  0  0  0
    0.8096    8.5453  -15.3234 C   0  0  0  0  0  0  0  0  0  0  0  0
   -1.0033    6.9578  -14.6253 O   0  0  0  0  0  0  0  0  0  0  0  0
   -1.2539    6.2626  -13.4286 C   0  0  0  0  0  0  0  0  0  0  0  0
   -0.6203    7.0896  -12.4527 O   0  0  0  0  0  0  0  0  0  0  0  0
    4.6541    8.4767  -13.4654 C   0  0  0  0  0  0  0  0  0  0  0  0
    5.1137   10.4390  -13.5894 H   0  0  0  0  0  0  0  0  0  0  0  0
    4.2252   14.8064  -14.1005 S   0  0  0  0  0  0  0  0  0  0  0  0
    4.0201   13.4237  -12.9883 C   0  0  0  0  0  0  0  0  0  0  0  0
    4.9495   12.5640  -12.7782 N   0  0  0  0  0  0  0  0  0  0  0  0
    4.8592   11.4453  -11.9118 C   0  0  0  0  0  0  0  0  0  0  0  0
    5.8114   10.9721  -11.2858 O   0  0  0  0  0  0  0  0  0  0  0  0
    3.4385   10.8488  -11.8084 C   0  0  0  0  0  0  0  0  0  0  0  0
    2.6764   12.0677  -11.3996 C   0  0  0  0  0  0  0  0  0  0  0  0
    1.9728   12.1838  -10.3946 O   0  0  0  0  0  0  0  0  0  0  0  0
    2.7901   13.1874  -12.2653 N   0  0  0  0  0  0  0  0  0  0  0  0
    1.7055   14.0581  -12.4070 C   0  0  0  0  0  0  0  0  0  0  0  0
    1.8265   15.3384  -11.8528 C   0  0  0  0  0  0  0  0  0  0  0  0
    0.7998   16.2523  -11.9527 C   0  0  0  0  0  0  0  0  0  0  0  0
   -0.3705   15.8921  -12.6135 C   0  0  0  0  0  0  0  0  0  0  0  0
   -0.4818   14.6093  -13.1651 C   0  0  0  0  0  0  0  0  0  0  0  0
    0.5530   13.7111  -13.0557 C   0  0  0  0  0  0  0  0  0  0  0  0
   -1.8000   17.1138  -12.7725 Br  0  0  0  0  0  0  0  0  0  0  0  0
    1.5165    8.7714  -11.1792 O   0  0  0  0  0  0  0  0  0  0  0  0
    1.3934    7.5774  -10.4141 C   0  0  0  0  0  0  0  0  0  0  0  0
 16 17  1  0  0  0
 17 18  2  0  0  0
 17 24  1  0  0  0
 18 19  1  0  0  0
 19 20  2  0  0  0
 19 21  1  0  0  0
 21 22  1  0  0  0
 21  1  1  0  0  0
 22 23  2  0  0  0
 22 24  1  0  0  0
 24 25  1  0  0  0
 25 26  2  0  0  0
 25 30  1  0  0  0
 26 27  1  0  0  0
 27 28  2  0  0  0
 28 29  1  0  0  0
 28 31  1  0  0  0
 29 30  2  0  0  0
  1  2  1  0  0  0
  1  6  1  0  0  0
  2  3  1  0  0  0
  2 14  1  0  0  0
  3  4  1  0  0  0
  4  5  1  0  0  0
  5  6  2  0  0  0
  5 10  1  0  0  0
  6  7  1  0  0  0
  7  8  2  0  0  0
  7 32  1  0  0  0
  8  9  1  0  0  0
  8 13  1  0  0  0
  9 10  2  0  0  0
  9 11  1  0  0  0
 11 12  1  0  0  0
 12 13  1  0  0  0
 32 33  1  0  0  0
  2 15  1  0  0  0
M  CHG 1   2   1
M  END
> <minimizedAffinity>
2.72869

$$$$
1151


 24 27  0  0  0  0  0  0  0  0999 V2000
    1.5806   15.3174  -11.6724 S   0  0  0  0  0  0  0  0  0  0  0  0
    1.1049   15.8644  -10.3580 O   0  0  0  0  0  0  0  0  0  0  0  0
    2.5680   16.2371  -12.3350 O   0  0  0  0  0  0  0  0  0  0  0  0
    2.2926   13.6973  -11.4813 C   0  0  0  0  0  0  0  0  0  0  0  0
    2.1262   13.0105  -12.8213 C   0  0  0  0  0  0  0  0  0  0  0  0
    0.7210   12.7219  -13.0253 N   0  0  0  0  0  0  0  0  0  0  0  0
   -0.2945   13.6541  -12.5822 C   0  0  0  0  0  0  0  0  0  0  0  0
    0.1935   15.0887  -12.7943 C   0  0  0  0  0  0  0  0  0  0  0  0
    0.6921   11.4591  -13.6779 C   0  0  0  0  0  0  0  0  0  0  0  0
   -0.3173   10.9403  -14.2648 O   0  0  0  0  0  0  0  0  0  0  0  0
    1.9611   10.8235  -13.5997 N   0  0  0  0  0  0  0  0  0  0  0  0
    2.8029   11.7108  -12.8786 C   0  0  0  0  0  0  0  0  0  0  0  0
    3.9327   11.4485  -12.3705 O   0  0  0  0  0  0  0  0  0  0  0  0
    2.3503    9.5284  -14.1370 C   0  0  0  0  0  0  0  0  0  0  0  0
    3.8588    9.4232  -14.2797 C   0  0  0  0  0  0  0  0  0  0  0  0
    4.1233    8.0680  -14.9393 C   0  0  0  0  0  0  0  0  0  0  0  0
    3.7369    7.0889  -13.9917 O   0  0  0  0  0  0  0  0  0  0  0  0
    2.6159    7.2789  -13.1914 C   0  0  0  0  0  0  0  0  0  0  0  0
    1.9137    8.4497  -13.2308 C   0  0  0  0  0  0  0  0  0  0  0  0
    0.8116    8.6371  -12.4438 C   0  0  0  0  0  0  0  0  0  0  0  0
    0.4197    7.6212  -11.6056 C   0  0  0  0  0  0  0  0  0  0  0  0
    1.1345    6.4505  -11.5769 C   0  0  0  0  0  0  0  0  0  0  0  0
    2.2535    6.2303  -12.3596 C   0  0  0  0  0  0  0  0  0  0  0  0
    3.2353    4.6034  -12.3100 Br  0  0  0  0  0  0  0  0  0  0  0  0
  1  2  2  0  0  0
  1  3  2  0  0  0
  1  4  1  0  0  0
  1  8  1  0  0  0
  4  5  1  0  0  0
  5  6  1  0  0  0
  5 12  1  0  0  0
  6  7  1  0  0  0
  6  9  1  0  0  0
  7  8  1  0  0  0
  9 10  2  0  0  0
  9 11  1  0  0  0
 11 12  1  0  0  0
 11 14  1  0  0  0
 12 13  2  0  0  0
 14 15  1  0  0  0
 14 19  1  0  0  0
 15 16  1  0  0  0
 16 17  1  0  0  0
 17 18  1  0  0  0
 18 19  2  0  0  0
 18 23  1  0  0  0
 19 20  1  0  0  0
 20 21  2  0  0  0
 21 22  1  0  0  0
 22 23  2  0  0  0
 23 24  1  0  0  0
M  END
> <minimizedAffinity>
-7.77501

$$$$
1157


 24 27  0  0  0  0  0  0  0  0999 V2000
    2.4215    8.0547  -13.8346 C   0  0  0  0  0  0  0  0  0  0  0  0
    2.9015    9.0591  -12.8183 C   0  0  0  0  0  0  0  0  0  0  0  0
    2.8962   10.2895  -13.5954 N   0  0  0  0  0  0  0  0  0  0  0  0
    3.5350    9.9515  -14.8449 C   0  0  0  0  0  0  0  0  0  0  0  0
    3.1882    8.4910  -15.0647 C   0  0  0  0  0  0  0  0  0  0  0  0
    2.3547   11.5461  -13.1577 C   0  0  0  0  0  0  0  0  0  0  0  0
    3.1463   12.4977  -12.6284 N   0  0  0  0  0  0  0  0  0  0  0  0
    2.6103   13.6633  -12.2266 C   0  0  0  0  0  0  0  0  0  0  0  0
    1.2687   13.9247  -12.3364 C   0  0  0  0  0  0  0  0  0  0  0  0
    0.4647   12.9856  -12.8633 N   0  0  0  0  0  0  0  0  0  0  0  0
    1.0124   11.8208  -13.2621 C   0  0  0  0  0  0  0  0  0  0  0  0
   -0.0208   11.0975  -13.7355 N   0  0  0  0  0  0  0  0  0  0  0  0
   -1.1552   11.7697  -13.6397 N   0  0  0  0  0  0  0  0  0  0  0  0
   -0.8703   12.9630  -13.0920 C   0  0  0  0  0  0  0  0  0  0  0  0
    0.0848    7.1561  -13.9863 C   0  0  0  0  0  0  0  0  0  0  0  0
    0.4165    6.0088  -13.5981 O   0  0  0  0  0  0  0  0  0  0  0  0
    1.0057    8.2183  -14.1299 N   0  0  0  0  0  0  0  0  0  0  0  0
    0.6418    9.1399  -14.4591 H   0  0  0  0  0  0  0  0  0  0  0  0
   -2.4169    6.3298  -15.1590 S   0  0  0  0  0  0  0  0  0  0  0  0
   -1.3520    7.3416  -14.2920 C   0  0  0  0  0  0  0  0  0  0  0  0
   -2.1565    8.3921  -13.9343 C   0  0  0  0  0  0  0  0  0  0  0  0
   -3.4340    8.3540  -14.3191 C   0  0  0  0  0  0  0  0  0  0  0  0
   -3.8385    7.2624  -15.0439 C   0  0  0  0  0  0  0  0  0  0  0  0
   -4.7249    9.7433  -13.9113 Br  0  0  0  0  0  0  0  0  0  0  0  0
 19 20  1  0  0  0
 19 23  1  0  0  0
 20 21  2  0  0  0
 20 15  1  0  0  0
 21 22  1  0  0  0
 22 23  2  0  0  0
 22 24  1  0  0  0
 15 16  2  0  0  0
 15 17  1  0  0  0
 17  1  1  0  0  0
  1  2  1  0  0  0
  1  5  1  0  0  0
  2  3  1  0  0  0
  3  4  1  0  0  0
  3  6  1  0  0  0
  4  5  1  0  0  0
  6  7  2  0  0  0
  6 11  1  0  0  0
  7  8  1  0  0  0
  8  9  2  0  0  0
  9 10  1  0  0  0
 10 11  1  0  0  0
 10 14  1  0  0  0
 11 12  2  0  0  0
 12 13  1  0  0  0
 13 14  2  0  0  0
 17 18  1  0  0  0
M  END
> <minimizedAffinity>
-7.69504

$$$$
1160


 25 28  0  0  0  0  0  0  0  0999 V2000
    2.1357   13.7757  -11.9758 C   0  0  0  0  0  0  0  0  0  0  0  0
    0.9637   14.1557  -12.5161 N   0  0  0  0  0  0  0  0  0  0  0  0
    0.7644   15.4698  -12.3153 C   0  0  0  0  0  0  0  0  0  0  0  0
    1.8469   15.8854  -11.6365 N   0  0  0  0  0  0  0  0  0  0  0  0
    2.6479   14.8613  -11.4463 O   0  0  0  0  0  0  0  0  0  0  0  0
   -0.3708   16.2933  -12.7317 C   0  0  0  0  0  0  0  0  0  0  0  0
   -1.0254   17.1859  -11.9698 N   0  0  0  0  0  0  0  0  0  0  0  0
   -2.0092   17.7558  -12.6739 N   0  0  0  0  0  0  0  0  0  0  0  0
   -1.9956   17.2255  -13.9175 C   0  0  0  0  0  0  0  0  0  0  0  0
   -0.9812   16.3292  -13.9276 N   0  0  0  0  0  0  0  0  0  0  0  0
   -2.9351   18.7689  -12.1959 C   0  0  0  0  0  0  0  0  0  0  0  0
   -2.9171   18.7642  -10.7176 C   0  0  0  0  0  0  0  0  0  0  0  0
   -3.9114   18.3142  -10.1072 O   0  0  0  0  0  0  0  0  0  0  0  0
   -1.7907   19.2609  -10.0211 N   0  0  0  0  0  0  0  0  0  0  0  0
   -1.3889   18.7573   -9.1829 H   0  0  0  0  0  0  0  0  0  0  0  0
   -1.2846   20.1420  -10.2808 H   0  0  0  0  0  0  0  0  0  0  0  0
    2.8726   11.7892  -13.3761 C   0  0  0  0  0  0  0  0  0  0  0  0
    2.7416   12.3976  -11.9730 C   0  0  0  0  0  0  0  0  0  0  0  0
    4.0594   12.1831  -12.6139 C   0  0  0  0  0  0  0  0  0  0  0  0
    2.6022    7.9026  -13.5063 S   0  0  0  0  0  0  0  0  0  0  0  0
    1.0302    8.5358  -13.3875 C   0  0  0  0  0  0  0  0  0  0  0  0
    1.2338    9.8903  -13.3467 C   0  0  0  0  0  0  0  0  0  0  0  0
    2.5170   10.3139  -13.4067 C   0  0  0  0  0  0  0  0  0  0  0  0
    3.4864    9.3560  -13.5029 C   0  0  0  0  0  0  0  0  0  0  0  0
   -0.6626    7.6096  -13.3229 Br  0  0  0  0  0  0  0  0  0  0  0  0
 20 21  1  0  0  0
 20 24  1  0  0  0
 21 22  2  0  0  0
 21 25  1  0  0  0
 22 23  1  0  0  0
 23 24  2  0  0  0
 23 17  1  0  0  0
 17 18  1  0  0  0
 17 19  1  0  0  0
 18 19  1  0  0  0
 18  1  1  0  0  0
  1  2  2  0  0  0
  1  5  1  0  0  0
  2  3  1  0  0  0
  3  4  2  0  0  0
  3  6  1  0  0  0
  4  5  1  0  0  0
  6  7  2  0  0  0
  6 10  1  0  0  0
  7  8  1  0  0  0
  8  9  1  0  0  0
  8 11  1  0  0  0
  9 10  2  0  0  0
 11 12  1  0  0  0
 12 13  2  0  0  0
 12 14  1  0  0  0
 14 15  1  0  0  0
 14 16  1  0  0  0
M  END
> <minimizedAffinity>
-8.35973

$$$$
1161


 29 32  0  0  0  0  0  0  0  0999 V2000
   -3.5732    8.9232  -14.4552 N   0  0  0  0  0  0  0  0  0  0  0  0
   -2.9462    7.7234  -14.4116 C   0  0  0  0  0  0  0  0  0  0  0  0
   -1.7035    7.8727  -13.8747 C   0  0  0  0  0  0  0  0  0  0  0  0
   -0.8685    6.7805  -13.7244 C   0  0  0  0  0  0  0  0  0  0  0  0
   -1.3111    5.5407  -14.1249 C   0  0  0  0  0  0  0  0  0  0  0  0
   -2.5581    5.3637  -14.6675 C   0  0  0  0  0  0  0  0  0  0  0  0
   -3.3647    6.4717  -14.8037 C   0  0  0  0  0  0  0  0  0  0  0  0
   -1.5639    9.1709  -13.5891 N   0  0  0  0  0  0  0  0  0  0  0  0
   -2.7138    9.8108  -13.9477 C   0  0  0  0  0  0  0  0  0  0  0  0
   -2.8265   11.0764  -13.7838 N   0  0  0  0  0  0  0  0  0  0  0  0
   -3.6106   11.6849  -14.0117 H   0  0  0  0  0  0  0  0  0  0  0  0
   -4.9061    9.1275  -14.9643 C   0  0  0  0  0  0  0  0  0  0  0  0
   -5.8072    9.7109  -13.9404 C   0  0  0  0  0  0  0  0  0  0  0  0
   -5.6058    9.5197  -12.7159 O   0  0  0  0  0  0  0  0  0  0  0  0
   -7.9735   10.4586  -15.6896 S   0  0  0  0  0  0  0  0  0  0  0  0
   -9.0370   11.7363  -15.3355 C   0  0  0  0  0  0  0  0  0  0  0  0
   -8.5732   12.1909  -14.1321 C   0  0  0  0  0  0  0  0  0  0  0  0
   -7.5140   11.5751  -13.6027 C   0  0  0  0  0  0  0  0  0  0  0  0
   -6.9678   10.5308  -14.3057 C   0  0  0  0  0  0  0  0  0  0  0  0
  -10.5074   12.3564  -16.3802 Br  0  0  0  0  0  0  0  0  0  0  0  0
   -0.3795    9.7636  -12.9836 C   0  0  0  0  0  0  0  0  0  0  0  0
    0.8333    9.4070  -13.8565 C   0  0  0  0  0  0  0  0  0  0  0  0
    1.9447    8.9525  -13.0716 N   0  0  0  0  0  0  0  0  0  0  0  0
    2.8789    8.1171  -13.7991 C   0  0  0  0  0  0  0  0  0  0  0  0
    3.3267    8.7589  -15.0818 C   0  0  0  0  0  0  0  0  0  0  0  0
    3.7533   10.1786  -14.9159 C   0  0  0  0  0  0  0  0  0  0  0  0
    3.1272   10.9193  -13.7890 C   0  0  0  0  0  0  0  0  0  0  0  0
    2.6900   10.1040  -12.6245 C   0  0  0  0  0  0  0  0  0  0  0  0
    1.6126    8.3753  -12.2688 H   0  0  0  0  0  0  0  0  0  0  0  0
 15 16  1  0  0  0
 15 19  1  0  0  0
 16 17  2  0  0  0
 16 20  1  0  0  0
 17 18  1  0  0  0
 18 19  2  0  0  0
 19 13  1  0  0  0
 13 14  2  0  0  0
 13 12  1  0  0  0
 12  1  1  0  0  0
  1  2  1  0  0  0
  1  9  1  0  0  0
  2  3  1  0  0  0
  2  7  2  0  0  0
  3  4  2  0  0  0
  3  8  1  0  0  0
  4  5  1  0  0  0
  5  6  2  0  0  0
  6  7  1  0  0  0
  8  9  1  0  0  0
  8 21  1  0  0  0
  9 10  2  0  0  0
 21 22  1  0  0  0
 22 23  1  0  0  0
 23 24  1  0  0  0
 23 28  1  0  0  0
 24 25  1  0  0  0
 25 26  1  0  0  0
 26 27  1  0  0  0
 27 28  1  0  0  0
 10 11  1  0  0  0
 23 29  1  0  0  0
M  CHG 1  23   1
M  END
> <minimizedAffinity>
-8.59995

$$$$
1177


 33 36  0  0  0  0  0  0  0  0999 V2000
    4.1218    6.2383  -13.1882 C   0  0  0  0  0  0  0  0  0  0  0  0
    3.9705    7.3783  -13.8346 C   0  0  0  0  0  0  0  0  0  0  0  0
    2.6995    8.1147  -14.1411 C   0  0  0  0  0  0  0  0  0  0  0  0
    3.0882    9.4902  -14.1147 N   0  0  0  0  0  0  0  0  0  0  0  0
    4.4464    9.4890  -14.6365 C   0  0  0  0  0  0  0  0  0  0  0  0
    4.9858   10.5108  -15.1415 O   0  0  0  0  0  0  0  0  0  0  0  0
    5.0189    8.1651  -14.4710 C   0  0  0  0  0  0  0  0  0  0  0  0
    6.1847    7.7736  -14.8104 O   0  0  0  0  0  0  0  0  0  0  0  0
    2.9738    5.5710  -12.7026 O   0  0  0  0  0  0  0  0  0  0  0  0
    6.7746    6.4158  -12.1957 S   0  0  0  0  0  0  0  0  0  0  0  0
    7.9297    5.1761  -12.3910 C   0  0  0  0  0  0  0  0  0  0  0  0
    7.2430    4.2544  -13.0392 N   0  0  0  0  0  0  0  0  0  0  0  0
    5.9974    4.4656  -13.3474 C   0  0  0  0  0  0  0  0  0  0  0  0
    5.4476    5.6633  -12.9721 C   0  0  0  0  0  0  0  0  0  0  0  0
    5.2225    3.4155  -14.1330 C   0  0  0  0  0  0  0  0  0  0  0  0
    9.3715    5.1392  -11.9399 C   0  0  0  0  0  0  0  0  0  0  0  0
    1.6093    7.7085  -13.2639 C   0  0  0  0  0  0  0  0  0  0  0  0
    0.5178    7.0411  -13.8417 C   0  0  0  0  0  0  0  0  0  0  0  0
   -0.5555    6.5881  -13.1179 C   0  0  0  0  0  0  0  0  0  0  0  0
   -0.5871    6.7841  -11.7593 C   0  0  0  0  0  0  0  0  0  0  0  0
    0.4735    7.4384  -11.1520 C   0  0  0  0  0  0  0  0  0  0  0  0
    1.5358    7.8800  -11.9121 C   0  0  0  0  0  0  0  0  0  0  0  0
   -2.0279    5.6826  -13.9307 Br  0  0  0  0  0  0  0  0  0  0  0  0
    2.3703   10.6767  -13.7536 C   0  0  0  0  0  0  0  0  0  0  0  0
    2.9046   11.4463  -12.5895 C   0  0  0  0  0  0  0  0  0  0  0  0
    2.6654   12.9524  -12.7771 C   0  0  0  0  0  0  0  0  0  0  0  0
    1.6621   13.3636  -11.8540 N   0  0  0  0  0  0  0  0  0  0  0  0
    1.9618   14.5146  -11.0637 C   0  0  0  0  0  0  0  0  0  0  0  0
    1.8543   15.8133  -11.8270 C   0  0  0  0  0  0  0  0  0  0  0  0
    1.5357   15.4760  -13.1617 O   0  0  0  0  0  0  0  0  0  0  0  0
    0.2335   14.9412  -13.0947 C   0  0  0  0  0  0  0  0  0  0  0  0
    0.3727   13.5592  -12.4908 C   0  0  0  0  0  0  0  0  0  0  0  0
    1.5195   12.5578  -11.1730 H   0  0  0  0  0  0  0  0  0  0  0  0
 10 11  1  0  0  0
 10 14  1  0  0  0
 11 12  2  0  0  0
 11 16  1  0  0  0
 12 13  1  0  0  0
 13 14  2  0  0  0
 13 15  1  0  0  0
 14  1  1  0  0  0
  1  2  2  0  0  0
  1  9  1  0  0  0
  2  3  1  0  0  0
  2  7  1  0  0  0
  3  4  1  0  0  0
  3 17  1  0  0  0
  4  5  1  0  0  0
  4 24  1  0  0  0
  5  6  2  0  0  0
  5  7  1  0  0  0
  7  8  2  0  0  0
 24 25  1  0  0  0
 25 26  1  0  0  0
 26 27  1  0  0  0
 27 28  1  0  0  0
 27 32  1  0  0  0
 28 29  1  0  0  0
 29 30  1  0  0  0
 30 31  1  0  0  0
 31 32  1  0  0  0
 17 18  2  0  0  0
 17 22  1  0  0  0
 18 19  1  0  0  0
 19 20  2  0  0  0
 19 23  1  0  0  0
 20 21  1  0  0  0
 21 22  2  0  0  0
 27 33  1  0  0  0
M  CHG 1   9  -1
M  CHG 1  27   1
M  END
> <minimizedAffinity>
-7.03754

$$$$
1178


 33 36  0  0  0  0  0  0  0  0999 V2000
    5.5027    7.5365  -13.8370 C   0  0  0  0  0  0  0  0  0  0  0  0
    4.6231    6.6091  -13.5990 C   0  0  0  0  0  0  0  0  0  0  0  0
    3.1392    6.7847  -13.6796 C   0  0  0  0  0  0  0  0  0  0  0  0
    2.6626    5.9022  -12.6480 N   0  0  0  0  0  0  0  0  0  0  0  0
    3.5625    4.7856  -12.6584 C   0  0  0  0  0  0  0  0  0  0  0  0
    3.3179    3.6440  -12.2283 O   0  0  0  0  0  0  0  0  0  0  0  0
    4.8199    5.2054  -13.2609 C   0  0  0  0  0  0  0  0  0  0  0  0
    5.8847    4.5669  -13.4829 O   0  0  0  0  0  0  0  0  0  0  0  0
    5.0666    8.8192  -14.2102 O   0  0  0  0  0  0  0  0  0  0  0  0
    8.0187    6.5659  -14.8679 S   0  0  0  0  0  0  0  0  0  0  0  0
    9.4629    6.6622  -13.9696 C   0  0  0  0  0  0  0  0  0  0  0  0
    9.0607    7.2135  -12.8426 N   0  0  0  0  0  0  0  0  0  0  0  0
    7.8103    7.5228  -12.6821 C   0  0  0  0  0  0  0  0  0  0  0  0
    6.9501    7.2535  -13.7190 C   0  0  0  0  0  0  0  0  0  0  0  0
    7.3164    8.2028  -11.4078 C   0  0  0  0  0  0  0  0  0  0  0  0
   10.8610    6.2388  -14.3318 C   0  0  0  0  0  0  0  0  0  0  0  0
    2.7673    8.1997  -13.5328 C   0  0  0  0  0  0  0  0  0  0  0  0
    2.8454    8.9493  -12.3913 C   0  0  0  0  0  0  0  0  0  0  0  0
    2.4822   10.2735  -12.2953 C   0  0  0  0  0  0  0  0  0  0  0  0
    2.0045   10.9048  -13.4157 C   0  0  0  0  0  0  0  0  0  0  0  0
    1.9015   10.2073  -14.5904 C   0  0  0  0  0  0  0  0  0  0  0  0
    2.2739    8.8844  -14.6518 C   0  0  0  0  0  0  0  0  0  0  0  0
    1.5011   12.7494  -13.2789 Br  0  0  0  0  0  0  0  0  0  0  0  0
    1.5101    6.1296  -11.8285 C   0  0  0  0  0  0  0  0  0  0  0  0
    0.2159    5.7958  -12.4447 C   0  0  0  0  0  0  0  0  0  0  0  0
   -0.6679    6.8711  -12.8138 C   0  0  0  0  0  0  0  0  0  0  0  0
   -0.9325    7.4117  -14.0613 N   0  0  0  0  0  0  0  0  0  0  0  0
   -1.3911    8.8449  -13.9343 C   0  0  0  0  0  0  0  0  0  0  0  0
   -2.8335    8.8638  -13.5495 C   0  0  0  0  0  0  0  0  0  0  0  0
   -3.5575    8.3853  -14.6357 O   0  0  0  0  0  0  0  0  0  0  0  0
   -3.2653    7.0042  -14.6988 C   0  0  0  0  0  0  0  0  0  0  0  0
   -1.8067    6.7806  -14.9874 C   0  0  0  0  0  0  0  0  0  0  0  0
   -0.0346    7.5570  -14.5833 H   0  0  0  0  0  0  0  0  0  0  0  0
 10 11  1  0  0  0
 10 14  1  0  0  0
 11 12  2  0  0  0
 11 16  1  0  0  0
 12 13  1  0  0  0
 13 14  2  0  0  0
 13 15  1  0  0  0
 14  1  1  0  0  0
  1  2  2  0  0  0
  1  9  1  0  0  0
  2  3  1  0  0  0
  2  7  1  0  0  0
  3  4  1  0  0  0
  3 17  1  0  0  0
  4  5  1  0  0  0
  4 24  1  0  0  0
  5  6  2  0  0  0
  5  7  1  0  0  0
  7  8  2  0  0  0
 24 25  1  0  0  0
 25 26  1  0  0  0
 26 27  1  0  0  0
 27 28  1  0  0  0
 27 32  1  0  0  0
 28 29  1  0  0  0
 29 30  1  0  0  0
 30 31  1  0  0  0
 31 32  1  0  0  0
 17 18  2  0  0  0
 17 22  1  0  0  0
 18 19  1  0  0  0
 19 20  2  0  0  0
 20 21  1  0  0  0
 20 23  1  0  0  0
 21 22  2  0  0  0
 27 33  1  0  0  0
M  CHG 1   9  -1
M  CHG 1  27   1
M  END
> <minimizedAffinity>
-5.86630

$$$$
1180


 32 35  0  0  0  0  0  0  0  0999 V2000
    1.4128    8.5932  -13.9545 C   0  0  0  0  0  0  0  0  0  0  0  0
    1.2195    9.7270  -13.3144 C   0  0  0  0  0  0  0  0  0  0  0  0
   -0.0487   10.4887  -13.1009 C   0  0  0  0  0  0  0  0  0  0  0  0
    0.3733   11.8012  -13.4038 N   0  0  0  0  0  0  0  0  0  0  0  0
    1.6312   11.9063  -12.6284 C   0  0  0  0  0  0  0  0  0  0  0  0
    2.1261   12.9490  -12.1229 O   0  0  0  0  0  0  0  0  0  0  0  0
    2.1744   10.5533  -12.5766 C   0  0  0  0  0  0  0  0  0  0  0  0
    3.2335   10.1153  -12.0299 O   0  0  0  0  0  0  0  0  0  0  0  0
    0.3449    7.9381  -14.5414 O   0  0  0  0  0  0  0  0  0  0  0  0
    4.1581    8.7428  -14.8217 S   0  0  0  0  0  0  0  0  0  0  0  0
    5.3288    7.6097  -14.3321 C   0  0  0  0  0  0  0  0  0  0  0  0
    4.6279    6.7895  -13.5748 N   0  0  0  0  0  0  0  0  0  0  0  0
    3.3611    6.9945  -13.3890 C   0  0  0  0  0  0  0  0  0  0  0  0
    2.7915    8.0834  -14.0054 C   0  0  0  0  0  0  0  0  0  0  0  0
    2.5442    6.0850  -12.4828 C   0  0  0  0  0  0  0  0  0  0  0  0
    6.7929    7.5512  -14.6750 C   0  0  0  0  0  0  0  0  0  0  0  0
   -1.2611    9.8859  -13.5347 C   0  0  0  0  0  0  0  0  0  0  0  0
   -2.2301   10.6810  -14.1537 C   0  0  0  0  0  0  0  0  0  0  0  0
   -3.4320   10.1836  -14.5855 C   0  0  0  0  0  0  0  0  0  0  0  0
   -3.6824    8.8409  -14.3960 C   0  0  0  0  0  0  0  0  0  0  0  0
   -2.7394    8.0392  -13.7870 C   0  0  0  0  0  0  0  0  0  0  0  0
   -1.5398    8.5616  -13.3613 C   0  0  0  0  0  0  0  0  0  0  0  0
   -5.3345    8.0655  -14.9692 Br  0  0  0  0  0  0  0  0  0  0  0  0
   -0.0507   12.9671  -14.1013 C   0  0  0  0  0  0  0  0  0  0  0  0
   -0.9958   13.9009  -13.4768 C   0  0  0  0  0  0  0  0  0  0  0  0
   -0.5713   14.9852  -12.6886 N   0  0  0  0  0  0  0  0  0  0  0  0
    0.7642   15.4608  -12.9811 C   0  0  0  0  0  0  0  0  0  0  0  0
    1.0755   16.5274  -11.9362 C   0  0  0  0  0  0  0  0  0  0  0  0
   -0.0899   16.9624  -11.3051 O   0  0  0  0  0  0  0  0  0  0  0  0
   -0.9665   17.3320  -12.3452 C   0  0  0  0  0  0  0  0  0  0  0  0
   -1.4325   16.1341  -13.1219 C   0  0  0  0  0  0  0  0  0  0  0  0
   -0.7773   14.8454  -11.6941 H   0  0  0  0  0  0  0  0  0  0  0  0
 10 11  1  0  0  0
 10 14  1  0  0  0
 11 12  2  0  0  0
 11 16  1  0  0  0
 12 13  1  0  0  0
 13 14  2  0  0  0
 13 15  1  0  0  0
 14  1  1  0  0  0
  1  2  2  0  0  0
  1  9  1  0  0  0
  2  3  1  0  0  0
  2  7  1  0  0  0
  3  4  1  0  0  0
  3 17  1  0  0  0
  4  5  1  0  0  0
  4 24  1  0  0  0
  5  6  2  0  0  0
  5  7  1  0  0  0
  7  8  2  0  0  0
 24 25  1  0  0  0
 25 26  1  0  0  0
 26 27  1  0  0  0
 26 31  1  0  0  0
 27 28  1  0  0  0
 28 29  1  0  0  0
 29 30  1  0  0  0
 30 31  1  0  0  0
 17 18  2  0  0  0
 17 22  1  0  0  0
 18 19  1  0  0  0
 19 20  2  0  0  0
 20 21  1  0  0  0
 20 23  1  0  0  0
 21 22  2  0  0  0
 26 32  1  0  0  0
M  CHG 1   9  -1
M  CHG 1  26   1
M  END
> <minimizedAffinity>
-7.26440

$$$$
1192


 27 30  0  0  0  0  0  0  0  0999 V2000
    2.6444    9.9496  -15.2629 S   0  0  0  0  0  0  0  0  0  0  0  0
    1.7809    8.7253  -14.4225 C   0  0  0  0  0  0  0  0  0  0  0  0
    2.0364    9.0287  -13.1125 C   0  0  0  0  0  0  0  0  0  0  0  0
    2.8142   10.0936  -12.8631 C   0  0  0  0  0  0  0  0  0  0  0  0
    3.2906   10.7936  -13.9387 C   0  0  0  0  0  0  0  0  0  0  0  0
    4.1578   11.9812  -13.6382 C   0  0  0  0  0  0  0  0  0  0  0  0
    3.4203   12.8561  -12.7293 N   0  0  0  0  0  0  0  0  0  0  0  0
    2.9524   12.1874  -11.5549 C   0  0  0  0  0  0  0  0  0  0  0  0
    3.2880   10.7001  -11.5507 C   0  0  0  0  0  0  0  0  0  0  0  0
    2.2460   13.3030  -13.4788 C   0  0  0  0  0  0  0  0  0  0  0  0
    1.3984    8.1044  -12.1343 C   0  0  0  0  0  0  0  0  0  0  0  0
    1.5544    8.2730  -10.8889 O   0  0  0  0  0  0  0  0  0  0  0  0
    0.6108    7.0304  -12.6236 N   0  0  0  0  0  0  0  0  0  0  0  0
    0.0050    6.9904  -13.9223 C   0  0  0  0  0  0  0  0  0  0  0  0
    0.9592    7.6051  -14.8316 N   0  0  0  0  0  0  0  0  0  0  0  0
    3.9723   13.7153  -12.5337 H   0  0  0  0  0  0  0  0  0  0  0  0
    0.4719    6.2083  -11.9696 H   0  0  0  0  0  0  0  0  0  0  0  0
    1.0915    7.2703  -15.8076 H   0  0  0  0  0  0  0  0  0  0  0  0
   -1.2793    7.7302  -13.9798 C   0  0  0  0  0  0  0  0  0  0  0  0
   -1.3652    9.0681  -13.6537 C   0  0  0  0  0  0  0  0  0  0  0  0
   -2.5478    9.7710  -13.7023 C   0  0  0  0  0  0  0  0  0  0  0  0
   -3.7088    9.1330  -14.0886 C   0  0  0  0  0  0  0  0  0  0  0  0
   -3.6477    7.8002  -14.4181 C   0  0  0  0  0  0  0  0  0  0  0  0
   -2.4566    7.1020  -14.3673 C   0  0  0  0  0  0  0  0  0  0  0  0
   -5.2876    6.9524  -14.9509 Br  0  0  0  0  0  0  0  0  0  0  0  0
   -4.9043    9.8355  -14.1397 O   0  0  0  0  0  0  0  0  0  0  0  0
   -2.6529   11.6093  -13.2524 Br  0  0  0  0  0  0  0  0  0  0  0  0
  1  2  1  0  0  0
  1  5  1  0  0  0
  2  3  2  0  0  0
  2 15  1  0  0  0
  3  4  1  0  0  0
  3 11  1  0  0  0
  4  5  2  0  0  0
  4  9  1  0  0  0
  5  6  1  0  0  0
  6  7  1  0  0  0
  7  8  1  0  0  0
  7 10  1  0  0  0
  8  9  1  0  0  0
 11 12  2  0  0  0
 11 13  1  0  0  0
 13 14  1  0  0  0
 14 15  1  0  0  0
 14 19  1  0  0  0
 19 20  2  0  0  0
 19 24  1  0  0  0
 20 21  1  0  0  0
 21 22  2  0  0  0
 21 27  1  0  0  0
 22 23  1  0  0  0
 22 26  1  0  0  0
 23 24  2  0  0  0
 23 25  1  0  0  0
  7 16  1  0  0  0
 13 17  1  0  0  0
 15 18  1  0  0  0
M  CHG 1   7   1
M  CHG 1  26  -1
M  END
> <minimizedAffinity>
-4.28863

$$$$
1193


 29 32  0  0  0  0  0  0  0  0999 V2000
    4.3736   11.5720  -12.3045 S   0  0  0  0  0  0  0  0  0  0  0  0
    3.7188   10.8291  -13.6948 C   0  0  0  0  0  0  0  0  0  0  0  0
    2.4919   11.4208  -13.8108 C   0  0  0  0  0  0  0  0  0  0  0  0
    2.1641   12.3488  -12.8765 C   0  0  0  0  0  0  0  0  0  0  0  0
    3.0943   12.6067  -11.9007 C   0  0  0  0  0  0  0  0  0  0  0  0
    2.8523   13.6031  -10.8160 C   0  0  0  0  0  0  0  0  0  0  0  0
    2.0333   14.6995  -11.2040 N   0  0  0  0  0  0  0  0  0  0  0  0
    1.3115   14.5540  -12.4220 C   0  0  0  0  0  0  0  0  0  0  0  0
    0.8710   13.1645  -12.7602 C   0  0  0  0  0  0  0  0  0  0  0  0
    1.1662   15.1192  -10.1096 C   0  0  0  0  0  0  0  0  0  0  0  0
    1.7024   10.9369  -14.9849 C   0  0  0  0  0  0  0  0  0  0  0  0
    0.5404   11.4129  -15.1998 O   0  0  0  0  0  0  0  0  0  0  0  0
    2.2496    9.9567  -15.8447 N   0  0  0  0  0  0  0  0  0  0  0  0
    3.2239    9.0057  -15.3565 C   0  0  0  0  0  0  0  0  0  0  0  0
    4.1944    9.8189  -14.6248 N   0  0  0  0  0  0  0  0  0  0  0  0
    2.6905   15.5289  -11.3450 H   0  0  0  0  0  0  0  0  0  0  0  0
    1.9503    9.9151  -16.8442 H   0  0  0  0  0  0  0  0  0  0  0  0
    5.2201    9.7322  -14.7161 H   0  0  0  0  0  0  0  0  0  0  0  0
    2.5192    8.0928  -14.4190 C   0  0  0  0  0  0  0  0  0  0  0  0
    1.1504    8.1557  -14.2699 C   0  0  0  0  0  0  0  0  0  0  0  0
    0.4783    7.3183  -13.4060 C   0  0  0  0  0  0  0  0  0  0  0  0
    1.1926    6.3867  -12.6641 C   0  0  0  0  0  0  0  0  0  0  0  0
    2.5621    6.3016  -12.7927 C   0  0  0  0  0  0  0  0  0  0  0  0
    3.1962    7.1416  -13.6534 C   0  0  0  0  0  0  0  0  0  0  0  0
    0.5349    5.5303  -11.7845 O   0  0  0  0  0  0  0  0  0  0  0  0
   -1.4138    7.3938  -13.1904 Br  0  0  0  0  0  0  0  0  0  0  0  0
    3.2269    5.3574  -12.0324 O   0  0  0  0  0  0  0  0  0  0  0  0
    3.5408    4.0599  -12.4295 C   0  0  0  0  0  0  0  0  0  0  0  0
    4.8577    4.0102  -13.1731 C   0  0  0  0  0  0  0  0  0  0  0  0
  1  2  1  0  0  0
  1  5  1  0  0  0
  2  3  2  0  0  0
  2 15  1  0  0  0
  3  4  1  0  0  0
  3 11  1  0  0  0
  4  5  2  0  0  0
  4  9  1  0  0  0
  5  6  1  0  0  0
  6  7  1  0  0  0
  7  8  1  0  0  0
  7 10  1  0  0  0
  8  9  1  0  0  0
 11 12  2  0  0  0
 11 13  1  0  0  0
 13 14  1  0  0  0
 14 15  1  0  0  0
 14 19  1  0  0  0
 19 20  2  0  0  0
 19 24  1  0  0  0
 20 21  1  0  0  0
 21 22  2  0  0  0
 21 26  1  0  0  0
 22 23  1  0  0  0
 22 25  1  0  0  0
 23 24  2  0  0  0
 23 27  1  0  0  0
 27 28  1  0  0  0
 28 29  1  0  0  0
  7 16  1  0  0  0
 13 17  1  0  0  0
 15 18  1  0  0  0
M  CHG 1   7   1
M  CHG 1  25  -1
M  END
> <minimizedAffinity>
-5.63684

$$$$
1206


 25 28  0  0  0  0  0  0  0  0999 V2000
   -0.8820    8.0480  -12.6198 S   0  0  0  0  0  0  0  0  0  0  0  0
   -0.5654    6.3497  -13.1654 C   0  0  0  0  0  0  0  0  0  0  0  0
    0.8960    6.2525  -12.8215 C   0  0  0  0  0  0  0  0  0  0  0  0
    1.5731    7.5036  -12.9806 N   0  0  0  0  0  0  0  0  0  0  0  0
    0.7930    8.5957  -12.9297 C   0  0  0  0  0  0  0  0  0  0  0  0
    1.5461    9.6856  -13.1176 N   0  0  0  0  0  0  0  0  0  0  0  0
    2.8292    9.2971  -13.2910 C   0  0  0  0  0  0  0  0  0  0  0  0
    2.8640    7.9257  -13.2061 C   0  0  0  0  0  0  0  0  0  0  0  0
   -0.6976    6.2196  -14.6635 C   0  0  0  0  0  0  0  0  0  0  0  0
    1.0965   11.0354  -13.1355 C   0  0  0  0  0  0  0  0  0  0  0  0
   -0.1534   11.3818  -13.5930 C   0  0  0  0  0  0  0  0  0  0  0  0
   -0.6134   12.6816  -13.6207 C   0  0  0  0  0  0  0  0  0  0  0  0
    0.2013   13.6989  -13.1753 C   0  0  0  0  0  0  0  0  0  0  0  0
    1.4663   13.3886  -12.7081 C   0  0  0  0  0  0  0  0  0  0  0  0
    1.9018   12.0791  -12.6904 C   0  0  0  0  0  0  0  0  0  0  0  0
   -0.4022   15.5144  -13.1993 Br  0  0  0  0  0  0  0  0  0  0  0  0
    4.0603    7.1304  -13.3489 C   0  0  0  0  0  0  0  0  0  0  0  0
    5.2148    7.7648  -13.8394 C   0  0  0  0  0  0  0  0  0  0  0  0
    6.3957    7.0791  -13.9622 C   0  0  0  0  0  0  0  0  0  0  0  0
    6.5299    5.7564  -13.6226 C   0  0  0  0  0  0  0  0  0  0  0  0
    5.4148    5.1125  -13.1396 C   0  0  0  0  0  0  0  0  0  0  0  0
    4.2083    5.8114  -13.0128 C   0  0  0  0  0  0  0  0  0  0  0  0
    7.7834    5.1200  -13.7800 N   0  0  0  0  0  0  0  0  0  0  0  0
    8.7214    5.6989  -14.3394 O   0  0  0  0  0  0  0  0  0  0  0  0
    7.9530    3.8546  -13.3074 O   0  0  0  0  0  0  0  0  0  0  0  0
  1  2  1  0  0  0
  1  5  1  0  0  0
  2  3  1  0  0  0
  2  9  1  0  0  0
  3  4  1  0  0  0
  4  5  1  0  0  0
  4  8  1  0  0  0
  5  6  2  0  0  0
  6  7  1  0  0  0
  6 10  1  0  0  0
  7  8  2  0  0  0
  8 17  1  0  0  0
 17 18  2  0  0  0
 17 22  1  0  0  0
 18 19  1  0  0  0
 19 20  2  0  0  0
 20 21  1  0  0  0
 20 23  1  0  0  0
 21 22  2  0  0  0
 23 24  2  0  0  0
 23 25  1  0  0  0
 10 11  2  0  0  0
 10 15  1  0  0  0
 11 12  1  0  0  0
 12 13  2  0  0  0
 13 14  1  0  0  0
 13 16  1  0  0  0
 14 15  2  0  0  0
M  CHG 1  25  -1
M  END
> <minimizedAffinity>
-7.96371

$$$$
1209


 24 27  0  0  0  0  0  0  0  0999 V2000
   -3.4585    6.8082  -14.5161 S   0  0  0  0  0  0  0  0  0  0  0  0
   -5.2465    6.8355  -14.2054 C   0  0  0  0  0  0  0  0  0  0  0  0
   -5.6445    8.2864  -14.0032 C   0  0  0  0  0  0  0  0  0  0  0  0
   -4.9891    9.1590  -15.0534 C   0  0  0  0  0  0  0  0  0  0  0  0
   -3.6642    9.4884  -14.5541 N   0  0  0  0  0  0  0  0  0  0  0  0
   -2.8529    8.4676  -14.2657 C   0  0  0  0  0  0  0  0  0  0  0  0
   -1.6530    8.9725  -13.8102 N   0  0  0  0  0  0  0  0  0  0  0  0
   -1.7163   10.2937  -13.8149 C   0  0  0  0  0  0  0  0  0  0  0  0
   -2.9905   10.6006  -14.2861 C   0  0  0  0  0  0  0  0  0  0  0  0
   -0.5773    8.1214  -13.4215 C   0  0  0  0  0  0  0  0  0  0  0  0
   -0.3851    7.7825  -12.0936 C   0  0  0  0  0  0  0  0  0  0  0  0
    0.6284    6.9372  -11.6885 C   0  0  0  0  0  0  0  0  0  0  0  0
    1.4695    6.4228  -12.6552 C   0  0  0  0  0  0  0  0  0  0  0  0
    1.2708    6.7664  -13.9756 C   0  0  0  0  0  0  0  0  0  0  0  0
    0.2663    7.6076  -14.4019 C   0  0  0  0  0  0  0  0  0  0  0  0
    2.9088    5.2391  -12.1875 Br  0  0  0  0  0  0  0  0  0  0  0  0
   -0.7352   11.2973  -13.4341 C   0  0  0  0  0  0  0  0  0  0  0  0
   -1.1759   12.5433  -12.9647 C   0  0  0  0  0  0  0  0  0  0  0  0
   -0.3009   13.5260  -12.5925 C   0  0  0  0  0  0  0  0  0  0  0  0
    1.0653   13.3698  -12.6483 C   0  0  0  0  0  0  0  0  0  0  0  0
    1.5063   12.1551  -13.1063 C   0  0  0  0  0  0  0  0  0  0  0  0
    0.6272   11.1335  -13.4937 C   0  0  0  0  0  0  0  0  0  0  0  0
    1.9220   14.3909  -12.2611 O   0  0  0  0  0  0  0  0  0  0  0  0
    1.4121   15.5497  -11.6279 C   0  0  0  0  0  0  0  0  0  0  0  0
  1  2  1  0  0  0
  1  6  1  0  0  0
  2  3  1  0  0  0
  3  4  1  0  0  0
  4  5  1  0  0  0
  5  6  2  0  0  0
  5  9  1  0  0  0
  6  7  1  0  0  0
  7  8  1  0  0  0
  7 10  1  0  0  0
  8  9  2  0  0  0
  8 17  1  0  0  0
 17 18  2  0  0  0
 17 22  1  0  0  0
 18 19  1  0  0  0
 19 20  2  0  0  0
 20 21  1  0  0  0
 20 23  1  0  0  0
 21 22  2  0  0  0
 23 24  1  0  0  0
 10 11  2  0  0  0
 10 15  1  0  0  0
 11 12  1  0  0  0
 12 13  2  0  0  0
 13 14  1  0  0  0
 13 16  1  0  0  0
 14 15  2  0  0  0
M  END
> <minimizedAffinity>
-7.92297

$$$$
1211


 26 29  0  0  0  0  0  0  0  0999 V2000
    1.4718    7.5812  -11.5194 S   0  0  0  0  0  0  0  0  0  0  0  0
   -0.3582    7.4838  -11.6218 C   0  0  0  0  0  0  0  0  0  0  0  0
   -0.6452    7.3063  -13.1145 C   0  0  0  0  0  0  0  0  0  0  0  0
   -0.2375    8.5955  -13.8204 C   0  0  0  0  0  0  0  0  0  0  0  0
    1.1794    8.5141  -14.0752 N   0  0  0  0  0  0  0  0  0  0  0  0
    2.0009    8.0890  -13.1508 C   0  0  0  0  0  0  0  0  0  0  0  0
    3.3366    8.1078  -13.7205 N   0  0  0  0  0  0  0  0  0  0  0  0
    3.2767    9.2935  -14.5475 C   0  0  0  0  0  0  0  0  0  0  0  0
    1.9634    8.8217  -15.2756 C   0  0  0  0  0  0  0  0  0  0  0  0
    4.3018    9.4621  -15.4231 O   0  0  0  0  0  0  0  0  0  0  0  0
    4.3015   10.4199  -15.7324 H   0  0  0  0  0  0  0  0  0  0  0  0
    4.3507    7.1455  -13.5397 C   0  0  0  0  0  0  0  0  0  0  0  0
    5.6904    7.5549  -13.7492 C   0  0  0  0  0  0  0  0  0  0  0  0
    6.7485    6.6684  -13.6475 C   0  0  0  0  0  0  0  0  0  0  0  0
    6.5396    5.3520  -13.3402 C   0  0  0  0  0  0  0  0  0  0  0  0
    5.2457    4.9222  -13.1310 C   0  0  0  0  0  0  0  0  0  0  0  0
    4.1745    5.8308  -13.2340 C   0  0  0  0  0  0  0  0  0  0  0  0
    7.9650    4.0875  -13.2091 Br  0  0  0  0  0  0  0  0  0  0  0  0
    2.9435   10.4576  -13.7187 C   0  0  0  0  0  0  0  0  0  0  0  0
    1.8454   11.2658  -13.9584 C   0  0  0  0  0  0  0  0  0  0  0  0
    1.6113   12.3820  -13.1407 C   0  0  0  0  0  0  0  0  0  0  0  0
    2.4193   12.7090  -12.1183 C   0  0  0  0  0  0  0  0  0  0  0  0
    3.5455   11.9053  -11.8444 C   0  0  0  0  0  0  0  0  0  0  0  0
    3.7413   10.8143  -12.6732 C   0  0  0  0  0  0  0  0  0  0  0  0
    2.2186   13.8295  -11.2705 O   0  0  0  0  0  0  0  0  0  0  0  0
    1.8839   15.0870  -11.8182 C   0  0  0  0  0  0  0  0  0  0  0  0
  1  2  1  0  0  0
  1  6  1  0  0  0
  2  3  1  0  0  0
  3  4  1  0  0  0
  4  5  1  0  0  0
  5  6  2  0  0  0
  5  9  1  0  0  0
  6  7  1  0  0  0
  7  8  1  0  0  0
  7 12  1  0  0  0
  8  9  1  0  0  0
  8 10  1  0  0  0
  8 19  1  0  0  0
 19 20  2  0  0  0
 19 24  1  0  0  0
 20 21  1  0  0  0
 21 22  2  0  0  0
 22 23  1  0  0  0
 22 25  1  0  0  0
 23 24  2  0  0  0
 25 26  1  0  0  0
 12 13  2  0  0  0
 12 17  1  0  0  0
 13 14  1  0  0  0
 14 15  2  0  0  0
 15 16  1  0  0  0
 15 18  1  0  0  0
 16 17  2  0  0  0
 10 11  1  0  0  0
M  END
> <minimizedAffinity>
-8.40991

$$$$
1217


 28 31  0  0  0  0  0  0  0  0999 V2000
    0.7283    6.2901  -12.2126 S   0  0  0  0  0  0  0  0  0  0  0  0
    2.1242    5.3109  -11.7168 C   0  0  0  0  0  0  0  0  0  0  0  0
    3.4048    6.0693  -12.0030 C   0  0  0  0  0  0  0  0  0  0  0  0
    3.4996    6.3490  -13.4925 C   0  0  0  0  0  0  0  0  0  0  0  0
    2.5882    7.4111  -13.8535 N   0  0  0  0  0  0  0  0  0  0  0  0
    2.7935    8.6615  -14.5094 C   0  0  0  0  0  0  0  0  0  0  0  0
    1.4760    8.7742  -15.2603 C   0  0  0  0  0  0  0  0  0  0  0  0
    0.5254    8.1946  -14.3384 N   0  0  0  0  0  0  0  0  0  0  0  0
    1.1761    7.3834  -13.5794 C   0  0  0  0  0  0  0  0  0  0  0  0
    3.8652    8.5741  -15.3918 O   0  0  0  0  0  0  0  0  0  0  0  0
    4.0953    7.6313  -15.5554 H   0  0  0  0  0  0  0  0  0  0  0  0
    2.9017    9.8379  -13.6246 C   0  0  0  0  0  0  0  0  0  0  0  0
    2.6360    9.8707  -12.2921 C   0  0  0  0  0  0  0  0  0  0  0  0
    2.7370   11.0531  -11.5560 C   0  0  0  0  0  0  0  0  0  0  0  0
    3.1098   12.2381  -12.1551 C   0  0  0  0  0  0  0  0  0  0  0  0
    3.3782   12.2163  -13.4892 C   0  0  0  0  0  0  0  0  0  0  0  0
    3.2793   11.0588  -14.2095 C   0  0  0  0  0  0  0  0  0  0  0  0
    3.2379   13.8554  -11.1324 Br  0  0  0  0  0  0  0  0  0  0  0  0
   -0.8625    8.4783  -14.2370 C   0  0  0  0  0  0  0  0  0  0  0  0
   -1.2174    9.7340  -13.7620 C   0  0  0  0  0  0  0  0  0  0  0  0
   -2.5643   10.0787  -13.6097 C   0  0  0  0  0  0  0  0  0  0  0  0
   -3.5473    9.1598  -13.9327 C   0  0  0  0  0  0  0  0  0  0  0  0
   -3.2317    7.9085  -14.4059 C   0  0  0  0  0  0  0  0  0  0  0  0
   -1.8583    7.6241  -14.5367 C   0  0  0  0  0  0  0  0  0  0  0  0
   -4.1668    6.9465  -14.7465 O   0  0  0  0  0  0  0  0  0  0  0  0
   -5.5537    7.1262  -14.7878 C   0  0  0  0  0  0  0  0  0  0  0  0
   -0.2350   10.6450  -13.4387 O   0  0  0  0  0  0  0  0  0  0  0  0
   -0.3544   12.0434  -13.5553 C   0  0  0  0  0  0  0  0  0  0  0  0
  1  2  1  0  0  0
  1  9  1  0  0  0
  2  3  1  0  0  0
  3  4  1  0  0  0
  4  5  1  0  0  0
  5  6  1  0  0  0
  5  9  1  0  0  0
  6  7  1  0  0  0
  6 10  1  0  0  0
  6 12  1  0  0  0
  7  8  1  0  0  0
  8  9  2  0  0  0
  8 19  1  0  0  0
 19 20  2  0  0  0
 19 24  1  0  0  0
 20 21  1  0  0  0
 20 27  1  0  0  0
 21 22  2  0  0  0
 22 23  1  0  0  0
 23 24  2  0  0  0
 23 25  1  0  0  0
 25 26  1  0  0  0
 27 28  1  0  0  0
 12 13  2  0  0  0
 12 17  1  0  0  0
 13 14  1  0  0  0
 14 15  2  0  0  0
 15 16  1  0  0  0
 15 18  1  0  0  0
 16 17  2  0  0  0
 10 11  1  0  0  0
M  END
> <minimizedAffinity>
-5.93145

$$$$
1219


 27 30  0  0  0  0  0  0  0  0999 V2000
    3.4855    8.5639  -14.5150 S   0  0  0  0  0  0  0  0  0  0  0  0
    3.7027   10.2920  -13.9196 C   0  0  0  0  0  0  0  0  0  0  0  0
    2.7992   10.5191  -12.7199 C   0  0  0  0  0  0  0  0  0  0  0  0
    1.4164    9.9763  -12.9718 C   0  0  0  0  0  0  0  0  0  0  0  0
    1.3982    8.5669  -12.7409 N   0  0  0  0  0  0  0  0  0  0  0  0
    0.5156    7.6112  -12.0977 C   0  0  0  0  0  0  0  0  0  0  0  0
    1.4665    6.5162  -11.6479 C   0  0  0  0  0  0  0  0  0  0  0  0
    2.5467    6.6408  -12.6470 N   0  0  0  0  0  0  0  0  0  0  0  0
    2.4927    7.7733  -13.2267 C   0  0  0  0  0  0  0  0  0  0  0  0
   -0.1821    8.1651  -11.0426 O   0  0  0  0  0  0  0  0  0  0  0  0
    0.1018    7.8974  -10.1571 H   0  0  0  0  0  0  0  0  0  0  0  0
    3.5194    5.6311  -12.9014 C   0  0  0  0  0  0  0  0  0  0  0  0
    4.8120    5.8354  -13.2855 C   0  0  0  0  0  0  0  0  0  0  0  0
    5.7141    4.8022  -13.4986 C   0  0  0  0  0  0  0  0  0  0  0  0
    5.3088    3.4950  -13.3211 C   0  0  0  0  0  0  0  0  0  0  0  0
    3.9976    3.2487  -12.9302 C   0  0  0  0  0  0  0  0  0  0  0  0
    3.1127    4.2995  -12.7230 C   0  0  0  0  0  0  0  0  0  0  0  0
    6.4754    2.0034  -13.5954 Br  0  0  0  0  0  0  0  0  0  0  0  0
   -0.4406    7.0142  -13.0603 C   0  0  0  0  0  0  0  0  0  0  0  0
   -1.4844    7.7740  -13.5505 C   0  0  0  0  0  0  0  0  0  0  0  0
   -2.3596    7.1719  -14.4545 C   0  0  0  0  0  0  0  0  0  0  0  0
   -2.1928    5.8770  -14.8428 C   0  0  0  0  0  0  0  0  0  0  0  0
   -1.1516    5.1048  -14.3610 C   0  0  0  0  0  0  0  0  0  0  0  0
   -0.2773    5.7160  -13.4544 C   0  0  0  0  0  0  0  0  0  0  0  0
   -3.4344    7.9441  -14.9638 N   0  0  0  0  0  0  0  0  0  0  0  0
   -3.6415    9.1127  -14.5845 O   0  0  0  0  0  0  0  0  0  0  0  0
   -4.2919    7.4353  -15.8976 O   0  0  0  0  0  0  0  0  0  0  0  0
  1  2  1  0  0  0
  1  9  1  0  0  0
  2  3  1  0  0  0
  3  4  1  0  0  0
  4  5  1  0  0  0
  5  6  1  0  0  0
  5  9  1  0  0  0
  6  7  1  0  0  0
  6 10  1  0  0  0
  6 19  1  0  0  0
  7  8  1  0  0  0
  8  9  2  0  0  0
  8 12  1  0  0  0
 12 13  2  0  0  0
 12 17  1  0  0  0
 13 14  1  0  0  0
 14 15  2  0  0  0
 15 16  1  0  0  0
 15 18  1  0  0  0
 16 17  2  0  0  0
 19 20  2  0  0  0
 19 24  1  0  0  0
 20 21  1  0  0  0
 21 22  2  0  0  0
 21 25  1  0  0  0
 22 23  1  0  0  0
 23 24  2  0  0  0
 25 26  2  0  0  0
 25 27  1  0  0  0
 10 11  1  0  0  0
M  CHG 1  27  -1
M  END
> <minimizedAffinity>
-8.93407

$$$$
1220


 27 30  0  0  0  0  0  0  0  0999 V2000
    2.6156   12.7314  -12.8501 S   0  0  0  0  0  0  0  0  0  0  0  0
    3.2936   13.4455  -11.2978 C   0  0  0  0  0  0  0  0  0  0  0  0
    2.7231   14.7575  -10.9572 C   0  0  0  0  0  0  0  0  0  0  0  0
    1.9025   15.4741  -11.9495 C   0  0  0  0  0  0  0  0  0  0  0  0
    0.8693   14.7732  -12.5947 N   0  0  0  0  0  0  0  0  0  0  0  0
   -0.3902   15.1488  -13.1614 C   0  0  0  0  0  0  0  0  0  0  0  0
   -1.2099   13.9118  -12.8667 C   0  0  0  0  0  0  0  0  0  0  0  0
   -0.2208   12.8639  -13.0035 N   0  0  0  0  0  0  0  0  0  0  0  0
    0.9207   13.3446  -12.8432 C   0  0  0  0  0  0  0  0  0  0  0  0
   -0.2662   15.2169  -14.5515 O   0  0  0  0  0  0  0  0  0  0  0  0
   -1.0643   14.8422  -14.9586 H   0  0  0  0  0  0  0  0  0  0  0  0
   -0.5136   11.4925  -13.2960 C   0  0  0  0  0  0  0  0  0  0  0  0
   -1.8420   11.0920  -13.3279 C   0  0  0  0  0  0  0  0  0  0  0  0
   -2.2013    9.7709  -13.5849 C   0  0  0  0  0  0  0  0  0  0  0  0
   -1.2377    8.8142  -13.8150 C   0  0  0  0  0  0  0  0  0  0  0  0
    0.0819    9.1956  -13.7869 C   0  0  0  0  0  0  0  0  0  0  0  0
    0.4132   10.5308  -13.5244 C   0  0  0  0  0  0  0  0  0  0  0  0
   -1.7403    6.9881  -14.1521 Br  0  0  0  0  0  0  0  0  0  0  0  0
   -1.0165   16.3658  -12.6114 C   0  0  0  0  0  0  0  0  0  0  0  0
   -2.1382   16.8585  -13.2714 C   0  0  0  0  0  0  0  0  0  0  0  0
   -2.7942   17.9868  -12.8325 C   0  0  0  0  0  0  0  0  0  0  0  0
   -2.3725   18.6853  -11.7150 C   0  0  0  0  0  0  0  0  0  0  0  0
   -1.2606   18.1992  -11.0543 C   0  0  0  0  0  0  0  0  0  0  0  0
   -0.5957   17.0531  -11.5029 C   0  0  0  0  0  0  0  0  0  0  0  0
   -3.0658   19.8410  -11.2826 N   0  0  0  0  0  0  0  0  0  0  0  0
   -4.1975   20.1462  -11.6753 O   0  0  0  0  0  0  0  0  0  0  0  0
   -2.4649   20.6751  -10.3746 O   0  0  0  0  0  0  0  0  0  0  0  0
  1  2  1  0  0  0
  1  9  1  0  0  0
  2  3  1  0  0  0
  3  4  1  0  0  0
  4  5  1  0  0  0
  5  6  1  0  0  0
  5  9  1  0  0  0
  6  7  1  0  0  0
  6 10  1  0  0  0
  6 19  1  0  0  0
  7  8  1  0  0  0
  8  9  2  0  0  0
  8 12  1  0  0  0
 12 13  2  0  0  0
 12 17  1  0  0  0
 13 14  1  0  0  0
 14 15  2  0  0  0
 15 16  1  0  0  0
 15 18  1  0  0  0
 16 17  2  0  0  0
 19 20  2  0  0  0
 19 24  1  0  0  0
 20 21  1  0  0  0
 21 22  2  0  0  0
 22 23  1  0  0  0
 22 25  1  0  0  0
 23 24  2  0  0  0
 25 26  2  0  0  0
 25 27  1  0  0  0
 10 11  1  0  0  0
M  CHG 1  27  -1
M  END
> <minimizedAffinity>
-9.13994

$$$$
1222


 24 27  0  0  0  0  0  0  0  0999 V2000
    1.8806    6.7454  -12.0512 S   0  0  0  0  0  0  0  0  0  0  0  0
    0.3984    5.8852  -12.7449 C   0  0  0  0  0  0  0  0  0  0  0  0
   -0.0883    6.5978  -13.9800 C   0  0  0  0  0  0  0  0  0  0  0  0
    0.2168    8.0801  -13.9911 C   0  0  0  0  0  0  0  0  0  0  0  0
    1.5787    8.3904  -14.1877 N   0  0  0  0  0  0  0  0  0  0  0  0
    2.4372    9.3749  -14.8692 C   0  0  0  0  0  0  0  0  0  0  0  0
    3.5461    8.4336  -15.2750 C   0  0  0  0  0  0  0  0  0  0  0  0
    3.6940    7.6281  -14.0719 N   0  0  0  0  0  0  0  0  0  0  0  0
    2.5707    7.5517  -13.5332 C   0  0  0  0  0  0  0  0  0  0  0  0
    1.8518    9.9295  -15.9657 O   0  0  0  0  0  0  0  0  0  0  0  0
    0.9409   10.2937  -15.8364 H   0  0  0  0  0  0  0  0  0  0  0  0
    4.9369    7.0860  -13.5759 C   0  0  0  0  0  0  0  0  0  0  0  0
    6.0866    7.7902  -13.4036 C   0  0  0  0  0  0  0  0  0  0  0  0
    7.2754    7.2187  -12.9670 C   0  0  0  0  0  0  0  0  0  0  0  0
    7.3180    5.8778  -12.6897 C   0  0  0  0  0  0  0  0  0  0  0  0
    6.1513    5.1584  -12.8626 C   0  0  0  0  0  0  0  0  0  0  0  0
    4.9827    5.7229  -13.2926 C   0  0  0  0  0  0  0  0  0  0  0  0
    8.9155    5.0007  -12.0860 Br  0  0  0  0  0  0  0  0  0  0  0  0
    2.9679   10.3807  -13.8902 C   0  0  0  0  0  0  0  0  0  0  0  0
    2.4828   10.5018  -12.6021 C   0  0  0  0  0  0  0  0  0  0  0  0
    3.0353   11.4553  -11.7568 C   0  0  0  0  0  0  0  0  0  0  0  0
    4.0650   12.3007  -12.1493 C   0  0  0  0  0  0  0  0  0  0  0  0
    4.5509   12.1861  -13.4233 C   0  0  0  0  0  0  0  0  0  0  0  0
    3.9964   11.2320  -14.2754 C   0  0  0  0  0  0  0  0  0  0  0  0
  1  2  1  0  0  0
  1  9  1  0  0  0
  2  3  1  0  0  0
  3  4  1  0  0  0
  4  5  1  0  0  0
  5  6  1  0  0  0
  5  9  1  0  0  0
  6  7  1  0  0  0
  6 10  1  0  0  0
  6 19  1  0  0  0
  7  8  1  0  0  0
  8  9  2  0  0  0
  8 12  1  0  0  0
 12 13  2  0  0  0
 12 17  1  0  0  0
 13 14  1  0  0  0
 14 15  2  0  0  0
 15 16  1  0  0  0
 15 18  1  0  0  0
 16 17  2  0  0  0
 19 20  2  0  0  0
 19 24  1  0  0  0
 20 21  1  0  0  0
 21 22  2  0  0  0
 22 23  1  0  0  0
 23 24  2  0  0  0
 10 11  1  0  0  0
M  END
> <minimizedAffinity>
-7.39560

$$$$
1224


 26 29  0  0  0  0  0  0  0  0999 V2000
    2.0394    6.5072  -11.9511 S   0  0  0  0  0  0  0  0  0  0  0  0
    0.3749    5.8638  -12.3974 C   0  0  0  0  0  0  0  0  0  0  0  0
   -0.3461    7.0370  -13.0450 C   0  0  0  0  0  0  0  0  0  0  0  0
    0.2326    7.3822  -14.3810 C   0  0  0  0  0  0  0  0  0  0  0  0
    1.5859    7.8447  -14.3485 N   0  0  0  0  0  0  0  0  0  0  0  0
    2.3529    8.8926  -15.0287 C   0  0  0  0  0  0  0  0  0  0  0  0
    3.6274    8.0614  -15.2686 C   0  0  0  0  0  0  0  0  0  0  0  0
    3.7677    7.3772  -13.9963 N   0  0  0  0  0  0  0  0  0  0  0  0
    2.6053    7.2541  -13.4970 C   0  0  0  0  0  0  0  0  0  0  0  0
    1.7423    9.2233  -16.2154 O   0  0  0  0  0  0  0  0  0  0  0  0
    2.0924    8.7143  -16.9846 H   0  0  0  0  0  0  0  0  0  0  0  0
    2.6600   10.0369  -14.1524 C   0  0  0  0  0  0  0  0  0  0  0  0
    3.9196   10.5205  -13.8758 C   0  0  0  0  0  0  0  0  0  0  0  0
    4.1005   11.6123  -13.0431 C   0  0  0  0  0  0  0  0  0  0  0  0
    3.0236   12.2327  -12.4783 C   0  0  0  0  0  0  0  0  0  0  0  0
    1.7567   11.7614  -12.7440 C   0  0  0  0  0  0  0  0  0  0  0  0
    1.5911   10.6794  -13.5706 C   0  0  0  0  0  0  0  0  0  0  0  0
    3.2064   13.7501  -11.3132 Br  0  0  0  0  0  0  0  0  0  0  0  0
    5.0483    6.9523  -13.4770 C   0  0  0  0  0  0  0  0  0  0  0  0
    5.2502    5.6164  -13.1428 C   0  0  0  0  0  0  0  0  0  0  0  0
    6.4580    5.1812  -12.6428 C   0  0  0  0  0  0  0  0  0  0  0  0
    7.5266    6.0290  -12.4446 C   0  0  0  0  0  0  0  0  0  0  0  0
    7.3352    7.3500  -12.7712 C   0  0  0  0  0  0  0  0  0  0  0  0
    6.1028    7.7899  -13.2801 C   0  0  0  0  0  0  0  0  0  0  0  0
    8.7317    5.5529  -11.9398 O   0  0  0  0  0  0  0  0  0  0  0  0
    9.9641    6.2104  -12.0215 C   0  0  0  0  0  0  0  0  0  0  0  0
  1  2  1  0  0  0
  1  9  1  0  0  0
  2  3  1  0  0  0
  3  4  1  0  0  0
  4  5  1  0  0  0
  5  6  1  0  0  0
  5  9  1  0  0  0
  6  7  1  0  0  0
  6 10  1  0  0  0
  6 12  1  0  0  0
  7  8  1  0  0  0
  8  9  2  0  0  0
  8 19  1  0  0  0
 19 20  2  0  0  0
 19 24  1  0  0  0
 20 21  1  0  0  0
 21 22  2  0  0  0
 22 23  1  0  0  0
 22 25  1  0  0  0
 23 24  2  0  0  0
 25 26  1  0  0  0
 12 13  2  0  0  0
 12 17  1  0  0  0
 13 14  1  0  0  0
 14 15  2  0  0  0
 15 16  1  0  0  0
 15 18  1  0  0  0
 16 17  2  0  0  0
 10 11  1  0  0  0
M  END
> <minimizedAffinity>
-7.14483

$$$$
1226


 24 27  0  0  0  0  0  0  0  0999 V2000
    2.3949    6.0291  -12.5158 S   0  0  0  0  0  0  0  0  0  0  0  0
    4.1638    5.6343  -12.6059 C   0  0  0  0  0  0  0  0  0  0  0  0
    4.7143    6.4163  -13.8027 C   0  0  0  0  0  0  0  0  0  0  0  0
    4.6027    7.9144  -13.4777 C   0  0  0  0  0  0  0  0  0  0  0  0
    3.2399    8.3434  -13.8149 N   0  0  0  0  0  0  0  0  0  0  0  0
    2.7170    9.4816  -14.4536 C   0  0  0  0  0  0  0  0  0  0  0  0
    1.2758    9.1115  -14.7883 C   0  0  0  0  0  0  0  0  0  0  0  0
    1.0527    7.8886  -14.0800 N   0  0  0  0  0  0  0  0  0  0  0  0
    2.1305    7.5033  -13.5291 C   0  0  0  0  0  0  0  0  0  0  0  0
    3.3591    9.6537  -15.7002 O   0  0  0  0  0  0  0  0  0  0  0  0
    4.2945    9.9142  -15.4943 H   0  0  0  0  0  0  0  0  0  0  0  0
    2.7241   10.7615  -13.7482 C   0  0  0  0  0  0  0  0  0  0  0  0
    1.4807   11.3524  -13.5289 C   0  0  0  0  0  0  0  0  0  0  0  0
    1.3072   12.5442  -12.8499 C   0  0  0  0  0  0  0  0  0  0  0  0
    2.3950   13.2090  -12.3545 C   0  0  0  0  0  0  0  0  0  0  0  0
    3.6383   12.6390  -12.5622 C   0  0  0  0  0  0  0  0  0  0  0  0
    3.7985   11.4375  -13.2462 C   0  0  0  0  0  0  0  0  0  0  0  0
    2.2216   14.8692  -11.3873 Br  0  0  0  0  0  0  0  0  0  0  0  0
   -0.2219    7.2253  -14.0813 C   0  0  0  0  0  0  0  0  0  0  0  0
   -1.3545    7.9714  -14.0275 C   0  0  0  0  0  0  0  0  0  0  0  0
   -2.5759    7.3060  -14.0608 C   0  0  0  0  0  0  0  0  0  0  0  0
   -2.6782    5.9356  -14.1459 C   0  0  0  0  0  0  0  0  0  0  0  0
   -1.4993    5.2202  -14.1957 C   0  0  0  0  0  0  0  0  0  0  0  0
   -0.2762    5.8446  -14.1650 C   0  0  0  0  0  0  0  0  0  0  0  0
  1  2  1  0  0  0
  1  9  1  0  0  0
  2  3  1  0  0  0
  3  4  1  0  0  0
  4  5  1  0  0  0
  5  6  1  0  0  0
  5  9  1  0  0  0
  6  7  1  0  0  0
  6 10  1  0  0  0
  6 12  1  0  0  0
  7  8  1  0  0  0
  8  9  2  0  0  0
  8 19  1  0  0  0
 19 20  2  0  0  0
 19 24  1  0  0  0
 20 21  1  0  0  0
 21 22  2  0  0  0
 22 23  1  0  0  0
 23 24  2  0  0  0
 12 13  2  0  0  0
 12 17  1  0  0  0
 13 14  1  0  0  0
 14 15  2  0  0  0
 15 16  1  0  0  0
 15 18  1  0  0  0
 16 17  2  0  0  0
 10 11  1  0  0  0
M  END
> <minimizedAffinity>
-8.34814

$$$$
1231


 37 40  0  0  0  0  0  0  0  0999 V2000
   -4.0266    8.8537  -14.0330 C   0  0  0  0  0  0  0  0  0  0  0  0
   -5.3252    8.9167  -14.3529 N   0  0  0  0  0  0  0  0  0  0  0  0
   -5.5731    7.8072  -15.0716 N   0  0  0  0  0  0  0  0  0  0  0  0
   -4.5159    7.0897  -15.2006 N   0  0  0  0  0  0  0  0  0  0  0  0
   -3.4514    7.6901  -14.5550 C   0  0  0  0  0  0  0  0  0  0  0  0
   -6.3443    9.8630  -14.0410 C   0  0  0  0  0  0  0  0  0  0  0  0
   -6.5092   10.5734  -12.9062 N   0  0  0  0  0  0  0  0  0  0  0  0
   -7.5202   11.3563  -12.9691 O   0  0  0  0  0  0  0  0  0  0  0  0
   -8.0700   11.2077  -14.1330 N   0  0  0  0  0  0  0  0  0  0  0  0
   -7.3748   10.2802  -14.8566 C   0  0  0  0  0  0  0  0  0  0  0  0
   -7.6545    9.8620  -16.1773 N   0  0  0  0  0  0  0  0  0  0  0  0
   -8.3889   10.5062  -16.5729 H   0  0  0  0  0  0  0  0  0  0  0  0
   -7.9588    8.8764  -16.2633 H   0  0  0  0  0  0  0  0  0  0  0  0
   -6.7919   10.0071  -16.7696 H   0  0  0  0  0  0  0  0  0  0  0  0
   -2.1259    7.1307  -14.4998 C   0  0  0  0  0  0  0  0  0  0  0  0
   -1.7276    6.4823  -15.5465 O   0  0  0  0  0  0  0  0  0  0  0  0
   -1.2009    7.1919  -13.4621 N   0  0  0  0  0  0  0  0  0  0  0  0
   -1.2963    7.6428  -12.5364 H   0  0  0  0  0  0  0  0  0  0  0  0
    0.0838    6.5627  -13.6125 N   0  0  0  0  0  0  0  0  0  0  0  0
    0.9729    6.6213  -12.7020 C   0  0  0  0  0  0  0  0  0  0  0  0
    2.2846    5.9983  -12.8146 C   0  0  0  0  0  0  0  0  0  0  0  0
    3.4024    6.7221  -13.1633 C   0  0  0  0  0  0  0  0  0  0  0  0
    4.6522    6.1480  -13.2675 C   0  0  0  0  0  0  0  0  0  0  0  0
    4.8341    4.8108  -13.0250 C   0  0  0  0  0  0  0  0  0  0  0  0
    3.7161    4.0416  -12.6668 C   0  0  0  0  0  0  0  0  0  0  0  0
    2.4805    4.6451  -12.5711 C   0  0  0  0  0  0  0  0  0  0  0  0
    6.0993    4.2542  -13.1361 O   0  0  0  0  0  0  0  0  0  0  0  0
    6.1750    7.1952  -13.7549 Br  0  0  0  0  0  0  0  0  0  0  0  0
    3.9687    2.7092  -12.4381 O   0  0  0  0  0  0  0  0  0  0  0  0
    4.0166    1.7018  -13.4179 C   0  0  0  0  0  0  0  0  0  0  0  0
   -3.2636    9.8188  -13.2260 C   0  0  0  0  0  0  0  0  0  0  0  0
   -2.2934   11.0267  -14.1028 S   0  0  0  0  0  0  0  0  0  0  0  0
    0.3654   12.4377  -13.2158 S   0  0  0  0  0  0  0  0  0  0  0  0
    1.9891   11.6197  -13.1609 C   0  0  0  0  0  0  0  0  0  0  0  0
    1.5552   10.1910  -13.2368 C   0  0  0  0  0  0  0  0  0  0  0  0
    0.2400   10.0277  -13.5979 N   0  0  0  0  0  0  0  0  0  0  0  0
   -0.5599   10.9700  -13.6672 C   0  0  0  0  0  0  0  0  0  0  0  0
 33 34  1  0  0  0
 33 37  1  0  0  0
 34 35  1  0  0  0
 35 36  1  0  0  0
 36 37  2  0  0  0
 37 32  1  0  0  0
 32 31  1  0  0  0
 31  1  1  0  0  0
  1  2  1  0  0  0
  1  5  2  0  0  0
  2  3  1  0  0  0
  2  6  1  0  0  0
  3  4  2  0  0  0
  4  5  1  0  0  0
  5 15  1  0  0  0
 15 16  2  0  0  0
 15 17  1  0  0  0
 17 19  1  0  0  0
 19 20  2  0  0  0
 20 21  1  0  0  0
 21 22  2  0  0  0
 21 26  1  0  0  0
 22 23  1  0  0  0
 23 24  2  0  0  0
 23 28  1  0  0  0
 24 25  1  0  0  0
 24 27  1  0  0  0
 25 26  2  0  0  0
 25 29  1  0  0  0
 29 30  1  0  0  0
  6  7  2  0  0  0
  6 10  1  0  0  0
  7  8  1  0  0  0
  8  9  1  0  0  0
  9 10  2  0  0  0
 10 11  1  0  0  0
 17 18  1  0  0  0
 11 12  1  0  0  0
 11 13  1  0  0  0
 11 14  1  0  0  0
M  CHG 1  11   1
M  CHG 1  27  -1
M  END
> <minimizedAffinity>
-7.79884

$$$$
1236


 30 34  0  0  0  0  0  0  0  0999 V2000
   -0.0017    9.8190  -13.1135 C   0  0  0  0  0  0  0  0  0  0  0  0
    2.9872   13.3559  -11.3818 S   0  0  0  0  0  0  0  0  0  0  0  0
    4.4999   12.7856  -12.2943 C   0  0  0  0  0  0  0  0  0  0  0  0
    3.9441   11.4692  -12.7738 C   0  0  0  0  0  0  0  0  0  0  0  0
    2.5901   11.6330  -13.2218 N   0  0  0  0  0  0  0  0  0  0  0  0
    1.8525   12.6260  -12.5444 C   0  0  0  0  0  0  0  0  0  0  0  0
    0.6414   12.8523  -12.8304 N   0  0  0  0  0  0  0  0  0  0  0  0
   -0.0744   12.1066  -13.8344 C   0  0  0  0  0  0  0  0  0  0  0  0
   -1.0978   12.5464  -14.4142 O   0  0  0  0  0  0  0  0  0  0  0  0
    0.4485   10.7560  -14.1788 C   0  0  0  0  0  0  0  0  0  0  0  0
    1.9222   10.8748  -14.2637 C   0  0  0  0  0  0  0  0  0  0  0  0
    2.6329   10.3712  -15.1669 O   0  0  0  0  0  0  0  0  0  0  0  0
    0.7472    8.5095  -13.0950 C   0  0  0  0  0  0  0  0  0  0  0  0
    0.3980    7.5953  -14.1945 C   0  0  0  0  0  0  0  0  0  0  0  0
    0.8546    7.8098  -15.3718 O   0  0  0  0  0  0  0  0  0  0  0  0
   -0.4623    6.4543  -13.9510 N   0  0  0  0  0  0  0  0  0  0  0  0
   -1.0781    5.6185  -14.9441 C   0  0  0  0  0  0  0  0  0  0  0  0
   -2.3925    5.0738  -14.4433 C   0  0  0  0  0  0  0  0  0  0  0  0
   -1.8300    4.6779  -12.7218 S   0  0  0  0  0  0  0  0  0  0  0  0
   -0.7235    6.0826  -12.6136 C   0  0  0  0  0  0  0  0  0  0  0  0
   -0.2335    6.7051  -11.6126 N   0  0  0  0  0  0  0  0  0  0  0  0
    0.6275    7.8435  -11.7739 C   0  0  0  0  0  0  0  0  0  0  0  0
    1.2650    8.2448  -10.7682 O   0  0  0  0  0  0  0  0  0  0  0  0
   -1.4645    9.6254  -13.2273 C   0  0  0  0  0  0  0  0  0  0  0  0
   -2.0102    8.9343  -14.3019 C   0  0  0  0  0  0  0  0  0  0  0  0
   -3.3715    8.7450  -14.4163 C   0  0  0  0  0  0  0  0  0  0  0  0
   -4.2267    9.2411  -13.4576 C   0  0  0  0  0  0  0  0  0  0  0  0
   -3.6895    9.9184  -12.4054 C   0  0  0  0  0  0  0  0  0  0  0  0
   -2.3300   10.1164  -12.2771 C   0  0  0  0  0  0  0  0  0  0  0  0
   -4.1301    7.7968  -15.8886 Br  0  0  0  0  0  0  0  0  0  0  0  0
  2  3  1  0  0  0
  2  6  1  0  0  0
  3  4  1  0  0  0
  4  5  1  0  0  0
  5  6  1  0  0  0
  5 11  1  0  0  0
  6  7  2  0  0  0
  7  8  1  0  0  0
  8  9  2  0  0  0
  8 10  1  0  0  0
 10 11  1  0  0  0
 10  1  1  0  0  0
 11 12  2  0  0  0
  1 13  1  0  0  0
  1 24  1  0  0  0
 13 14  1  0  0  0
 13 22  1  0  0  0
 14 15  2  0  0  0
 14 16  1  0  0  0
 16 17  1  0  0  0
 16 20  1  0  0  0
 17 18  1  0  0  0
 18 19  1  0  0  0
 19 20  1  0  0  0
 20 21  2  0  0  0
 21 22  1  0  0  0
 22 23  2  0  0  0
 24 25  2  0  0  0
 24 29  1  0  0  0
 25 26  1  0  0  0
 26 27  2  0  0  0
 26 30  1  0  0  0
 27 28  1  0  0  0
 28 29  2  0  0  0
M  END
> <minimizedAffinity>
-4.10379

$$$$
1237


 30 34  0  0  0  0  0  0  0  0999 V2000
    2.1057    8.9721  -12.6334 C   0  0  0  0  0  0  0  0  0  0  0  0
    6.9280    7.5015  -14.3296 S   0  0  0  0  0  0  0  0  0  0  0  0
    6.7281    6.3679  -12.8865 C   0  0  0  0  0  0  0  0  0  0  0  0
    5.3566    5.8511  -13.1876 C   0  0  0  0  0  0  0  0  0  0  0  0
    4.5245    6.8570  -13.7315 N   0  0  0  0  0  0  0  0  0  0  0  0
    5.1616    7.8836  -14.4593 C   0  0  0  0  0  0  0  0  0  0  0  0
    4.5396    8.8645  -15.0316 N   0  0  0  0  0  0  0  0  0  0  0  0
    3.0878    8.9426  -14.9928 C   0  0  0  0  0  0  0  0  0  0  0  0
    2.6050    9.5849  -15.9572 O   0  0  0  0  0  0  0  0  0  0  0  0
    2.4268    8.2918  -13.8969 C   0  0  0  0  0  0  0  0  0  0  0  0
    3.0842    6.9543  -13.6474 C   0  0  0  0  0  0  0  0  0  0  0  0
    2.4083    5.9460  -13.3740 O   0  0  0  0  0  0  0  0  0  0  0  0
    0.9093    8.6349  -11.8511 C   0  0  0  0  0  0  0  0  0  0  0  0
   -0.2928    8.7431  -12.7892 C   0  0  0  0  0  0  0  0  0  0  0  0
   -0.7650    9.8683  -13.0695 O   0  0  0  0  0  0  0  0  0  0  0  0
   -0.8826    7.5485  -13.3523 N   0  0  0  0  0  0  0  0  0  0  0  0
   -1.7600    7.4606  -14.4680 C   0  0  0  0  0  0  0  0  0  0  0  0
   -1.6062    6.1430  -15.1863 C   0  0  0  0  0  0  0  0  0  0  0  0
   -1.4243    5.0784  -13.6780 S   0  0  0  0  0  0  0  0  0  0  0  0
   -0.5755    6.3200  -12.7186 C   0  0  0  0  0  0  0  0  0  0  0  0
    0.1755    6.2123  -11.6949 N   0  0  0  0  0  0  0  0  0  0  0  0
    0.7728    7.4089  -11.1112 C   0  0  0  0  0  0  0  0  0  0  0  0
    1.1459    7.2864   -9.9306 O   0  0  0  0  0  0  0  0  0  0  0  0
    2.3902   10.4577  -12.6894 C   0  0  0  0  0  0  0  0  0  0  0  0
    3.6070   10.9600  -12.2952 C   0  0  0  0  0  0  0  0  0  0  0  0
    3.8256   12.3130  -12.3553 C   0  0  0  0  0  0  0  0  0  0  0  0
    2.8880   13.1952  -12.7914 C   0  0  0  0  0  0  0  0  0  0  0  0
    1.6623   12.7238  -13.1916 C   0  0  0  0  0  0  0  0  0  0  0  0
    1.4398   11.3478  -13.1301 C   0  0  0  0  0  0  0  0  0  0  0  0
    3.2031   15.0860  -12.8720 Br  0  0  0  0  0  0  0  0  0  0  0  0
  2  3  1  0  0  0
  2  6  1  0  0  0
  3  4  1  0  0  0
  4  5  1  0  0  0
  5  6  1  0  0  0
  5 11  1  0  0  0
  6  7  2  0  0  0
  7  8  1  0  0  0
  8  9  2  0  0  0
  8 10  1  0  0  0
 10 11  1  0  0  0
 10  1  1  0  0  0
 11 12  2  0  0  0
  1 13  1  0  0  0
  1 24  1  0  0  0
 13 14  1  0  0  0
 13 22  1  0  0  0
 14 15  2  0  0  0
 14 16  1  0  0  0
 16 17  1  0  0  0
 16 20  1  0  0  0
 17 18  1  0  0  0
 18 19  1  0  0  0
 19 20  1  0  0  0
 20 21  2  0  0  0
 21 22  1  0  0  0
 22 23  2  0  0  0
 24 25  2  0  0  0
 24 29  1  0  0  0
 25 26  1  0  0  0
 26 27  2  0  0  0
 27 28  1  0  0  0
 27 30  1  0  0  0
 28 29  2  0  0  0
M  END
> <minimizedAffinity>
-7.00924

$$$$
1248


 21 24  0  0  0  0  0  0  0  0999 V2000
   -1.2393    5.4081  -13.1495 S   0  0  0  0  0  0  0  0  0  0  0  0
    0.3480    5.8089  -12.6304 C   0  0  0  0  0  0  0  0  0  0  0  0
    0.4977    7.0194  -13.1660 N   0  0  0  0  0  0  0  0  0  0  0  0
    1.7630    7.4000  -12.7820 C   0  0  0  0  0  0  0  0  0  0  0  0
    2.3149    6.4333  -12.0501 N   0  0  0  0  0  0  0  0  0  0  0  0
    1.4680    5.4310  -11.9342 N   0  0  0  0  0  0  0  0  0  0  0  0
   -0.4547    7.5175  -13.8454 N   0  0  0  0  0  0  0  0  0  0  0  0
   -1.5802    6.8547  -14.0250 C   0  0  0  0  0  0  0  0  0  0  0  0
   -2.7924    7.2290  -14.7607 C   0  0  0  0  0  0  0  0  0  0  0  0
   -3.4362    6.4891  -15.6716 N   0  0  0  0  0  0  0  0  0  0  0  0
   -4.5013    7.1721  -16.1216 N   0  0  0  0  0  0  0  0  0  0  0  0
   -4.5473    8.3648  -15.4956 C   0  0  0  0  0  0  0  0  0  0  0  0
   -3.4541    8.3992  -14.6261 C   0  0  0  0  0  0  0  0  0  0  0  0
   -3.0514    9.8599  -13.5032 Br  0  0  0  0  0  0  0  0  0  0  0  0
   -5.1731    6.8186  -16.8405 H   0  0  0  0  0  0  0  0  0  0  0  0
    2.4260    8.6766  -13.1180 C   0  0  0  0  0  0  0  0  0  0  0  0
    2.3342    9.7438  -12.3031 N   0  0  0  0  0  0  0  0  0  0  0  0
    2.9452   10.9065  -12.6220 C   0  0  0  0  0  0  0  0  0  0  0  0
    3.6669   11.0139  -13.7787 C   0  0  0  0  0  0  0  0  0  0  0  0
    3.7501    9.9475  -14.5757 N   0  0  0  0  0  0  0  0  0  0  0  0
    3.1490    8.7738  -14.2819 C   0  0  0  0  0  0  0  0  0  0  0  0
  1  2  1  0  0  0
  1  8  1  0  0  0
  2  3  1  0  0  0
  2  6  2  0  0  0
  3  4  1  0  0  0
  3  7  1  0  0  0
  4  5  2  0  0  0
  4 16  1  0  0  0
  5  6  1  0  0  0
 16 17  2  0  0  0
 16 21  1  0  0  0
 17 18  1  0  0  0
 18 19  2  0  0  0
 19 20  1  0  0  0
 20 21  2  0  0  0
  7  8  2  0  0  0
  8  9  1  0  0  0
  9 10  2  0  0  0
  9 13  1  0  0  0
 10 11  1  0  0  0
 11 12  1  0  0  0
 12 13  2  0  0  0
 13 14  1  0  0  0
 11 15  1  0  0  0
M  END
> <minimizedAffinity>
-7.02740

$$$$
1255


 34 38  0  0  0  0  0  0  0  0999 V2000
    2.4399    7.9211  -13.0883 C   0  0  0  0  0  0  0  0  0  0  0  0
    4.0654   12.3413  -13.0148 S   0  0  0  0  0  0  0  0  0  0  0  0
    3.3635   10.9312  -13.8551 C   0  0  0  0  0  0  0  0  0  0  0  0
    3.9019   10.0589  -14.6436 N   0  0  0  0  0  0  0  0  0  0  0  0
    3.0899    8.9974  -15.1964 C   0  0  0  0  0  0  0  0  0  0  0  0
    3.2760    8.4411  -16.2774 O   0  0  0  0  0  0  0  0  0  0  0  0
    1.9043    8.5439  -14.3463 C   0  0  0  0  0  0  0  0  0  0  0  0
    1.2051    9.8423  -14.0895 C   0  0  0  0  0  0  0  0  0  0  0  0
   -0.0151   10.0371  -14.3583 O   0  0  0  0  0  0  0  0  0  0  0  0
    1.9963   10.9166  -13.5034 N   0  0  0  0  0  0  0  0  0  0  0  0
    1.5768   11.9152  -12.6665 N   0  0  0  0  0  0  0  0  0  0  0  0
    2.5403   12.8538  -12.2382 C   0  0  0  0  0  0  0  0  0  0  0  0
    2.3842   13.9012  -11.4340 C   0  0  0  0  0  0  0  0  0  0  0  0
    0.5563   12.0263  -12.3277 H   0  0  0  0  0  0  0  0  0  0  0  0
    1.6027    6.9050  -12.4204 C   0  0  0  0  0  0  0  0  0  0  0  0
    0.6303    6.1834  -13.2273 C   0  0  0  0  0  0  0  0  0  0  0  0
    0.8797    4.9917  -13.6154 O   0  0  0  0  0  0  0  0  0  0  0  0
   -0.6354    6.7822  -13.6097 N   0  0  0  0  0  0  0  0  0  0  0  0
   -1.4258    6.4647  -14.6672 N   0  0  0  0  0  0  0  0  0  0  0  0
   -2.6293    7.1965  -14.8235 C   0  0  0  0  0  0  0  0  0  0  0  0
   -3.5635    7.0891  -15.7428 C   0  0  0  0  0  0  0  0  0  0  0  0
   -2.6354    8.3563  -13.4590 S   0  0  0  0  0  0  0  0  0  0  0  0
   -1.0862    7.8143  -12.7622 C   0  0  0  0  0  0  0  0  0  0  0  0
   -0.4496    8.2195  -11.7214 N   0  0  0  0  0  0  0  0  0  0  0  0
    0.8043    7.6250  -11.3473 C   0  0  0  0  0  0  0  0  0  0  0  0
    1.2826    7.6588  -10.2043 O   0  0  0  0  0  0  0  0  0  0  0  0
   -1.2102    5.6981  -15.3945 H   0  0  0  0  0  0  0  0  0  0  0  0
    3.8212    7.3963  -13.2865 C   0  0  0  0  0  0  0  0  0  0  0  0
    4.9097    8.2377  -13.2952 C   0  0  0  0  0  0  0  0  0  0  0  0
    6.1865    7.7590  -13.4784 C   0  0  0  0  0  0  0  0  0  0  0  0
    6.3857    6.4087  -13.6580 C   0  0  0  0  0  0  0  0  0  0  0  0
    5.3084    5.5200  -13.6562 C   0  0  0  0  0  0  0  0  0  0  0  0
    4.0440    6.0395  -13.4692 C   0  0  0  0  0  0  0  0  0  0  0  0
    8.1482    5.7121  -13.9146 Br  0  0  0  0  0  0  0  0  0  0  0  0
  2  3  1  0  0  0
  2 12  1  0  0  0
  3  4  2  0  0  0
  3 10  1  0  0  0
  4  5  1  0  0  0
  5  6  2  0  0  0
  5  7  1  0  0  0
  7  8  1  0  0  0
  7  1  1  0  0  0
  8  9  2  0  0  0
  8 10  1  0  0  0
 10 11  1  0  0  0
 11 12  1  0  0  0
 12 13  2  0  0  0
  1 15  1  0  0  0
  1 28  1  0  0  0
 15 16  1  0  0  0
 15 25  1  0  0  0
 16 17  2  0  0  0
 16 18  1  0  0  0
 18 19  1  0  0  0
 18 23  1  0  0  0
 19 20  1  0  0  0
 20 21  2  0  0  0
 20 22  1  0  0  0
 22 23  1  0  0  0
 23 24  2  0  0  0
 24 25  1  0  0  0
 25 26  2  0  0  0
 28 29  2  0  0  0
 28 33  1  0  0  0
 29 30  1  0  0  0
 30 31  2  0  0  0
 31 32  1  0  0  0
 31 34  1  0  0  0
 32 33  2  0  0  0
 11 14  1  0  0  0
 19 27  1  0  0  0
M  END
> <minimizedAffinity>
-6.55843

$$$$
1256


 30 33  0  0  0  0  0  0  0  0999 V2000
    1.6658   15.9143  -11.9895 S   0  0  0  0  0  0  0  0  0  0  0  0
    2.0539   14.2805  -12.3262 C   0  0  0  0  0  0  0  0  0  0  0  0
    3.1790   13.5145  -12.1752 N   0  0  0  0  0  0  0  0  0  0  0  0
    3.1822   12.2128  -12.5062 C   0  0  0  0  0  0  0  0  0  0  0  0
    4.1543   11.4413  -12.4023 O   0  0  0  0  0  0  0  0  0  0  0  0
    1.9908   11.7323  -12.9962 C   0  0  0  0  0  0  0  0  0  0  0  0
    0.8663   12.4883  -13.1503 C   0  0  0  0  0  0  0  0  0  0  0  0
    0.8943   13.8159  -12.8015 N   0  0  0  0  0  0  0  0  0  0  0  0
   -0.0892   14.6269  -12.8687 N   0  0  0  0  0  0  0  0  0  0  0  0
    0.0139   15.8702  -12.4929 C   0  0  0  0  0  0  0  0  0  0  0  0
   -0.9757   16.9257  -12.4721 N   0  0  0  0  0  0  0  0  0  0  0  0
   -1.1037   17.7684  -11.3456 C   0  0  0  0  0  0  0  0  0  0  0  0
   -2.2615   18.7207  -11.5320 C   0  0  0  0  0  0  0  0  0  0  0  0
   -3.3265   18.0501  -12.1390 O   0  0  0  0  0  0  0  0  0  0  0  0
   -3.0382   17.8067  -13.4874 C   0  0  0  0  0  0  0  0  0  0  0  0
   -1.7725   17.0227  -13.6479 C   0  0  0  0  0  0  0  0  0  0  0  0
   -0.3300   11.8314  -13.6737 C   0  0  0  0  0  0  0  0  0  0  0  0
   -0.8067   12.2048  -14.8077 O   0  0  0  0  0  0  0  0  0  0  0  0
   -1.0299   10.7970  -13.0195 N   0  0  0  0  0  0  0  0  0  0  0  0
   -0.7318   10.4452  -12.0900 H   0  0  0  0  0  0  0  0  0  0  0  0
   -2.2062   10.2082  -13.6489 C   0  0  0  0  0  0  0  0  0  0  0  0
   -2.0608    8.7358  -13.7590 C   0  0  0  0  0  0  0  0  0  0  0  0
   -3.0306    8.0102  -14.4330 C   0  0  0  0  0  0  0  0  0  0  0  0
   -2.9270    6.6435  -14.5047 C   0  0  0  0  0  0  0  0  0  0  0  0
   -1.8897    5.9588  -13.9279 C   0  0  0  0  0  0  0  0  0  0  0  0
   -0.9178    6.6747  -13.2543 C   0  0  0  0  0  0  0  0  0  0  0  0
   -1.0250    8.0542  -13.1848 C   0  0  0  0  0  0  0  0  0  0  0  0
    0.5632    5.7988  -12.4278 Br  0  0  0  0  0  0  0  0  0  0  0  0
   -4.0690    8.7088  -15.0077 O   0  0  0  0  0  0  0  0  0  0  0  0
   -5.2859    8.0119  -15.2751 C   0  0  0  0  0  0  0  0  0  0  0  0
  1  2  1  0  0  0
  1 10  1  0  0  0
  2  3  2  0  0  0
  2  8  1  0  0  0
  3  4  1  0  0  0
  4  5  2  0  0  0
  4  6  1  0  0  0
  6  7  2  0  0  0
  7  8  1  0  0  0
  7 17  1  0  0  0
  8  9  1  0  0  0
  9 10  2  0  0  0
 10 11  1  0  0  0
 11 12  1  0  0  0
 11 16  1  0  0  0
 12 13  1  0  0  0
 13 14  1  0  0  0
 14 15  1  0  0  0
 15 16  1  0  0  0
 17 18  2  0  0  0
 17 19  1  0  0  0
 19 21  1  0  0  0
 21 22  1  0  0  0
 22 23  2  0  0  0
 22 27  1  0  0  0
 23 24  1  0  0  0
 23 29  1  0  0  0
 24 25  2  0  0  0
 25 26  1  0  0  0
 26 27  2  0  0  0
 26 28  1  0  0  0
 29 30  1  0  0  0
 19 20  1  0  0  0
M  END
> <minimizedAffinity>
-8.88588

$$$$
1265


 24 27  0  0  0  0  0  0  0  0999 V2000
    2.9190   14.2580  -12.0650 S   0  0  0  0  0  0  0  0  0  0  0  0
    1.1831   14.1524  -12.4799 C   0  0  0  0  0  0  0  0  0  0  0  0
    0.0927   14.8472  -12.5065 N   0  0  0  0  0  0  0  0  0  0  0  0
   -1.0010   14.0855  -12.9812 C   0  0  0  0  0  0  0  0  0  0  0  0
   -0.4251   12.7385  -13.2720 C   0  0  0  0  0  0  0  0  0  0  0  0
    1.0148   12.8314  -12.9326 N   0  0  0  0  0  0  0  0  0  0  0  0
    2.1592   12.0253  -12.9367 C   0  0  0  0  0  0  0  0  0  0  0  0
    3.2806   12.5678  -12.5188 C   0  0  0  0  0  0  0  0  0  0  0  0
    2.1896   10.5981  -13.3965 C   0  0  0  0  0  0  0  0  0  0  0  0
    2.2684   10.2746  -14.7324 C   0  0  0  0  0  0  0  0  0  0  0  0
    2.2954    8.9813  -15.2091 C   0  0  0  0  0  0  0  0  0  0  0  0
    2.2422    7.9232  -14.3312 C   0  0  0  0  0  0  0  0  0  0  0  0
    2.1627    8.2184  -12.9995 C   0  0  0  0  0  0  0  0  0  0  0  0
    2.1355    9.5426  -12.5234 C   0  0  0  0  0  0  0  0  0  0  0  0
    0.0727   16.2607  -12.0896 C   0  0  0  0  0  0  0  0  0  0  0  0
   -0.9816   16.9272  -12.8800 C   0  0  0  0  0  0  0  0  0  0  0  0
   -1.0997   16.7260  -14.1055 O   0  0  0  0  0  0  0  0  0  0  0  0
   -1.9107   17.8420  -12.2324 C   0  0  0  0  0  0  0  0  0  0  0  0
   -1.6615   18.3302  -10.9484 C   0  0  0  0  0  0  0  0  0  0  0  0
   -2.5304   19.1932  -10.3071 C   0  0  0  0  0  0  0  0  0  0  0  0
   -3.6654   19.5655  -10.9772 C   0  0  0  0  0  0  0  0  0  0  0  0
   -3.9572   19.1105  -12.2500 C   0  0  0  0  0  0  0  0  0  0  0  0
   -3.0634   18.2397  -12.8767 C   0  0  0  0  0  0  0  0  0  0  0  0
   -4.8639   20.7640  -10.0792 Br  0  0  0  0  0  0  0  0  0  0  0  0
  1  2  1  0  0  0
  1  8  1  0  0  0
  2  3  2  0  0  0
  2  6  1  0  0  0
  3  4  1  0  0  0
  3 15  1  0  0  0
  4  5  1  0  0  0
  5  6  1  0  0  0
  6  7  1  0  0  0
  7  8  2  0  0  0
  7  9  1  0  0  0
  9 10  2  0  0  0
  9 14  1  0  0  0
 10 11  1  0  0  0
 11 12  2  0  0  0
 12 13  1  0  0  0
 13 14  2  0  0  0
 15 16  1  0  0  0
 16 17  2  0  0  0
 16 18  1  0  0  0
 18 19  2  0  0  0
 18 23  1  0  0  0
 19 20  1  0  0  0
 20 21  2  0  0  0
 21 22  1  0  0  0
 21 24  1  0  0  0
 22 23  2  0  0  0
M  END
> <minimizedAffinity>
-9.33440

$$$$
1266


 28 31  0  0  0  0  0  0  0  0999 V2000
    0.1648    6.6464  -13.6972 C   0  0  0  0  0  0  0  0  0  0  0  0
    0.0696    6.3251  -12.2784 N   0  0  0  0  0  0  0  0  0  0  0  0
    0.8250    7.0453  -11.3652 C   0  0  0  0  0  0  0  0  0  0  0  0
    1.2572    8.4558  -11.7068 C   0  0  0  0  0  0  0  0  0  0  0  0
    1.3808    8.6886  -13.0796 N   0  0  0  0  0  0  0  0  0  0  0  0
    1.2524    7.5782  -13.9742 C   0  0  0  0  0  0  0  0  0  0  0  0
    1.6231    9.9411  -13.7002 C   0  0  0  0  0  0  0  0  0  0  0  0
    1.8402    9.8142  -14.9890 O   0  0  0  0  0  0  0  0  0  0  0  0
   -0.9258    6.2135  -11.9981 H   0  0  0  0  0  0  0  0  0  0  0  0
    1.6690   11.2742  -13.2188 C   0  0  0  0  0  0  0  0  0  0  0  0
    2.9444   11.8087  -12.9135 C   0  0  0  0  0  0  0  0  0  0  0  0
    3.0940   13.0913  -12.5838 N   0  0  0  0  0  0  0  0  0  0  0  0
    2.0570   13.9288  -12.5250 C   0  0  0  0  0  0  0  0  0  0  0  0
    0.7995   13.4702  -12.8098 C   0  0  0  0  0  0  0  0  0  0  0  0
    0.6002   12.1360  -13.1579 C   0  0  0  0  0  0  0  0  0  0  0  0
   -0.3152   14.3665  -12.7841 N   0  0  0  0  0  0  0  0  0  0  0  0
   -0.0801   15.7370  -12.4570 C   0  0  0  0  0  0  0  0  0  0  0  0
   -0.8211   16.6804  -12.8010 O   0  0  0  0  0  0  0  0  0  0  0  0
    1.1405   16.0432  -11.6492 C   0  0  0  0  0  0  0  0  0  0  0  0
    2.2332   15.2718  -12.1733 O   0  0  0  0  0  0  0  0  0  0  0  0
   -1.2725   14.0502  -13.0005 H   0  0  0  0  0  0  0  0  0  0  0  0
   -1.5585    4.6017  -14.8821 Cl  0  0  0  0  0  0  0  0  0  0  0  0
   -2.1345    6.2511  -14.5641 C   0  0  0  0  0  0  0  0  0  0  0  0
   -1.2010    7.1683  -14.0557 C   0  0  0  0  0  0  0  0  0  0  0  0
   -1.6455    8.4355  -13.8151 C   0  0  0  0  0  0  0  0  0  0  0  0
   -2.9621    8.7769  -14.0697 C   0  0  0  0  0  0  0  0  0  0  0  0
   -3.8843    7.8747  -14.5714 C   0  0  0  0  0  0  0  0  0  0  0  0
   -3.4485    6.5777  -14.8219 C   0  0  0  0  0  0  0  0  0  0  0  0
 22 23  1  0  0  0
 23 24  2  0  0  0
 23 28  1  0  0  0
 24 25  1  0  0  0
 24  1  1  0  0  0
 25 26  2  0  0  0
 26 27  1  0  0  0
 27 28  2  0  0  0
  1  2  1  0  0  0
  1  6  1  0  0  0
  2  3  1  0  0  0
  3  4  1  0  0  0
  4  5  1  0  0  0
  5  6  1  0  0  0
  5  7  1  0  0  0
  7  8  2  0  0  0
  7 10  1  0  0  0
 10 11  2  0  0  0
 10 15  1  0  0  0
 11 12  1  0  0  0
 12 13  2  0  0  0
 13 14  1  0  0  0
 13 20  1  0  0  0
 14 15  2  0  0  0
 14 16  1  0  0  0
 16 17  1  0  0  0
 17 18  2  0  0  0
 17 19  1  0  0  0
 19 20  1  0  0  0
  2  9  1  0  0  0
 16 21  1  0  0  0
M  END
> <minimizedAffinity>
-9.03879

$$$$
1271


 35 38  0  0  0  0  0  0  0  0999 V2000
   -1.5243   10.8022  -13.8136 C   0  0  0  0  0  0  0  0  0  0  0  0
   -1.4298   12.1072  -14.1007 N   0  0  0  0  0  0  0  0  0  0  0  0
   -0.1798   12.4422  -13.9082 N   0  0  0  0  0  0  0  0  0  0  0  0
    0.5281   11.3899  -13.5058 N   0  0  0  0  0  0  0  0  0  0  0  0
   -0.2605   10.3295  -13.4268 C   0  0  0  0  0  0  0  0  0  0  0  0
    1.9068   11.4465  -13.1926 C   0  0  0  0  0  0  0  0  0  0  0  0
    2.3944   12.1164  -12.1111 N   0  0  0  0  0  0  0  0  0  0  0  0
    3.6825   11.9770  -12.1135 O   0  0  0  0  0  0  0  0  0  0  0  0
    4.0778   11.2721  -13.1115 N   0  0  0  0  0  0  0  0  0  0  0  0
    2.9964   10.9163  -13.8179 C   0  0  0  0  0  0  0  0  0  0  0  0
    2.9579   10.1426  -14.9876 N   0  0  0  0  0  0  0  0  0  0  0  0
    3.4588   10.3511  -15.8790 H   0  0  0  0  0  0  0  0  0  0  0  0
    2.3807    9.2738  -14.9925 H   0  0  0  0  0  0  0  0  0  0  0  0
   -3.9114   10.5267  -14.5533 N   0  0  0  0  0  0  0  0  0  0  0  0
   -2.7510   10.0330  -13.9122 C   0  0  0  0  0  0  0  0  0  0  0  0
   -2.7767    8.8864  -13.4096 O   0  0  0  0  0  0  0  0  0  0  0  0
   -3.9494   11.4864  -14.9899 H   0  0  0  0  0  0  0  0  0  0  0  0
   -5.0829    9.7754  -14.6482 N   0  0  0  0  0  0  0  0  0  0  0  0
   -5.2610    9.0282  -15.3404 H   0  0  0  0  0  0  0  0  0  0  0  0
   -6.1429   10.0503  -13.7075 C   0  0  0  0  0  0  0  0  0  0  0  0
   -6.0781    9.5101  -12.5166 C   0  0  0  0  0  0  0  0  0  0  0  0
   -9.8925   11.0607  -17.3445 Br  0  0  0  0  0  0  0  0  0  0  0  0
   -8.9646   11.4175  -15.7229 C   0  0  0  0  0  0  0  0  0  0  0  0
   -7.9146   10.6299  -15.3188 C   0  0  0  0  0  0  0  0  0  0  0  0
   -7.2389   10.9000  -14.1296 C   0  0  0  0  0  0  0  0  0  0  0  0
   -7.6726   11.9704  -13.4033 C   0  0  0  0  0  0  0  0  0  0  0  0
   -8.7380   12.7740  -13.8098 C   0  0  0  0  0  0  0  0  0  0  0  0
   -9.3898   12.5004  -14.9728 C   0  0  0  0  0  0  0  0  0  0  0  0
   -0.0374    8.9633  -13.0125 C   0  0  0  0  0  0  0  0  0  0  0  0
    0.7164    8.1286  -13.9276 N   0  0  0  0  0  0  0  0  0  0  0  0
    1.7867    7.4269  -13.2254 C   0  0  0  0  0  0  0  0  0  0  0  0
    1.2944    6.7766  -11.9515 C   0  0  0  0  0  0  0  0  0  0  0  0
    0.1550    5.8231  -12.2643 C   0  0  0  0  0  0  0  0  0  0  0  0
   -0.1246    5.7860  -13.7399 C   0  0  0  0  0  0  0  0  0  0  0  0
   -0.1519    7.0786  -14.4521 C   0  0  0  0  0  0  0  0  0  0  0  0
 22 23  1  0  0  0
 23 24  2  0  0  0
 23 28  1  0  0  0
 24 25  1  0  0  0
 25 26  2  0  0  0
 25 20  1  0  0  0
 26 27  1  0  0  0
 27 28  2  0  0  0
 20 21  2  0  0  0
 20 18  1  0  0  0
 18 14  1  0  0  0
 14 15  1  0  0  0
 15 16  2  0  0  0
 15  1  1  0  0  0
  1  2  1  0  0  0
  1  5  2  0  0  0
  2  3  2  0  0  0
  3  4  1  0  0  0
  4  5  1  0  0  0
  4  6  1  0  0  0
  5 29  1  0  0  0
 29 30  1  0  0  0
 30 31  1  0  0  0
 30 35  1  0  0  0
 31 32  1  0  0  0
 32 33  1  0  0  0
 33 34  1  0  0  0
 34 35  1  0  0  0
  6  7  2  0  0  0
  6 10  1  0  0  0
  7  8  1  0  0  0
  8  9  1  0  0  0
  9 10  2  0  0  0
 10 11  1  0  0  0
 18 19  1  0  0  0
 14 17  1  0  0  0
 11 12  1  0  0  0
 11 13  1  0  0  0
M  END
> <minimizedAffinity>
-9.78828

$$$$
1280


 35 38  0  0  0  0  0  0  0  0999 V2000
    2.4704    8.1728  -12.7136 C   0  0  0  0  0  0  0  0  0  0  0  0
    3.0237    9.2481  -13.5124 N   0  0  0  0  0  0  0  0  0  0  0  0
    2.5887    9.0381  -14.8448 C   0  0  0  0  0  0  0  0  0  0  0  0
    3.1737    9.4312  -15.8592 O   0  0  0  0  0  0  0  0  0  0  0  0
    1.3309    8.2760  -14.7578 C   0  0  0  0  0  0  0  0  0  0  0  0
    0.6049    7.8841  -15.7033 O   0  0  0  0  0  0  0  0  0  0  0  0
    1.1057    8.0763  -13.3316 C   0  0  0  0  0  0  0  0  0  0  0  0
   -0.0747    7.8931  -12.7573 C   0  0  0  0  0  0  0  0  0  0  0  0
   -0.0521    7.7692  -11.3481 O   0  0  0  0  0  0  0  0  0  0  0  0
    7.2921    6.0607  -13.7172 Br  0  0  0  0  0  0  0  0  0  0  0  0
    5.4234    5.8985  -13.3001 C   0  0  0  0  0  0  0  0  0  0  0  0
    4.6270    7.0421  -13.1693 C   0  0  0  0  0  0  0  0  0  0  0  0
    3.2754    6.9523  -12.8682 C   0  0  0  0  0  0  0  0  0  0  0  0
    2.7624    5.6949  -12.7061 C   0  0  0  0  0  0  0  0  0  0  0  0
    3.5371    4.5490  -12.8315 C   0  0  0  0  0  0  0  0  0  0  0  0
    4.8745    4.6537  -13.1310 C   0  0  0  0  0  0  0  0  0  0  0  0
   -1.3356    7.8171  -13.4869 C   0  0  0  0  0  0  0  0  0  0  0  0
   -2.1522    8.8811  -13.7302 C   0  0  0  0  0  0  0  0  0  0  0  0
   -3.3774    8.7098  -14.3998 C   0  0  0  0  0  0  0  0  0  0  0  0
   -3.8120    7.4885  -14.8387 C   0  0  0  0  0  0  0  0  0  0  0  0
   -2.9871    6.4112  -14.5952 C   0  0  0  0  0  0  0  0  0  0  0  0
   -1.7915    6.5663  -13.9441 C   0  0  0  0  0  0  0  0  0  0  0  0
   -1.7410   10.2487  -13.3352 C   0  0  0  0  0  0  0  0  0  0  0  0
   -5.0254    7.3132  -15.5042 O   0  0  0  0  0  0  0  0  0  0  0  0
   -6.0789    8.2240  -15.3235 C   0  0  0  0  0  0  0  0  0  0  0  0
    3.8631   10.3054  -12.9893 C   0  0  0  0  0  0  0  0  0  0  0  0
    3.3430   11.6800  -13.2701 C   0  0  0  0  0  0  0  0  0  0  0  0
    1.9335   11.9301  -12.8902 C   0  0  0  0  0  0  0  0  0  0  0  0
    1.5868   13.2894  -12.6729 N   0  0  0  0  0  0  0  0  0  0  0  0
    0.1349   13.5323  -12.6514 C   0  0  0  0  0  0  0  0  0  0  0  0
   -0.0291   15.0167  -12.9849 C   0  0  0  0  0  0  0  0  0  0  0  0
    1.1720   15.6996  -12.9209 O   0  0  0  0  0  0  0  0  0  0  0  0
    1.8264   15.4477  -11.7147 C   0  0  0  0  0  0  0  0  0  0  0  0
    2.1282   13.9480  -11.5401 C   0  0  0  0  0  0  0  0  0  0  0  0
    1.9250   13.8307  -13.5261 H   0  0  0  0  0  0  0  0  0  0  0  0
 10 11  1  0  0  0
 11 12  2  0  0  0
 11 16  1  0  0  0
 12 13  1  0  0  0
 13 14  2  0  0  0
 13  1  1  0  0  0
 14 15  1  0  0  0
 15 16  2  0  0  0
  1  2  1  0  0  0
  1  7  1  0  0  0
  2  3  1  0  0  0
  2 26  1  0  0  0
  3  4  2  0  0  0
  3  5  1  0  0  0
  5  6  2  0  0  0
  5  7  1  0  0  0
  7  8  2  0  0  0
  8  9  1  0  0  0
  8 17  1  0  0  0
 17 18  2  0  0  0
 17 22  1  0  0  0
 18 19  1  0  0  0
 18 23  1  0  0  0
 19 20  2  0  0  0
 20 21  1  0  0  0
 20 24  1  0  0  0
 21 22  2  0  0  0
 24 25  1  0  0  0
 26 27  1  0  0  0
 27 28  1  0  0  0
 28 29  1  0  0  0
 29 30  1  0  0  0
 29 34  1  0  0  0
 30 31  1  0  0  0
 31 32  1  0  0  0
 32 33  1  0  0  0
 33 34  1  0  0  0
 29 35  1  0  0  0
M  CHG 1   9  -1
M  CHG 1  29   1
M  END
> <minimizedAffinity>
-9.09190

$$$$
1282


 30 33  0  0  0  0  0  0  0  0999 V2000
   -4.2801    9.5339  -13.8558 C   0  0  0  0  0  0  0  0  0  0  0  0
   -2.9263   10.2033  -13.9937 C   0  0  0  0  0  0  0  0  0  0  0  0
   -2.0057    9.0842  -13.9439 N   0  0  0  0  0  0  0  0  0  0  0  0
   -2.7175    7.8235  -13.9959 C   0  0  0  0  0  0  0  0  0  0  0  0
   -4.0615    8.2486  -14.6025 C   0  0  0  0  0  0  0  0  0  0  0  0
   -1.9888    6.9127  -14.8774 C   0  0  0  0  0  0  0  0  0  0  0  0
   -2.5486    6.3386  -15.8228 O   0  0  0  0  0  0  0  0  0  0  0  0
   -0.6102    6.7009  -14.6183 N   0  0  0  0  0  0  0  0  0  0  0  0
    0.1558    7.7322  -13.9556 C   0  0  0  0  0  0  0  0  0  0  0  0
   -0.5752    9.0153  -13.8548 C   0  0  0  0  0  0  0  0  0  0  0  0
    0.0652   10.0862  -13.6862 O   0  0  0  0  0  0  0  0  0  0  0  0
   -0.1158    5.8213  -14.8900 H   0  0  0  0  0  0  0  0  0  0  0  0
   -6.5254   10.4896  -13.6885 C   0  0  0  0  0  0  0  0  0  0  0  0
   -6.6322    9.9055  -12.5479 O   0  0  0  0  0  0  0  0  0  0  0  0
   -5.3364   10.3467  -14.4318 N   0  0  0  0  0  0  0  0  0  0  0  0
   -5.2466   10.8073  -15.3478 H   0  0  0  0  0  0  0  0  0  0  0  0
  -10.1991   11.2320  -17.4581 Br  0  0  0  0  0  0  0  0  0  0  0  0
   -9.3382   11.6910  -15.8120 C   0  0  0  0  0  0  0  0  0  0  0  0
   -8.2789   10.9535  -15.3606 C   0  0  0  0  0  0  0  0  0  0  0  0
   -7.6474   11.2796  -14.1665 C   0  0  0  0  0  0  0  0  0  0  0  0
   -8.1150   12.3470  -13.4658 C   0  0  0  0  0  0  0  0  0  0  0  0
   -9.1897   13.0880  -13.9318 C   0  0  0  0  0  0  0  0  0  0  0  0
   -9.8112   12.7643  -15.1126 C   0  0  0  0  0  0  0  0  0  0  0  0
    0.7006    7.2812  -12.6170 C   0  0  0  0  0  0  0  0  0  0  0  0
    1.9905    6.5795  -12.7212 C   0  0  0  0  0  0  0  0  0  0  0  0
    3.0831    7.2265  -13.2696 C   0  0  0  0  0  0  0  0  0  0  0  0
    4.2921    6.5775  -13.3705 C   0  0  0  0  0  0  0  0  0  0  0  0
    4.4785    5.2769  -12.9418 C   0  0  0  0  0  0  0  0  0  0  0  0
    3.3914    4.6293  -12.3948 C   0  0  0  0  0  0  0  0  0  0  0  0
    2.1699    5.2651  -12.2854 C   0  0  0  0  0  0  0  0  0  0  0  0
 17 18  1  0  0  0
 18 19  2  0  0  0
 18 23  1  0  0  0
 19 20  1  0  0  0
 20 21  2  0  0  0
 20 13  1  0  0  0
 21 22  1  0  0  0
 22 23  2  0  0  0
 13 14  2  0  0  0
 13 15  1  0  0  0
 15  1  1  0  0  0
  1  2  1  0  0  0
  1  5  1  0  0  0
  2  3  1  0  0  0
  3  4  1  0  0  0
  3 10  1  0  0  0
  4  5  1  0  0  0
  4  6  1  0  0  0
  6  7  2  0  0  0
  6  8  1  0  0  0
  8  9  1  0  0  0
  9 10  1  0  0  0
  9 24  1  0  0  0
 10 11  2  0  0  0
 24 25  1  0  0  0
 25 26  2  0  0  0
 25 30  1  0  0  0
 26 27  1  0  0  0
 27 28  2  0  0  0
 28 29  1  0  0  0
 29 30  2  0  0  0
 15 16  1  0  0  0
  8 12  1  0  0  0
M  END
> <minimizedAffinity>
-10.64440

$$$$
1284


 35 38  0  0  0  0  0  0  0  0999 V2000
    5.3563    6.0813  -13.9549 C   0  0  0  0  0  0  0  0  0  0  0  0
    4.7370    5.0344  -13.2320 N   0  0  0  0  0  0  0  0  0  0  0  0
    3.5354    5.5048  -12.6439 C   0  0  0  0  0  0  0  0  0  0  0  0
    2.7984    4.8335  -11.8565 O   0  0  0  0  0  0  0  0  0  0  0  0
    3.2998    6.8581  -13.0984 C   0  0  0  0  0  0  0  0  0  0  0  0
    2.2937    7.5178  -12.7215 O   0  0  0  0  0  0  0  0  0  0  0  0
    4.3926    7.2125  -13.9837 C   0  0  0  0  0  0  0  0  0  0  0  0
    4.4930    8.3550  -14.6243 C   0  0  0  0  0  0  0  0  0  0  0  0
    5.6134    8.6008  -15.3841 O   0  0  0  0  0  0  0  0  0  0  0  0
   10.6463    5.9572  -14.5382 Br  0  0  0  0  0  0  0  0  0  0  0  0
    9.0635    6.4303  -13.5811 C   0  0  0  0  0  0  0  0  0  0  0  0
    7.8038    6.1347  -14.0044 C   0  0  0  0  0  0  0  0  0  0  0  0
    6.6332    6.4603  -13.3411 C   0  0  0  0  0  0  0  0  0  0  0  0
    6.7543    7.1488  -12.1371 C   0  0  0  0  0  0  0  0  0  0  0  0
    8.0184    7.4641  -11.6770 C   0  0  0  0  0  0  0  0  0  0  0  0
    9.1703    7.1246  -12.3650 C   0  0  0  0  0  0  0  0  0  0  0  0
    3.4503    9.3479  -14.5510 C   0  0  0  0  0  0  0  0  0  0  0  0
    3.4384   10.4073  -13.6267 C   0  0  0  0  0  0  0  0  0  0  0  0
    2.3587   11.1676  -13.8456 N   0  0  0  0  0  0  0  0  0  0  0  0
    1.7051   10.6290  -14.8585 N   0  0  0  0  0  0  0  0  0  0  0  0
    2.3302    9.5328  -15.3131 C   0  0  0  0  0  0  0  0  0  0  0  0
    4.4872   10.6128  -12.5858 C   0  0  0  0  0  0  0  0  0  0  0  0
    1.9772   12.3427  -13.1444 C   0  0  0  0  0  0  0  0  0  0  0  0
    0.6354   12.6987  -13.1175 C   0  0  0  0  0  0  0  0  0  0  0  0
    0.1922   13.8212  -12.4468 C   0  0  0  0  0  0  0  0  0  0  0  0
    1.0844   14.6483  -11.7633 C   0  0  0  0  0  0  0  0  0  0  0  0
    2.4214   14.2937  -11.7902 C   0  0  0  0  0  0  0  0  0  0  0  0
    2.8362   13.1739  -12.4638 C   0  0  0  0  0  0  0  0  0  0  0  0
    5.2197    3.6308  -13.1013 C   0  0  0  0  0  0  0  0  0  0  0  0
    5.6072    3.1010  -14.4578 C   0  0  0  0  0  0  0  0  0  0  0  0
    6.7178    2.0998  -14.4124 C   0  0  0  0  0  0  0  0  0  0  0  0
    7.9825    2.5801  -13.9633 N   0  0  0  0  0  0  0  0  0  0  0  0
    8.4772    2.0246  -12.7467 C   0  0  0  0  0  0  0  0  0  0  0  0
    9.0045    2.3616  -14.9998 C   0  0  0  0  0  0  0  0  0  0  0  0
    7.9434    3.6390  -13.8570 H   0  0  0  0  0  0  0  0  0  0  0  0
 10 11  1  0  0  0
 11 12  2  0  0  0
 11 16  1  0  0  0
 12 13  1  0  0  0
 13 14  2  0  0  0
 13  1  1  0  0  0
 14 15  1  0  0  0
 15 16  2  0  0  0
  1  2  1  0  0  0
  1  7  1  0  0  0
  2  3  1  0  0  0
  2 29  1  0  0  0
  3  4  2  0  0  0
  3  5  1  0  0  0
  5  6  2  0  0  0
  5  7  1  0  0  0
  7  8  2  0  0  0
  8  9  1  0  0  0
  8 17  1  0  0  0
 17 18  2  0  0  0
 17 21  1  0  0  0
 18 19  1  0  0  0
 18 22  1  0  0  0
 19 20  1  0  0  0
 19 23  1  0  0  0
 20 21  2  0  0  0
 23 24  2  0  0  0
 23 28  1  0  0  0
 24 25  1  0  0  0
 25 26  2  0  0  0
 26 27  1  0  0  0
 27 28  2  0  0  0
 29 30  1  0  0  0
 30 31  1  0  0  0
 31 32  1  0  0  0
 32 33  1  0  0  0
 32 34  1  0  0  0
 32 35  1  0  0  0
M  CHG 1   9  -1
M  CHG 1  32   1
M  END
> <minimizedAffinity>
-7.51687

$$$$
1285


 34 37  0  0  0  0  0  0  0  0999 V2000
    2.6437    8.1108  -12.7468 C   0  0  0  0  0  0  0  0  0  0  0  0
    3.1347    9.1995  -13.5689 N   0  0  0  0  0  0  0  0  0  0  0  0
    2.6116    9.0192  -14.9030 C   0  0  0  0  0  0  0  0  0  0  0  0
    3.0780    9.4473  -15.9653 O   0  0  0  0  0  0  0  0  0  0  0  0
    1.4061    8.2163  -14.7208 C   0  0  0  0  0  0  0  0  0  0  0  0
    0.6002    7.7926  -15.6021 O   0  0  0  0  0  0  0  0  0  0  0  0
    1.2508    7.9504  -13.3001 C   0  0  0  0  0  0  0  0  0  0  0  0
    0.1583    7.6006  -12.6409 C   0  0  0  0  0  0  0  0  0  0  0  0
    0.2865    7.3349  -11.2478 O   0  0  0  0  0  0  0  0  0  0  0  0
   -1.1234    7.4983  -13.2932 C   0  0  0  0  0  0  0  0  0  0  0  0
   -1.9804    8.4893  -13.6181 N   0  0  0  0  0  0  0  0  0  0  0  0
   -3.0479    7.9433  -14.2504 C   0  0  0  0  0  0  0  0  0  0  0  0
   -2.8796    6.5946  -14.3345 N   0  0  0  0  0  0  0  0  0  0  0  0
   -1.6911    6.3329  -13.7409 C   0  0  0  0  0  0  0  0  0  0  0  0
   -1.1092    4.9688  -13.6069 C   0  0  0  0  0  0  0  0  0  0  0  0
   -4.1254    8.6535  -14.7128 C   0  0  0  0  0  0  0  0  0  0  0  0
   -4.1221   10.0171  -14.5187 C   0  0  0  0  0  0  0  0  0  0  0  0
   -3.0385   10.5776  -13.8735 C   0  0  0  0  0  0  0  0  0  0  0  0
   -1.9868    9.8203  -13.4327 C   0  0  0  0  0  0  0  0  0  0  0  0
   -5.2737    7.9998  -15.4049 C   0  0  0  0  0  0  0  0  0  0  0  0
    7.3741    5.9594  -13.7173 Br  0  0  0  0  0  0  0  0  0  0  0  0
    5.5135    5.8182  -13.3078 C   0  0  0  0  0  0  0  0  0  0  0  0
    4.7597    6.9427  -13.1764 C   0  0  0  0  0  0  0  0  0  0  0  0
    3.3969    6.8563  -12.8768 C   0  0  0  0  0  0  0  0  0  0  0  0
    2.8496    5.6014  -12.7194 C   0  0  0  0  0  0  0  0  0  0  0  0
    3.6197    4.4528  -12.8534 C   0  0  0  0  0  0  0  0  0  0  0  0
    4.9574    4.5718  -13.1492 C   0  0  0  0  0  0  0  0  0  0  0  0
    4.0046   10.2841  -13.1467 C   0  0  0  0  0  0  0  0  0  0  0  0
    3.3490   11.2870  -12.2609 C   0  0  0  0  0  0  0  0  0  0  0  0
    2.2332   12.0690  -12.9073 C   0  0  0  0  0  0  0  0  0  0  0  0
    2.3165   13.4554  -12.5121 N   0  0  0  0  0  0  0  0  0  0  0  0
    0.9907   13.9978  -12.2791 C   0  0  0  0  0  0  0  0  0  0  0  0
    3.0216   13.5295  -11.2476 C   0  0  0  0  0  0  0  0  0  0  0  0
    2.8649   14.0321  -13.1863 H   0  0  0  0  0  0  0  0  0  0  0  0
 21 22  1  0  0  0
 22 23  2  0  0  0
 22 27  1  0  0  0
 23 24  1  0  0  0
 24 25  2  0  0  0
 24  1  1  0  0  0
 25 26  1  0  0  0
 26 27  2  0  0  0
  1  2  1  0  0  0
  1  7  1  0  0  0
  2  3  1  0  0  0
  2 28  1  0  0  0
  3  4  2  0  0  0
  3  5  1  0  0  0
  5  6  2  0  0  0
  5  7  1  0  0  0
  7  8  2  0  0  0
  8  9  1  0  0  0
  8 10  1  0  0  0
 10 11  1  0  0  0
 10 14  2  0  0  0
 11 12  1  0  0  0
 11 19  1  0  0  0
 12 13  2  0  0  0
 12 16  1  0  0  0
 13 14  1  0  0  0
 14 15  1  0  0  0
 16 17  2  0  0  0
 16 20  1  0  0  0
 17 18  1  0  0  0
 18 19  2  0  0  0
 28 29  1  0  0  0
 29 30  1  0  0  0
 30 31  1  0  0  0
 31 32  1  0  0  0
 31 33  1  0  0  0
 31 34  1  0  0  0
M  CHG 1   9  -1
M  CHG 1  31   1
M  END
> <minimizedAffinity>
-8.67639

$$$$
1295


 26 29  0  0  0  0  0  0  0  0999 V2000
    1.8312    8.1367  -12.8537 C   0  0  0  0  0  0  0  0  0  0  0  0
    2.8279    7.0905  -12.9165 C   0  0  0  0  0  0  0  0  0  0  0  0
    4.0788    7.3325  -13.4106 C   0  0  0  0  0  0  0  0  0  0  0  0
    4.4800    8.6298  -13.8682 N   0  0  0  0  0  0  0  0  0  0  0  0
    3.4958    9.6519  -13.7752 C   0  0  0  0  0  0  0  0  0  0  0  0
    2.2971    9.4474  -13.3051 C   0  0  0  0  0  0  0  0  0  0  0  0
    1.5478   10.7415  -13.3215 C   0  0  0  0  0  0  0  0  0  0  0  0
    0.3503   10.8495  -12.9202 O   0  0  0  0  0  0  0  0  0  0  0  0
    2.4050   11.6632  -13.8269 O   0  0  0  0  0  0  0  0  0  0  0  0
    3.6261   11.1089  -14.1814 C   0  0  0  0  0  0  0  0  0  0  0  0
    4.9926    6.3103  -13.4642 N   0  0  0  0  0  0  0  0  0  0  0  0
    4.6691    5.0846  -13.0379 C   0  0  0  0  0  0  0  0  0  0  0  0
    5.5265    4.1581  -13.0966 O   0  0  0  0  0  0  0  0  0  0  0  0
    3.4371    4.8566  -12.5534 N   0  0  0  0  0  0  0  0  0  0  0  0
    2.4939    5.7917  -12.4675 C   0  0  0  0  0  0  0  0  0  0  0  0
    1.3398    5.5880  -12.0157 O   0  0  0  0  0  0  0  0  0  0  0  0
    3.1290    3.4996  -12.0991 C   0  0  0  0  0  0  0  0  0  0  0  0
    6.3066    6.6317  -14.0014 C   0  0  0  0  0  0  0  0  0  0  0  0
    5.4372    8.7710  -14.2375 H   0  0  0  0  0  0  0  0  0  0  0  0
   -3.8182    6.7354  -14.8914 Br  0  0  0  0  0  0  0  0  0  0  0  0
   -2.0421    7.1600  -14.2879 C   0  0  0  0  0  0  0  0  0  0  0  0
   -0.9550    6.9699  -15.1015 C   0  0  0  0  0  0  0  0  0  0  0  0
    0.3292    7.2907  -14.6275 C   0  0  0  0  0  0  0  0  0  0  0  0
    0.5118    7.7889  -13.3725 C   0  0  0  0  0  0  0  0  0  0  0  0
   -0.5832    7.9755  -12.5664 C   0  0  0  0  0  0  0  0  0  0  0  0
   -1.8723    7.6578  -13.0287 C   0  0  0  0  0  0  0  0  0  0  0  0
 20 21  1  0  0  0
 21 22  2  0  0  0
 21 26  1  0  0  0
 22 23  1  0  0  0
 23 24  2  0  0  0
 24 25  1  0  0  0
 24  1  1  0  0  0
 25 26  2  0  0  0
  1  2  1  0  0  0
  1  6  1  0  0  0
  2  3  2  0  0  0
  2 15  1  0  0  0
  3  4  1  0  0  0
  3 11  1  0  0  0
  4  5  1  0  0  0
  5  6  2  0  0  0
  5 10  1  0  0  0
  6  7  1  0  0  0
  7  8  2  0  0  0
  7  9  1  0  0  0
  9 10  1  0  0  0
 11 12  1  0  0  0
 11 18  1  0  0  0
 12 13  2  0  0  0
 12 14  1  0  0  0
 14 15  1  0  0  0
 14 17  1  0  0  0
 15 16  2  0  0  0
  4 19  1  0  0  0
M  END
> <minimizedAffinity>
-6.91376

$$$$
1299


 36 39  0  0  0  0  0  0  0  0999 V2000
    0.4509    9.9250  -13.2790 C   0  0  0  0  0  0  0  0  0  0  0  0
    0.7169   11.2696  -13.3271 N   0  0  0  0  0  0  0  0  0  0  0  0
   -0.4471   11.8533  -13.5222 N   0  0  0  0  0  0  0  0  0  0  0  0
   -1.4100   10.9947  -13.5982 N   0  0  0  0  0  0  0  0  0  0  0  0
   -0.8949    9.7414  -13.4497 C   0  0  0  0  0  0  0  0  0  0  0  0
    1.9771   11.8943  -13.1957 C   0  0  0  0  0  0  0  0  0  0  0  0
    3.1923   11.4954  -13.6466 N   0  0  0  0  0  0  0  0  0  0  0  0
    4.0720   12.3665  -13.3039 O   0  0  0  0  0  0  0  0  0  0  0  0
    3.5568   13.3531  -12.6419 N   0  0  0  0  0  0  0  0  0  0  0  0
    2.2251   13.0916  -12.5501 C   0  0  0  0  0  0  0  0  0  0  0  0
    1.2894   13.9321  -11.8961 N   0  0  0  0  0  0  0  0  0  0  0  0
    0.3182   13.9551  -12.2585 H   0  0  0  0  0  0  0  0  0  0  0  0
    1.5172   14.5244  -11.0764 H   0  0  0  0  0  0  0  0  0  0  0  0
    2.3861    8.4293  -14.0589 N   0  0  0  0  0  0  0  0  0  0  0  0
    1.5282    8.9651  -13.0726 C   0  0  0  0  0  0  0  0  0  0  0  0
    1.7651    8.5261  -11.8832 O   0  0  0  0  0  0  0  0  0  0  0  0
    2.3642    8.6521  -15.0786 H   0  0  0  0  0  0  0  0  0  0  0  0
    4.5567    7.4823  -14.0894 C   0  0  0  0  0  0  0  0  0  0  0  0
    3.3761    7.4940  -13.6055 N   0  0  0  0  0  0  0  0  0  0  0  0
    5.8294    2.4066  -13.0005 Br  0  0  0  0  0  0  0  0  0  0  0  0
    6.2273    4.2705  -13.1098 C   0  0  0  0  0  0  0  0  0  0  0  0
    7.4887    4.6923  -12.7414 C   0  0  0  0  0  0  0  0  0  0  0  0
    7.7668    6.0336  -12.8231 C   0  0  0  0  0  0  0  0  0  0  0  0
    6.8142    6.9356  -13.2606 C   0  0  0  0  0  0  0  0  0  0  0  0
    5.5704    6.5240  -13.6242 C   0  0  0  0  0  0  0  0  0  0  0  0
    5.2833    5.1787  -13.5453 C   0  0  0  0  0  0  0  0  0  0  0  0
    9.5222    6.6282  -12.3112 Br  0  0  0  0  0  0  0  0  0  0  0  0
    8.4698    3.8177  -12.2970 O   0  0  0  0  0  0  0  0  0  0  0  0
    8.3300    2.8263  -12.2146 H   0  0  0  0  0  0  0  0  0  0  0  0
   -1.6032    8.4624  -13.4762 C   0  0  0  0  0  0  0  0  0  0  0  0
   -0.8608    7.3851  -14.1126 N   0  0  0  0  0  0  0  0  0  0  0  0
   -0.7226    6.2603  -13.1960 C   0  0  0  0  0  0  0  0  0  0  0  0
   -1.8446    5.2729  -13.3498 C   0  0  0  0  0  0  0  0  0  0  0  0
   -2.9920    5.8041  -13.9094 O   0  0  0  0  0  0  0  0  0  0  0  0
   -2.8156    6.3571  -15.1686 C   0  0  0  0  0  0  0  0  0  0  0  0
   -1.4449    6.9484  -15.3568 C   0  0  0  0  0  0  0  0  0  0  0  0
 20 21  1  0  0  0
 21 22  2  0  0  0
 21 26  1  0  0  0
 22 23  1  0  0  0
 22 28  1  0  0  0
 23 24  2  0  0  0
 23 27  1  0  0  0
 24 25  1  0  0  0
 25 26  2  0  0  0
 25 18  1  0  0  0
 18 19  2  0  0  0
 19 14  1  0  0  0
 14 15  1  0  0  0
 15 16  2  0  0  0
 15  1  1  0  0  0
  1  2  1  0  0  0
  1  5  2  0  0  0
  2  3  1  0  0  0
  2  6  1  0  0  0
  3  4  2  0  0  0
  4  5  1  0  0  0
  5 30  1  0  0  0
 30 31  1  0  0  0
 31 32  1  0  0  0
 31 36  1  0  0  0
 32 33  1  0  0  0
 33 34  1  0  0  0
 34 35  1  0  0  0
 35 36  1  0  0  0
  6  7  2  0  0  0
  6 10  1  0  0  0
  7  8  1  0  0  0
  8  9  1  0  0  0
  9 10  2  0  0  0
 10 11  1  0  0  0
 14 17  1  0  0  0
 11 12  1  0  0  0
 11 13  1  0  0  0
 28 29  1  0  0  0
M  END
> <minimizedAffinity>
-8.62007

$$$$
1300


 22 25  0  0  0  0  0  0  0  0999 V2000
    0.7267    8.8503  -13.4882 N   0  0  0  0  0  0  0  0  0  0  0  0
    1.4525    8.8303  -12.2731 C   0  0  0  0  0  0  0  0  0  0  0  0
    1.0682    8.3553  -11.1846 O   0  0  0  0  0  0  0  0  0  0  0  0
    2.7757    9.4655  -12.4516 C   0  0  0  0  0  0  0  0  0  0  0  0
    2.6292   10.9062  -12.0122 C   0  0  0  0  0  0  0  0  0  0  0  0
    1.8977   11.4230  -13.1147 O   0  0  0  0  0  0  0  0  0  0  0  0
    2.8763   11.1265  -14.1007 C   0  0  0  0  0  0  0  0  0  0  0  0
    2.9418    9.6294  -13.9596 C   0  0  0  0  0  0  0  0  0  0  0  0
    1.6959    9.0588  -14.5186 C   0  0  0  0  0  0  0  0  0  0  0  0
    1.5040    8.7888  -15.7485 O   0  0  0  0  0  0  0  0  0  0  0  0
    4.0470   11.8001  -13.5005 C   0  0  0  0  0  0  0  0  0  0  0  0
    3.9092   11.6364  -12.1874 C   0  0  0  0  0  0  0  0  0  0  0  0
   -0.0542    5.9589  -13.9017 Br  0  0  0  0  0  0  0  0  0  0  0  0
   -1.2294    7.4702  -13.9653 C   0  0  0  0  0  0  0  0  0  0  0  0
   -0.6621    8.7039  -13.7430 C   0  0  0  0  0  0  0  0  0  0  0  0
   -1.5250    9.8000  -13.7884 C   0  0  0  0  0  0  0  0  0  0  0  0
   -2.8655    9.6308  -14.0438 C   0  0  0  0  0  0  0  0  0  0  0  0
   -3.4357    8.3884  -14.2673 C   0  0  0  0  0  0  0  0  0  0  0  0
   -2.5875    7.2994  -14.2234 C   0  0  0  0  0  0  0  0  0  0  0  0
   -4.8258    8.2454  -14.5313 N   0  0  0  0  0  0  0  0  0  0  0  0
   -5.6157    9.0168  -13.9592 O   0  0  0  0  0  0  0  0  0  0  0  0
   -5.3575    7.3116  -15.3778 O   0  0  0  0  0  0  0  0  0  0  0  0
 13 14  1  0  0  0
 14 15  2  0  0  0
 14 19  1  0  0  0
 15 16  1  0  0  0
 15  1  1  0  0  0
 16 17  2  0  0  0
 17 18  1  0  0  0
 18 19  2  0  0  0
 18 20  1  0  0  0
 20 21  2  0  0  0
 20 22  1  0  0  0
  1  2  1  0  0  0
  1  9  1  0  0  0
  2  3  2  0  0  0
  2  4  1  0  0  0
  4  5  1  0  0  0
  4  8  1  0  0  0
  5  6  1  0  0  0
  5 12  1  0  0  0
  6  7  1  0  0  0
  7  8  1  0  0  0
  7 11  1  0  0  0
  8  9  1  0  0  0
  9 10  2  0  0  0
 11 12  2  0  0  0
M  CHG 1  22  -1
M  END
> <minimizedAffinity>
-7.23483

$$$$
1301


 24 27  0  0  0  0  0  0  0  0999 V2000
    0.7100   10.0330  -13.9097 N   0  0  0  0  0  0  0  0  0  0  0  0
    1.6822    9.4735  -14.7852 C   0  0  0  0  0  0  0  0  0  0  0  0
    2.2904   10.0486  -15.7136 O   0  0  0  0  0  0  0  0  0  0  0  0
    1.8956    8.0362  -14.4359 C   0  0  0  0  0  0  0  0  0  0  0  0
    2.9300    7.8636  -13.3743 C   0  0  0  0  0  0  0  0  0  0  0  0
    2.2285    8.1943  -12.1880 O   0  0  0  0  0  0  0  0  0  0  0  0
    1.1919    7.2408  -12.3520 C   0  0  0  0  0  0  0  0  0  0  0  0
    0.6285    7.6693  -13.6672 C   0  0  0  0  0  0  0  0  0  0  0  0
   -0.1157    8.9428  -13.5223 C   0  0  0  0  0  0  0  0  0  0  0  0
   -1.2934    9.0397  -13.1186 O   0  0  0  0  0  0  0  0  0  0  0  0
    2.0239    6.0099  -12.5090 C   0  0  0  0  0  0  0  0  0  0  0  0
    3.1375    6.4083  -13.1491 C   0  0  0  0  0  0  0  0  0  0  0  0
    0.2506    7.2078  -11.2246 C   0  0  0  0  0  0  0  0  0  0  0  0
    3.0497   14.1405  -11.5107 Br  0  0  0  0  0  0  0  0  0  0  0  0
    1.6014   13.3560  -12.4633 C   0  0  0  0  0  0  0  0  0  0  0  0
    0.5119   14.1395  -12.7651 C   0  0  0  0  0  0  0  0  0  0  0  0
   -0.5204   13.5466  -13.4546 C   0  0  0  0  0  0  0  0  0  0  0  0
   -0.4497   12.1999  -13.8278 C   0  0  0  0  0  0  0  0  0  0  0  0
    0.6365   11.4011  -13.5326 C   0  0  0  0  0  0  0  0  0  0  0  0
    1.6662   12.0115  -12.8379 C   0  0  0  0  0  0  0  0  0  0  0  0
    0.4339   15.5767  -12.3713 C   0  0  0  0  0  0  0  0  0  0  0  0
    4.1708    8.6380  -13.5533 C   0  0  0  0  0  0  0  0  0  0  0  0
    4.8212    8.3167  -14.7424 O   0  0  0  0  0  0  0  0  0  0  0  0
    5.5383    7.6333  -14.6222 H   0  0  0  0  0  0  0  0  0  0  0  0
 14 15  1  0  0  0
 15 16  2  0  0  0
 15 20  1  0  0  0
 16 17  1  0  0  0
 16 21  1  0  0  0
 17 18  2  0  0  0
 18 19  1  0  0  0
 19 20  2  0  0  0
 19  1  1  0  0  0
  1  2  1  0  0  0
  1  9  1  0  0  0
  2  3  2  0  0  0
  2  4  1  0  0  0
  4  5  1  0  0  0
  4  8  1  0  0  0
  5  6  1  0  0  0
  5 12  1  0  0  0
  5 22  1  0  0  0
  6  7  1  0  0  0
  7  8  1  0  0  0
  7 11  1  0  0  0
  7 13  1  0  0  0
  8  9  1  0  0  0
  9 10  2  0  0  0
 11 12  2  0  0  0
 22 23  1  0  0  0
 23 24  1  0  0  0
M  END
> <minimizedAffinity>
-7.95707

$$$$
1310


 32 35  0  0  0  0  0  0  0  0999 V2000
    2.1897    7.4989  -13.9623 C   0  0  0  0  0  0  0  0  0  0  0  0
    1.2111    6.8933  -13.0856 N   0  0  0  0  0  0  0  0  0  0  0  0
    1.3333    7.5347  -11.8284 C   0  0  0  0  0  0  0  0  0  0  0  0
    1.0513    7.0736  -10.6943 O   0  0  0  0  0  0  0  0  0  0  0  0
    1.8637    8.8699  -12.1064 C   0  0  0  0  0  0  0  0  0  0  0  0
    2.1381    9.7922  -11.3051 O   0  0  0  0  0  0  0  0  0  0  0  0
    2.0248    8.9337  -13.5676 C   0  0  0  0  0  0  0  0  0  0  0  0
    2.0424   10.0346  -14.2838 C   0  0  0  0  0  0  0  0  0  0  0  0
    2.2540    9.8933  -15.6611 O   0  0  0  0  0  0  0  0  0  0  0  0
    1.8430   11.3719  -13.6903 C   0  0  0  0  0  0  0  0  0  0  0  0
    2.7219   12.1701  -13.1614 O   0  0  0  0  0  0  0  0  0  0  0  0
    2.1709   13.2851  -12.7377 C   0  0  0  0  0  0  0  0  0  0  0  0
    0.8112   13.2408  -12.9998 C   0  0  0  0  0  0  0  0  0  0  0  0
    0.6221   12.0146  -13.6076 C   0  0  0  0  0  0  0  0  0  0  0  0
   -0.0019   14.2971  -12.6506 C   0  0  0  0  0  0  0  0  0  0  0  0
    0.4890   15.4266  -12.0360 C   0  0  0  0  0  0  0  0  0  0  0  0
    1.8390   15.4863  -11.7683 C   0  0  0  0  0  0  0  0  0  0  0  0
    2.6650   14.4200  -12.1197 C   0  0  0  0  0  0  0  0  0  0  0  0
    5.5857    3.4240  -12.9344 Br  0  0  0  0  0  0  0  0  0  0  0  0
    5.2044    5.2648  -13.3431 C   0  0  0  0  0  0  0  0  0  0  0  0
    3.8846    5.6944  -13.4954 C   0  0  0  0  0  0  0  0  0  0  0  0
    3.5544    6.9937  -13.7854 C   0  0  0  0  0  0  0  0  0  0  0  0
    4.6310    7.8861  -13.9232 C   0  0  0  0  0  0  0  0  0  0  0  0
    5.9359    7.4763  -13.7768 C   0  0  0  0  0  0  0  0  0  0  0  0
    6.2382    6.1647  -13.4850 C   0  0  0  0  0  0  0  0  0  0  0  0
    0.2298    5.8443  -13.3546 C   0  0  0  0  0  0  0  0  0  0  0  0
   -0.7611    6.3024  -14.4079 C   0  0  0  0  0  0  0  0  0  0  0  0
   -1.6009    7.4656  -13.9500 C   0  0  0  0  0  0  0  0  0  0  0  0
   -2.9468    7.2914  -14.3934 N   0  0  0  0  0  0  0  0  0  0  0  0
   -3.6537    8.5402  -14.5840 C   0  0  0  0  0  0  0  0  0  0  0  0
   -3.1039    6.5146  -15.5856 C   0  0  0  0  0  0  0  0  0  0  0  0
   -3.4679    6.7795  -13.6202 H   0  0  0  0  0  0  0  0  0  0  0  0
 19 20  1  0  0  0
 20 21  2  0  0  0
 20 25  1  0  0  0
 21 22  1  0  0  0
 22 23  2  0  0  0
 22  1  1  0  0  0
 23 24  1  0  0  0
 24 25  2  0  0  0
  1  2  1  0  0  0
  1  7  1  0  0  0
  2  3  1  0  0  0
  2 26  1  0  0  0
  3  4  2  0  0  0
  3  5  1  0  0  0
  5  6  2  0  0  0
  5  7  1  0  0  0
  7  8  2  0  0  0
  8  9  1  0  0  0
  8 10  1  0  0  0
 10 11  1  0  0  0
 10 14  2  0  0  0
 11 12  1  0  0  0
 12 13  2  0  0  0
 12 18  1  0  0  0
 13 14  1  0  0  0
 13 15  1  0  0  0
 15 16  2  0  0  0
 16 17  1  0  0  0
 17 18  2  0  0  0
 26 27  1  0  0  0
 27 28  1  0  0  0
 28 29  1  0  0  0
 29 30  1  0  0  0
 29 31  1  0  0  0
 29 32  1  0  0  0
M  CHG 1   9  -1
M  CHG 1  29   1
M  END
> <minimizedAffinity>
-8.26231

$$$$
1314


 32 35  0  0  0  0  0  0  0  0999 V2000
    2.1798    5.3519  -12.5653 C   0  0  0  0  0  0  0  0  0  0  0  0
    2.5599    4.1460  -12.2713 N   0  0  0  0  0  0  0  0  0  0  0  0
    3.8345    4.0444  -12.4300 N   0  0  0  0  0  0  0  0  0  0  0  0
    4.4059    5.2346  -12.8599 N   0  0  0  0  0  0  0  0  0  0  0  0
    3.4002    6.0764  -12.9513 C   0  0  0  0  0  0  0  0  0  0  0  0
    5.7750    5.2253  -13.1220 C   0  0  0  0  0  0  0  0  0  0  0  0
    6.4503    6.3813  -13.5131 N   0  0  0  0  0  0  0  0  0  0  0  0
    7.6521    6.0679  -13.7945 O   0  0  0  0  0  0  0  0  0  0  0  0
    7.8678    4.8240  -13.6316 N   0  0  0  0  0  0  0  0  0  0  0  0
    6.6980    4.2669  -13.2085 C   0  0  0  0  0  0  0  0  0  0  0  0
    6.6158    2.8592  -12.9552 N   0  0  0  0  0  0  0  0  0  0  0  0
    7.0317    2.5156  -12.0780 H   0  0  0  0  0  0  0  0  0  0  0  0
    6.2197    2.2264  -13.6471 H   0  0  0  0  0  0  0  0  0  0  0  0
    0.1771    5.7401  -14.1467 N   0  0  0  0  0  0  0  0  0  0  0  0
    0.9039    5.8974  -12.7917 C   0  0  0  0  0  0  0  0  0  0  0  0
    0.2560    6.5446  -11.9768 O   0  0  0  0  0  0  0  0  0  0  0  0
    0.6807    5.1793  -14.8286 H   0  0  0  0  0  0  0  0  0  0  0  0
   -2.1139    6.6762  -13.9210 C   0  0  0  0  0  0  0  0  0  0  0  0
   -0.8951    6.4463  -14.0076 N   0  0  0  0  0  0  0  0  0  0  0  0
   -4.8078    7.5798  -14.9649 Br  0  0  0  0  0  0  0  0  0  0  0  0
   -3.4590    8.7281  -14.3126 C   0  0  0  0  0  0  0  0  0  0  0  0
   -2.3309    8.1984  -13.7338 C   0  0  0  0  0  0  0  0  0  0  0  0
   -1.3327    8.9609  -13.2861 C   0  0  0  0  0  0  0  0  0  0  0  0
   -1.4046   10.3838  -13.4030 C   0  0  0  0  0  0  0  0  0  0  0  0
   -2.4919   10.9341  -13.9935 C   0  0  0  0  0  0  0  0  0  0  0  0
   -3.5297   10.1178  -14.4536 C   0  0  0  0  0  0  0  0  0  0  0  0
    3.2255    7.5107  -13.1615 C   0  0  0  0  0  0  0  0  0  0  0  0
    3.3548    8.2654  -14.2580 N   0  0  0  0  0  0  0  0  0  0  0  0
    2.0537    8.7623  -14.6827 C   0  0  0  0  0  0  0  0  0  0  0  0
    2.2183   10.2236  -14.9753 C   0  0  0  0  0  0  0  0  0  0  0  0
    3.6701   10.5509  -14.6412 C   0  0  0  0  0  0  0  0  0  0  0  0
    4.3037    9.1393  -14.7086 C   0  0  0  0  0  0  0  0  0  0  0  0
 20 21  1  0  0  0
 21 22  2  0  0  0
 21 26  1  0  0  0
 22 23  1  0  0  0
 22 18  1  0  0  0
 23 24  2  0  0  0
 24 25  1  0  0  0
 25 26  2  0  0  0
 18 19  2  0  0  0
 19 14  1  0  0  0
 14 15  1  0  0  0
 15 16  2  0  0  0
 15  1  1  0  0  0
  1  2  1  0  0  0
  1  5  2  0  0  0
  2  3  2  0  0  0
  3  4  1  0  0  0
  4  5  1  0  0  0
  4  6  1  0  0  0
  5 27  1  0  0  0
 27 28  1  0  0  0
 28 29  1  0  0  0
 28 32  1  0  0  0
 29 30  1  0  0  0
 30 31  1  0  0  0
 31 32  1  0  0  0
  6  7  2  0  0  0
  6 10  1  0  0  0
  7  8  1  0  0  0
  8  9  1  0  0  0
  9 10  2  0  0  0
 10 11  1  0  0  0
 14 17  1  0  0  0
 11 12  1  0  0  0
 11 13  1  0  0  0
M  END
> <minimizedAffinity>
-7.94766

$$$$
1315


 30 33  0  0  0  0  0  0  0  0999 V2000
    1.9328    7.2307  -12.5474 N   0  0  0  0  0  0  0  0  0  0  0  0
    2.5916    8.1736  -13.2966 C   0  0  0  0  0  0  0  0  0  0  0  0
    3.7515    7.5911  -13.7183 C   0  0  0  0  0  0  0  0  0  0  0  0
    4.6408    8.3258  -14.5079 C   0  0  0  0  0  0  0  0  0  0  0  0
    4.3322    9.6257  -14.8479 C   0  0  0  0  0  0  0  0  0  0  0  0
    3.1615   10.2164  -14.4248 C   0  0  0  0  0  0  0  0  0  0  0  0
    2.2800    9.4726  -13.6363 C   0  0  0  0  0  0  0  0  0  0  0  0
    3.7800    6.3298  -13.2342 N   0  0  0  0  0  0  0  0  0  0  0  0
    2.6778    6.0934  -12.5196 C   0  0  0  0  0  0  0  0  0  0  0  0
    2.3395    4.9422  -11.9833 N   0  0  0  0  0  0  0  0  0  0  0  0
    2.9414    4.1234  -11.9913 H   0  0  0  0  0  0  0  0  0  0  0  0
    1.4052    4.8563  -11.5595 H   0  0  0  0  0  0  0  0  0  0  0  0
    0.6243    7.4280  -11.9618 C   0  0  0  0  0  0  0  0  0  0  0  0
   -0.4873    7.1583  -12.8824 C   0  0  0  0  0  0  0  0  0  0  0  0
   -0.5802    5.9217  -13.3162 O   0  0  0  0  0  0  0  0  0  0  0  0
   -5.1761    7.9115  -15.4072 Br  0  0  0  0  0  0  0  0  0  0  0  0
   -3.5799    8.5219  -14.4981 C   0  0  0  0  0  0  0  0  0  0  0  0
   -2.6445    7.6345  -14.0490 C   0  0  0  0  0  0  0  0  0  0  0  0
   -1.5108    8.0298  -13.3988 C   0  0  0  0  0  0  0  0  0  0  0  0
   -1.3551    9.4123  -13.2132 C   0  0  0  0  0  0  0  0  0  0  0  0
   -2.2694   10.3311  -13.6490 C   0  0  0  0  0  0  0  0  0  0  0  0
   -3.3909    9.8705  -14.2980 C   0  0  0  0  0  0  0  0  0  0  0  0
    4.8698    5.4185  -13.5375 C   0  0  0  0  0  0  0  0  0  0  0  0
    6.1727    5.7457  -12.9330 C   0  0  0  0  0  0  0  0  0  0  0  0
    7.3487    5.6640  -13.7224 N   0  0  0  0  0  0  0  0  0  0  0  0
    8.3451    4.7703  -13.0783 C   0  0  0  0  0  0  0  0  0  0  0  0
    8.6706    5.2022  -11.6862 C   0  0  0  0  0  0  0  0  0  0  0  0
    9.3525    6.4161  -11.7855 O   0  0  0  0  0  0  0  0  0  0  0  0
    8.6087    7.3674  -12.4379 C   0  0  0  0  0  0  0  0  0  0  0  0
    8.0707    6.9461  -13.7787 C   0  0  0  0  0  0  0  0  0  0  0  0
 16 17  1  0  0  0
 17 18  2  0  0  0
 17 22  1  0  0  0
 18 19  1  0  0  0
 19 20  2  0  0  0
 19 14  1  0  0  0
 20 21  1  0  0  0
 21 22  2  0  0  0
 14 15  2  0  0  0
 14 13  1  0  0  0
 13  1  1  0  0  0
  1  2  1  0  0  0
  1  9  1  0  0  0
  2  3  1  0  0  0
  2  7  2  0  0  0
  3  4  2  0  0  0
  3  8  1  0  0  0
  4  5  1  0  0  0
  5  6  2  0  0  0
  6  7  1  0  0  0
  8  9  1  0  0  0
  8 23  1  0  0  0
  9 10  2  0  0  0
 23 24  1  0  0  0
 24 25  1  0  0  0
 25 26  1  0  0  0
 25 30  1  0  0  0
 26 27  1  0  0  0
 27 28  1  0  0  0
 28 29  1  0  0  0
 29 30  1  0  0  0
 10 11  1  0  0  0
 10 12  1  0  0  0
M  END
> <minimizedAffinity>
-8.51039

$$$$
1325


 31 34  0  0  0  0  0  0  0  0999 V2000
    0.2720    7.8131  -13.8699 C   0  0  0  0  0  0  0  0  0  0  0  0
    0.2762    6.6666  -13.0099 N   0  0  0  0  0  0  0  0  0  0  0  0
   -0.9676    5.9833  -13.3476 C   0  0  0  0  0  0  0  0  0  0  0  0
   -1.1980    4.7616  -13.2127 O   0  0  0  0  0  0  0  0  0  0  0  0
   -1.8863    6.9799  -13.8656 C   0  0  0  0  0  0  0  0  0  0  0  0
   -3.0742    6.8316  -14.2808 O   0  0  0  0  0  0  0  0  0  0  0  0
   -1.1529    8.2490  -13.8209 C   0  0  0  0  0  0  0  0  0  0  0  0
   -1.6828    9.4406  -13.7913 C   0  0  0  0  0  0  0  0  0  0  0  0
   -0.8282   10.5497  -13.8082 O   0  0  0  0  0  0  0  0  0  0  0  0
   -3.1448    9.6383  -13.7339 C   0  0  0  0  0  0  0  0  0  0  0  0
   -3.9640    9.6290  -14.7795 O   0  0  0  0  0  0  0  0  0  0  0  0
   -5.2044    9.8336  -14.4190 C   0  0  0  0  0  0  0  0  0  0  0  0
   -5.2694    9.9983  -13.0513 C   0  0  0  0  0  0  0  0  0  0  0  0
   -3.9515    9.8698  -12.6461 C   0  0  0  0  0  0  0  0  0  0  0  0
   -6.4753   10.2280  -12.4279 C   0  0  0  0  0  0  0  0  0  0  0  0
   -7.6680   10.3082  -13.1127 C   0  0  0  0  0  0  0  0  0  0  0  0
   -7.6082   10.1452  -14.4849 C   0  0  0  0  0  0  0  0  0  0  0  0
   -6.4097    9.9143  -15.1236 C   0  0  0  0  0  0  0  0  0  0  0  0
    4.4201   12.3717  -13.2902 Br  0  0  0  0  0  0  0  0  0  0  0  0
    3.1393   10.9565  -13.4549 C   0  0  0  0  0  0  0  0  0  0  0  0
    2.7590   10.4647  -14.6788 C   0  0  0  0  0  0  0  0  0  0  0  0
    1.8406    9.4503  -14.7694 C   0  0  0  0  0  0  0  0  0  0  0  0
    1.2387    8.8580  -13.6442 C   0  0  0  0  0  0  0  0  0  0  0  0
    1.6296    9.3604  -12.4420 C   0  0  0  0  0  0  0  0  0  0  0  0
    2.5552   10.3821  -12.3498 C   0  0  0  0  0  0  0  0  0  0  0  0
    1.2310    6.1440  -12.0580 C   0  0  0  0  0  0  0  0  0  0  0  0
    2.0955    5.0316  -12.4792 C   0  0  0  0  0  0  0  0  0  0  0  0
    3.5091    5.2895  -12.5669 N   0  0  0  0  0  0  0  0  0  0  0  0
    4.2569    4.1337  -12.9737 C   0  0  0  0  0  0  0  0  0  0  0  0
    3.8619    6.5051  -13.2432 C   0  0  0  0  0  0  0  0  0  0  0  0
    3.8007    5.4458  -11.5412 H   0  0  0  0  0  0  0  0  0  0  0  0
 19 20  1  0  0  0
 20 21  2  0  0  0
 20 25  1  0  0  0
 21 22  1  0  0  0
 22 23  2  0  0  0
 23 24  1  0  0  0
 23  1  1  0  0  0
 24 25  2  0  0  0
  1  2  1  0  0  0
  1  7  1  0  0  0
  2  3  1  0  0  0
  2 26  1  0  0  0
  3  4  2  0  0  0
  3  5  1  0  0  0
  5  6  2  0  0  0
  5  7  1  0  0  0
  7  8  2  0  0  0
  8  9  1  0  0  0
  8 10  1  0  0  0
 10 11  1  0  0  0
 10 14  2  0  0  0
 11 12  1  0  0  0
 12 13  2  0  0  0
 12 18  1  0  0  0
 13 14  1  0  0  0
 13 15  1  0  0  0
 15 16  2  0  0  0
 16 17  1  0  0  0
 17 18  2  0  0  0
 26 27  1  0  0  0
 27 28  1  0  0  0
 28 29  1  0  0  0
 28 30  1  0  0  0
 28 31  1  0  0  0
M  CHG 1   9  -1
M  CHG 1  28   1
M  END
> <minimizedAffinity>
-6.86883

$$$$
1329


 28 31  0  0  0  0  0  0  0  0999 V2000
   -1.7585   11.9065  -13.5086 C   0  0  0  0  0  0  0  0  0  0  0  0
   -2.0087   10.6185  -13.7506 C   0  0  0  0  0  0  0  0  0  0  0  0
   -1.0954    9.5662  -13.7325 O   0  0  0  0  0  0  0  0  0  0  0  0
   -1.7159    8.3821  -14.0222 C   0  0  0  0  0  0  0  0  0  0  0  0
   -3.0720    8.5918  -14.2480 C   0  0  0  0  0  0  0  0  0  0  0  0
   -3.8635    7.4952  -14.5507 C   0  0  0  0  0  0  0  0  0  0  0  0
   -3.3081    6.2379  -14.6208 C   0  0  0  0  0  0  0  0  0  0  0  0
   -1.9413    6.0659  -14.3882 C   0  0  0  0  0  0  0  0  0  0  0  0
   -1.1357    7.1325  -14.0886 C   0  0  0  0  0  0  0  0  0  0  0  0
   -1.4788    4.7624  -14.4828 O   0  0  0  0  0  0  0  0  0  0  0  0
   -3.3069   10.0363  -14.0818 C   0  0  0  0  0  0  0  0  0  0  0  0
   -4.4225   10.6021  -14.2161 O   0  0  0  0  0  0  0  0  0  0  0  0
    1.3837   15.7927  -11.6476 Br  0  0  0  0  0  0  0  0  0  0  0  0
    1.0841   14.0457  -12.3607 C   0  0  0  0  0  0  0  0  0  0  0  0
   -0.2065   13.6173  -12.6595 C   0  0  0  0  0  0  0  0  0  0  0  0
   -0.4217   12.3605  -13.1800 C   0  0  0  0  0  0  0  0  0  0  0  0
    0.6356   11.5148  -13.4108 C   0  0  0  0  0  0  0  0  0  0  0  0
    1.9037   11.9545  -13.1114 C   0  0  0  0  0  0  0  0  0  0  0  0
    2.1602   13.2019  -12.5886 C   0  0  0  0  0  0  0  0  0  0  0  0
    0.3028    6.9104  -13.9325 C   0  0  0  0  0  0  0  0  0  0  0  0
    1.1152    8.0689  -13.8454 N   0  0  0  0  0  0  0  0  0  0  0  0
    1.6292    8.3660  -15.1724 C   0  0  0  0  0  0  0  0  0  0  0  0
    3.0365    8.8530  -15.2131 C   0  0  0  0  0  0  0  0  0  0  0  0
    3.9720    8.0769  -14.4777 N   0  0  0  0  0  0  0  0  0  0  0  0
    3.3289    7.1769  -13.5780 C   0  0  0  0  0  0  0  0  0  0  0  0
    2.1890    7.8621  -12.9030 C   0  0  0  0  0  0  0  0  0  0  0  0
    4.9118    8.9481  -13.8040 C   0  0  0  0  0  0  0  0  0  0  0  0
    0.5882    8.9159  -13.4741 H   0  0  0  0  0  0  0  0  0  0  0  0
 13 14  1  0  0  0
 14 15  2  0  0  0
 14 19  1  0  0  0
 15 16  1  0  0  0
 16 17  2  0  0  0
 16  1  1  0  0  0
 17 18  1  0  0  0
 18 19  2  0  0  0
  1  2  2  0  0  0
  2  3  1  0  0  0
  2 11  1  0  0  0
  3  4  1  0  0  0
  4  5  2  0  0  0
  4  9  1  0  0  0
  5  6  1  0  0  0
  5 11  1  0  0  0
  6  7  2  0  0  0
  7  8  1  0  0  0
  8  9  2  0  0  0
  8 10  1  0  0  0
  9 20  1  0  0  0
 20 21  1  0  0  0
 21 22  1  0  0  0
 21 26  1  0  0  0
 22 23  1  0  0  0
 23 24  1  0  0  0
 24 25  1  0  0  0
 24 27  1  0  0  0
 25 26  1  0  0  0
 11 12  2  0  0  0
 21 28  1  0  0  0
M  CHG 1  10  -1
M  CHG 1  21   1
M  END
> <minimizedAffinity>
-8.95023

$$$$
1337


 32 35  0  0  0  0  0  0  0  0999 V2000
   -2.0562    9.4992  -13.1209 N   0  0  0  0  0  0  0  0  0  0  0  0
   -1.1307   10.5660  -13.2365 C   0  0  0  0  0  0  0  0  0  0  0  0
   -1.4969   11.7067  -12.8444 O   0  0  0  0  0  0  0  0  0  0  0  0
   -1.7588    8.5543  -13.4440 H   0  0  0  0  0  0  0  0  0  0  0  0
    0.2205   10.3186  -13.8058 C   0  0  0  0  0  0  0  0  0  0  0  0
    0.3283    9.0152  -14.1164 O   0  0  0  0  0  0  0  0  0  0  0  0
    1.5628    8.4463  -14.1207 C   0  0  0  0  0  0  0  0  0  0  0  0
    1.3910    7.0544  -14.1172 O   0  0  0  0  0  0  0  0  0  0  0  0
    1.3219    6.6499  -12.8066 C   0  0  0  0  0  0  0  0  0  0  0  0
    1.6561    7.7155  -11.9948 O   0  0  0  0  0  0  0  0  0  0  0  0
    2.3264    8.6379  -12.8315 C   0  0  0  0  0  0  0  0  0  0  0  0
    2.2423   10.0246  -12.3213 C   0  0  0  0  0  0  0  0  0  0  0  0
    3.4806   10.6954  -12.4446 O   0  0  0  0  0  0  0  0  0  0  0  0
    3.2184   11.9642  -12.8953 C   0  0  0  0  0  0  0  0  0  0  0  0
    2.0867   11.8292  -13.6566 O   0  0  0  0  0  0  0  0  0  0  0  0
    1.2736   10.9253  -12.9567 C   0  0  0  0  0  0  0  0  0  0  0  0
    4.4202   12.3891  -13.7481 C   0  0  0  0  0  0  0  0  0  0  0  0
    3.1044   12.9831  -11.7919 C   0  0  0  0  0  0  0  0  0  0  0  0
    2.3245    5.5366  -12.4999 C   0  0  0  0  0  0  0  0  0  0  0  0
   -0.0474    6.1032  -12.4371 C   0  0  0  0  0  0  0  0  0  0  0  0
   -3.3767    9.6488  -12.5857 C   0  0  0  0  0  0  0  0  0  0  0  0
   -5.7319   10.1125  -13.4089 N   0  0  0  0  0  0  0  0  0  0  0  0
   -4.3625    9.9188  -13.6640 C   0  0  0  0  0  0  0  0  0  0  0  0
   -3.9137    9.9682  -14.8265 O   0  0  0  0  0  0  0  0  0  0  0  0
   -6.0129   10.0495  -12.3764 H   0  0  0  0  0  0  0  0  0  0  0  0
  -10.3300   11.5415  -17.2034 Br  0  0  0  0  0  0  0  0  0  0  0  0
   -8.8820   11.0400  -16.0537 C   0  0  0  0  0  0  0  0  0  0  0  0
   -8.5699   11.8552  -14.9886 C   0  0  0  0  0  0  0  0  0  0  0  0
   -7.5330   11.5123  -14.1521 C   0  0  0  0  0  0  0  0  0  0  0  0
   -6.7593   10.3711  -14.3102 C   0  0  0  0  0  0  0  0  0  0  0  0
   -7.0963    9.5772  -15.3831 C   0  0  0  0  0  0  0  0  0  0  0  0
   -8.1506    9.9117  -16.2468 C   0  0  0  0  0  0  0  0  0  0  0  0
 26 27  1  0  0  0
 27 28  2  0  0  0
 27 32  1  0  0  0
 28 29  1  0  0  0
 29 30  2  0  0  0
 30 31  1  0  0  0
 30 22  1  0  0  0
 31 32  2  0  0  0
 22 23  1  0  0  0
 23 24  2  0  0  0
 23 21  1  0  0  0
 21  1  1  0  0  0
  1  2  1  0  0  0
  2  3  2  0  0  0
  2  5  1  0  0  0
  5  6  1  0  0  0
  5 16  1  0  0  0
  6  7  1  0  0  0
  7  8  1  0  0  0
  7 11  1  0  0  0
  8  9  1  0  0  0
  9 10  1  0  0  0
  9 19  1  0  0  0
  9 20  1  0  0  0
 10 11  1  0  0  0
 11 12  1  0  0  0
 12 13  1  0  0  0
 12 16  1  0  0  0
 13 14  1  0  0  0
 14 15  1  0  0  0
 14 17  1  0  0  0
 14 18  1  0  0  0
 15 16  1  0  0  0
 22 25  1  0  0  0
  1  4  1  0  0  0
M  END
> <minimizedAffinity>
-9.05127

$$$$
1341


 28 31  0  0  0  0  0  0  0  0999 V2000
   -1.7911    9.4709  -13.8486 C   0  0  0  0  0  0  0  0  0  0  0  0
   -1.4378    8.1673  -13.9367 N   0  0  0  0  0  0  0  0  0  0  0  0
   -2.5344    7.4443  -14.2443 C   0  0  0  0  0  0  0  0  0  0  0  0
   -3.6104    8.2519  -14.3605 N   0  0  0  0  0  0  0  0  0  0  0  0
   -3.1423    9.4970  -14.1156 C   0  0  0  0  0  0  0  0  0  0  0  0
   -2.1745    6.0072  -14.3491 C   0  0  0  0  0  0  0  0  0  0  0  0
   -0.7346    5.9110  -13.9791 C   0  0  0  0  0  0  0  0  0  0  0  0
   -0.2788    7.3123  -13.8072 C   0  0  0  0  0  0  0  0  0  0  0  0
    1.5222   14.3694  -12.5660 Cl  0  0  0  0  0  0  0  0  0  0  0  0
    0.5637   12.9428  -12.9397 C   0  0  0  0  0  0  0  0  0  0  0  0
   -0.8123   12.9619  -12.8687 C   0  0  0  0  0  0  0  0  0  0  0  0
   -1.5610   11.8365  -13.1627 C   0  0  0  0  0  0  0  0  0  0  0  0
   -0.9753   10.6445  -13.5413 C   0  0  0  0  0  0  0  0  0  0  0  0
    0.4016   10.6228  -13.6148 C   0  0  0  0  0  0  0  0  0  0  0  0
    1.1629   11.7595  -13.3174 C   0  0  0  0  0  0  0  0  0  0  0  0
   -4.9772    7.8921  -14.6783 C   0  0  0  0  0  0  0  0  0  0  0  0
   -5.8680    9.0734  -14.4964 C   0  0  0  0  0  0  0  0  0  0  0  0
   -5.6723    9.7984  -13.5192 O   0  0  0  0  0  0  0  0  0  0  0  0
   -6.8709    9.2872  -15.4438 N   0  0  0  0  0  0  0  0  0  0  0  0
   -6.9964    8.6205  -16.2771 H   0  0  0  0  0  0  0  0  0  0  0  0
   -7.7923   10.3665  -15.4172 C   0  0  0  0  0  0  0  0  0  0  0  0
   -8.5760   10.6130  -16.5519 C   0  0  0  0  0  0  0  0  0  0  0  0
   -9.4539   11.6488  -16.5677 C   0  0  0  0  0  0  0  0  0  0  0  0
   -9.6007   12.4841  -15.4724 C   0  0  0  0  0  0  0  0  0  0  0  0
   -8.8316   12.2364  -14.3712 C   0  0  0  0  0  0  0  0  0  0  0  0
   -7.9174   11.1764  -14.3246 C   0  0  0  0  0  0  0  0  0  0  0  0
  -10.5677   13.6100  -15.5126 C   0  0  0  0  0  0  0  0  0  0  0  0
  -11.2304   13.6187  -16.8937 C   0  0  0  0  0  0  0  0  0  0  0  0
  9 10  1  0  0  0
 10 11  2  0  0  0
 10 15  1  0  0  0
 11 12  1  0  0  0
 12 13  2  0  0  0
 13 14  1  0  0  0
 13  1  1  0  0  0
 14 15  2  0  0  0
  1  2  1  0  0  0
  1  5  2  0  0  0
  2  3  1  0  0  0
  2  8  1  0  0  0
  3  4  2  0  0  0
  3  6  1  0  0  0
  4  5  1  0  0  0
  4 16  1  0  0  0
 16 17  1  0  0  0
 17 18  2  0  0  0
 17 19  1  0  0  0
 19 21  1  0  0  0
 21 22  2  0  0  0
 21 26  1  0  0  0
 22 23  1  0  0  0
 23 24  2  0  0  0
 24 25  1  0  0  0
 24 27  1  0  0  0
 25 26  2  0  0  0
 27 28  1  0  0  0
  6  7  1  0  0  0
  7  8  1  0  0  0
 19 20  1  0  0  0
M  END
> <minimizedAffinity>
-11.35406

$$$$
1343


 41 44  0  0  0  0  0  0  0  0999 V2000
   -0.4080   11.3091  -13.7455 C   0  0  0  0  0  0  0  0  0  0  0  0
    0.0346   10.0259  -13.7051 N   0  0  0  0  0  0  0  0  0  0  0  0
   -1.0280    9.1946  -13.8601 C   0  0  0  0  0  0  0  0  0  0  0  0
   -1.1739    7.8652  -13.8999 N   0  0  0  0  0  0  0  0  0  0  0  0
   -2.3739    7.2808  -14.0704 C   0  0  0  0  0  0  0  0  0  0  0  0
   -3.4675    8.0622  -14.2054 N   0  0  0  0  0  0  0  0  0  0  0  0
   -3.3983    9.3884  -14.1758 C   0  0  0  0  0  0  0  0  0  0  0  0
   -2.1638    9.9821  -14.0015 C   0  0  0  0  0  0  0  0  0  0  0  0
   -1.7439   11.2333  -13.9262 N   0  0  0  0  0  0  0  0  0  0  0  0
   -4.5115   10.2239  -14.3135 O   0  0  0  0  0  0  0  0  0  0  0  0
   -2.5118    5.8528  -14.1109 N   0  0  0  0  0  0  0  0  0  0  0  0
   -4.7657   10.4738  -15.2618 H   0  0  0  0  0  0  0  0  0  0  0  0
   -3.0956    5.3087  -13.4671 H   0  0  0  0  0  0  0  0  0  0  0  0
   -1.9732    5.3574  -14.8524 H   0  0  0  0  0  0  0  0  0  0  0  0
    1.3952    9.6218  -13.5283 C   0  0  0  0  0  0  0  0  0  0  0  0
    2.0516   10.2834  -12.4999 O   0  0  0  0  0  0  0  0  0  0  0  0
    3.3962   10.2157  -12.7273 C   0  0  0  0  0  0  0  0  0  0  0  0
    3.6519    9.7387  -14.1158 C   0  0  0  0  0  0  0  0  0  0  0  0
    2.2633    9.8458  -14.7492 C   0  0  0  0  0  0  0  0  0  0  0  0
    2.0819    8.8483  -15.7064 O   0  0  0  0  0  0  0  0  0  0  0  0
    3.9518    8.3610  -14.1121 O   0  0  0  0  0  0  0  0  0  0  0  0
    1.6883    9.2367  -16.5302 H   0  0  0  0  0  0  0  0  0  0  0  0
    4.4943    8.1093  -14.8901 H   0  0  0  0  0  0  0  0  0  0  0  0
    3.9740   11.6271  -12.6059 C   0  0  0  0  0  0  0  0  0  0  0  0
    2.9443   12.5459  -12.3741 O   0  0  0  0  0  0  0  0  0  0  0  0
    2.0544   12.1362  -12.5266 H   0  0  0  0  0  0  0  0  0  0  0  0
    0.3918   12.4784  -13.6215 N   0  0  0  0  0  0  0  0  0  0  0  0
    1.3668   12.4642  -13.9589 H   0  0  0  0  0  0  0  0  0  0  0  0
   -0.1714   14.7714  -13.5544 C   0  0  0  0  0  0  0  0  0  0  0  0
   -0.2016   13.6134  -13.0356 N   0  0  0  0  0  0  0  0  0  0  0  0
    1.4324   15.9114  -11.1981 Br  0  0  0  0  0  0  0  0  0  0  0  0
   -0.1894   16.6087  -11.9038 C   0  0  0  0  0  0  0  0  0  0  0  0
   -0.7759   15.9643  -12.9717 C   0  0  0  0  0  0  0  0  0  0  0  0
   -1.9502   16.5048  -13.4500 C   0  0  0  0  0  0  0  0  0  0  0  0
   -2.5254   17.6318  -12.9016 C   0  0  0  0  0  0  0  0  0  0  0  0
   -1.9382   18.2769  -11.8335 C   0  0  0  0  0  0  0  0  0  0  0  0
   -0.7628   17.7517  -11.3404 C   0  0  0  0  0  0  0  0  0  0  0  0
   -3.7110   18.1713  -13.3909 O   0  0  0  0  0  0  0  0  0  0  0  0
   -4.4729   17.6110  -14.4128 C   0  0  0  0  0  0  0  0  0  0  0  0
   -2.5250   19.4173  -11.2832 O   0  0  0  0  0  0  0  0  0  0  0  0
   -2.3332   19.8166   -9.9596 C   0  0  0  0  0  0  0  0  0  0  0  0
 31 32  1  0  0  0
 32 33  2  0  0  0
 32 37  1  0  0  0
 33 34  1  0  0  0
 33 29  1  0  0  0
 34 35  2  0  0  0
 35 36  1  0  0  0
 35 38  1  0  0  0
 36 37  2  0  0  0
 36 40  1  0  0  0
 40 41  1  0  0  0
 38 39  1  0  0  0
 29 30  2  0  0  0
 30 27  1  0  0  0
 27  1  1  0  0  0
  1  2  1  0  0  0
  1  9  2  0  0  0
  2  3  1  0  0  0
  2 15  1  0  0  0
  3  4  2  0  0  0
  3  8  1  0  0  0
  4  5  1  0  0  0
  5  6  2  0  0  0
  5 11  1  0  0  0
  6  7  1  0  0  0
  7  8  2  0  0  0
  7 10  1  0  0  0
  8  9  1  0  0  0
 15 16  1  0  0  0
 15 19  1  0  0  0
 16 17  1  0  0  0
 17 18  1  0  0  0
 17 24  1  0  0  0
 18 19  1  0  0  0
 18 21  1  0  0  0
 19 20  1  0  0  0
 24 25  1  0  0  0
 27 28  1  0  0  0
 10 12  1  0  0  0
 11 13  1  0  0  0
 11 14  1  0  0  0
 20 22  1  0  0  0
 21 23  1  0  0  0
 25 26  1  0  0  0
M  END
> <minimizedAffinity>
-8.31351

$$$$
1355


 27 30  0  0  0  0  0  0  0  0999 V2000
   -1.1375   15.7144  -13.1888 N   0  0  0  0  0  0  0  0  0  0  0  0
    0.0737   15.0064  -13.0968 C   0  0  0  0  0  0  0  0  0  0  0  0
    1.1377   15.5582  -13.4540 O   0  0  0  0  0  0  0  0  0  0  0  0
   -2.0186   15.2509  -12.8903 H   0  0  0  0  0  0  0  0  0  0  0  0
    0.0933   13.6273  -12.5861 C   0  0  0  0  0  0  0  0  0  0  0  0
   -0.6961   12.6796  -13.4699 C   0  0  0  0  0  0  0  0  0  0  0  0
   -0.5112   11.2604  -13.0485 C   0  0  0  0  0  0  0  0  0  0  0  0
    0.6034   10.5380  -13.7320 C   0  0  0  0  0  0  0  0  0  0  0  0
    1.7248   11.4791  -14.1612 C   0  0  0  0  0  0  0  0  0  0  0  0
    2.1507   12.2051  -12.9870 N   0  0  0  0  0  0  0  0  0  0  0  0
    3.3163   12.0438  -12.4200 N   0  0  0  0  0  0  0  0  0  0  0  0
    3.3937   12.8423  -11.3845 N   0  0  0  0  0  0  0  0  0  0  0  0
    2.2575   13.5080  -11.3105 N   0  0  0  0  0  0  0  0  0  0  0  0
    1.4483   13.1254  -12.3136 C   0  0  0  0  0  0  0  0  0  0  0  0
   -1.1804   17.0755  -13.6909 C   0  0  0  0  0  0  0  0  0  0  0  0
   -3.9194   19.0045  -12.2022 C   0  0  0  0  0  0  0  0  0  0  0  0
   -4.5319   18.3447  -13.1989 N   0  0  0  0  0  0  0  0  0  0  0  0
   -3.6530   17.5977  -13.8332 O   0  0  0  0  0  0  0  0  0  0  0  0
   -2.4718   17.7400  -13.2875 C   0  0  0  0  0  0  0  0  0  0  0  0
   -2.6340   18.6153  -12.2710 N   0  0  0  0  0  0  0  0  0  0  0  0
   -2.2047   19.8428   -9.9005 Cl  0  0  0  0  0  0  0  0  0  0  0  0
   -3.8393   20.4060  -10.1497 C   0  0  0  0  0  0  0  0  0  0  0  0
   -4.5182   19.9380  -11.2544 C   0  0  0  0  0  0  0  0  0  0  0  0
   -5.8015   20.4007  -11.4218 C   0  0  0  0  0  0  0  0  0  0  0  0
   -6.3952   21.2817  -10.5467 C   0  0  0  0  0  0  0  0  0  0  0  0
   -5.6891   21.7445   -9.4296 C   0  0  0  0  0  0  0  0  0  0  0  0
   -4.4059   21.2962   -9.2429 C   0  0  0  0  0  0  0  0  0  0  0  0
 21 22  1  0  0  0
 22 23  2  0  0  0
 22 27  1  0  0  0
 23 24  1  0  0  0
 23 16  1  0  0  0
 24 25  2  0  0  0
 25 26  1  0  0  0
 26 27  2  0  0  0
 16 17  2  0  0  0
 16 20  1  0  0  0
 17 18  1  0  0  0
 18 19  1  0  0  0
 19 20  2  0  0  0
 19 15  1  0  0  0
 15  1  1  0  0  0
  1  2  1  0  0  0
  2  3  2  0  0  0
  2  5  1  0  0  0
  5  6  1  0  0  0
  5 14  1  0  0  0
  6  7  1  0  0  0
  7  8  1  0  0  0
  8  9  1  0  0  0
  9 10  1  0  0  0
 10 11  1  0  0  0
 10 14  1  0  0  0
 11 12  2  0  0  0
 12 13  1  0  0  0
 13 14  2  0  0  0
  1  4  1  0  0  0
M  END
> <minimizedAffinity>
-10.30443

$$$$
1357


 24 27  0  0  0  0  0  0  0  0999 V2000
    0.7794    8.2940  -14.3221 C   0  0  0  0  0  0  0  0  0  0  0  0
    1.8873    9.1426  -14.3530 C   0  0  0  0  0  0  0  0  0  0  0  0
    2.7694    9.8323  -13.3723 C   0  0  0  0  0  0  0  0  0  0  0  0
    3.8068    8.7704  -13.3874 N   0  0  0  0  0  0  0  0  0  0  0  0
    3.2009    7.6253  -13.4275 C   0  0  0  0  0  0  0  0  0  0  0  0
    1.7961    7.8887  -13.4300 C   0  0  0  0  0  0  0  0  0  0  0  0
    3.8443    6.3317  -13.4629 N   0  0  0  0  0  0  0  0  0  0  0  0
    3.2840   10.9810  -13.9835 O   0  0  0  0  0  0  0  0  0  0  0  0
    3.0668   12.0330  -13.1151 C   0  0  0  0  0  0  0  0  0  0  0  0
    2.9878   11.3312  -11.7698 C   0  0  0  0  0  0  0  0  0  0  0  0
    2.2951   10.1605  -12.1666 O   0  0  0  0  0  0  0  0  0  0  0  0
    4.7232    6.1554  -12.9399 H   0  0  0  0  0  0  0  0  0  0  0  0
    3.4379    5.5530  -14.0138 H   0  0  0  0  0  0  0  0  0  0  0  0
   -1.6153    6.2213  -13.9505 Br  0  0  0  0  0  0  0  0  0  0  0  0
   -1.6259    8.1077  -13.6590 C   0  0  0  0  0  0  0  0  0  0  0  0
   -0.5064    8.8757  -13.8569 C   0  0  0  0  0  0  0  0  0  0  0  0
   -0.5495   10.2308  -13.6301 C   0  0  0  0  0  0  0  0  0  0  0  0
   -1.7113   10.8580  -13.2010 C   0  0  0  0  0  0  0  0  0  0  0  0
   -2.8442   10.1079  -12.9961 C   0  0  0  0  0  0  0  0  0  0  0  0
   -2.7908    8.7292  -13.2295 C   0  0  0  0  0  0  0  0  0  0  0  0
    1.3801    8.1112  -12.0126 C   0  0  0  0  0  0  0  0  0  0  0  0
    1.0519    8.2610  -10.8855 N   0  0  0  0  0  0  0  0  0  0  0  0
    2.7182    8.9526  -15.5954 C   0  0  0  0  0  0  0  0  0  0  0  0
    3.3517    8.7975  -16.5804 N   0  0  0  0  0  0  0  0  0  0  0  0
 14 15  1  0  0  0
 15 16  2  0  0  0
 15 20  1  0  0  0
 16 17  1  0  0  0
 16  1  1  0  0  0
 17 18  2  0  0  0
 18 19  1  0  0  0
 19 20  2  0  0  0
  1  2  1  0  0  0
  1  6  1  0  0  0
  2  3  1  0  0  0
  2  6  1  0  0  0
  2 23  1  0  0  0
  3  4  1  0  0  0
  3  8  1  0  0  0
  3 11  1  0  0  0
  4  5  2  0  0  0
  5  6  1  0  0  0
  5  7  1  0  0  0
  6 21  1  0  0  0
 21 22  3  0  0  0
  8  9  1  0  0  0
  9 10  1  0  0  0
 10 11  1  0  0  0
 23 24  3  0  0  0
  7 12  1  0  0  0
  7 13  1  0  0  0
M  END
> <minimizedAffinity>
-5.10627

$$$$
1360


 34 37  0  0  0  0  0  0  0  0999 V2000
    1.8173    9.2202  -12.4827 C   0  0  0  0  0  0  0  0  0  0  0  0
    1.4026   10.5587  -12.8142 N   0  0  0  0  0  0  0  0  0  0  0  0
    0.4803   10.3064  -13.9450 C   0  0  0  0  0  0  0  0  0  0  0  0
   -0.1303   11.5413  -14.2530 N   0  0  0  0  0  0  0  0  0  0  0  0
    0.4854   12.5464  -13.4422 C   0  0  0  0  0  0  0  0  0  0  0  0
    1.4026   11.9311  -12.5878 C   0  0  0  0  0  0  0  0  0  0  0  0
    2.1208   12.7162  -11.7104 C   0  0  0  0  0  0  0  0  0  0  0  0
    2.9411   12.1394  -10.9511 O   0  0  0  0  0  0  0  0  0  0  0  0
    1.9263   14.0400  -11.6956 N   0  0  0  0  0  0  0  0  0  0  0  0
    1.0509   14.5958  -12.5161 C   0  0  0  0  0  0  0  0  0  0  0  0
    0.8979   15.8467  -12.4703 O   0  0  0  0  0  0  0  0  0  0  0  0
    0.3089   13.8704  -13.4084 N   0  0  0  0  0  0  0  0  0  0  0  0
   -0.6115   14.5996  -14.2512 C   0  0  0  0  0  0  0  0  0  0  0  0
    2.7111   14.8371  -10.7468 C   0  0  0  0  0  0  0  0  0  0  0  0
   -1.1618   11.8098  -15.2219 C   0  0  0  0  0  0  0  0  0  0  0  0
   -0.3126    9.1424  -13.5224 C   0  0  0  0  0  0  0  0  0  0  0  0
    0.4238    8.6010  -12.2892 C   0  0  0  0  0  0  0  0  0  0  0  0
    2.4801    8.5661  -13.5874 C   0  0  0  0  0  0  0  0  0  0  0  0
    1.9186    8.7899  -14.7415 O   0  0  0  0  0  0  0  0  0  0  0  0
    7.5794    5.1702  -13.7421 Br  0  0  0  0  0  0  0  0  0  0  0  0
    5.9856    6.2136  -13.6985 C   0  0  0  0  0  0  0  0  0  0  0  0
    4.8036    5.6841  -13.2030 C   0  0  0  0  0  0  0  0  0  0  0  0
    3.6445    6.4186  -13.1627 C   0  0  0  0  0  0  0  0  0  0  0  0
    3.6478    7.7138  -13.6234 C   0  0  0  0  0  0  0  0  0  0  0  0
    4.8299    8.2636  -14.1261 C   0  0  0  0  0  0  0  0  0  0  0  0
    5.9824    7.5175  -14.1609 C   0  0  0  0  0  0  0  0  0  0  0  0
    0.4425    7.1420  -12.2626 C   0  0  0  0  0  0  0  0  0  0  0  0
    0.8030    6.5291  -11.2034 O   0  0  0  0  0  0  0  0  0  0  0  0
    0.0826    6.3899  -13.3481 O   0  0  0  0  0  0  0  0  0  0  0  0
   -1.1016    5.5899  -13.3843 C   0  0  0  0  0  0  0  0  0  0  0  0
   -1.7337    9.3152  -13.2523 C   0  0  0  0  0  0  0  0  0  0  0  0
   -2.1061   10.0298  -12.2852 O   0  0  0  0  0  0  0  0  0  0  0  0
   -2.7006    8.7165  -14.0302 O   0  0  0  0  0  0  0  0  0  0  0  0
   -3.9225    9.3626  -14.3130 C   0  0  0  0  0  0  0  0  0  0  0  0
 20 21  1  0  0  0
 21 22  2  0  0  0
 21 26  1  0  0  0
 22 23  1  0  0  0
 23 24  2  0  0  0
 24 25  1  0  0  0
 24 18  1  0  0  0
 25 26  2  0  0  0
 18 19  2  0  0  0
 18  1  1  0  0  0
  1  2  1  0  0  0
  1 17  1  0  0  0
  2  3  1  0  0  0
  2  6  1  0  0  0
  3  4  1  0  0  0
  3 16  1  0  0  0
  4  5  1  0  0  0
  4 15  1  0  0  0
  5  6  2  0  0  0
  5 12  1  0  0  0
  6  7  1  0  0  0
  7  8  2  0  0  0
  7  9  1  0  0  0
  9 10  1  0  0  0
  9 14  1  0  0  0
 10 11  2  0  0  0
 10 12  1  0  0  0
 12 13  1  0  0  0
 16 17  1  0  0  0
 16 31  1  0  0  0
 17 27  1  0  0  0
 27 28  2  0  0  0
 27 29  1  0  0  0
 29 30  1  0  0  0
 31 32  2  0  0  0
 31 33  1  0  0  0
 33 34  1  0  0  0
M  END
> <minimizedAffinity>
-4.74787

$$$$
1372


 31 34  0  0  0  0  0  0  0  0999 V2000
    6.9776    6.4086  -12.7189 C   0  0  0  0  0  0  0  0  0  0  0  0
    6.6053    6.6598  -11.5542 O   0  0  0  0  0  0  0  0  0  0  0  0
    8.3415    6.3847  -13.0306 N   0  0  0  0  0  0  0  0  0  0  0  0
    9.4836    6.2735  -12.1877 C   0  0  0  0  0  0  0  0  0  0  0  0
   10.5227    5.5427  -13.0521 C   0  0  0  0  0  0  0  0  0  0  0  0
    9.8764    4.6127  -14.0491 C   0  0  0  0  0  0  0  0  0  0  0  0
   10.8609    3.9436  -14.8549 N   0  0  0  0  0  0  0  0  0  0  0  0
   10.1445    3.1376  -15.8534 C   0  0  0  0  0  0  0  0  0  0  0  0
    9.3896    2.0101  -15.2212 C   0  0  0  0  0  0  0  0  0  0  0  0
    8.8766    2.3480  -13.8742 C   0  0  0  0  0  0  0  0  0  0  0  0
    8.1584    1.6198  -13.0139 N   0  0  0  0  0  0  0  0  0  0  0  0
    7.9271    2.3622  -11.9127 C   0  0  0  0  0  0  0  0  0  0  0  0
    8.5096    3.5534  -12.1062 N   0  0  0  0  0  0  0  0  0  0  0  0
    9.1146    3.6050  -13.3022 C   0  0  0  0  0  0  0  0  0  0  0  0
    8.9949    5.3599  -15.0631 C   0  0  0  0  0  0  0  0  0  0  0  0
    8.7466    6.6702  -14.4478 C   0  0  0  0  0  0  0  0  0  0  0  0
   11.4003    4.6547  -15.4037 H   0  0  0  0  0  0  0  0  0  0  0  0
    7.7993    0.6433  -13.0983 H   0  0  0  0  0  0  0  0  0  0  0  0
    5.9227    6.1269  -13.7404 C   0  0  0  0  0  0  0  0  0  0  0  0
    5.4397    4.6759  -13.4818 C   0  0  0  0  0  0  0  0  0  0  0  0
    4.5968    8.1650  -14.2997 C   0  0  0  0  0  0  0  0  0  0  0  0
    5.4685    8.5499  -15.0888 O   0  0  0  0  0  0  0  0  0  0  0  0
    4.7244    6.9126  -13.5744 N   0  0  0  0  0  0  0  0  0  0  0  0
    3.9755    6.5932  -12.9630 H   0  0  0  0  0  0  0  0  0  0  0  0
   -0.4821    7.8091  -12.7742 Br  0  0  0  0  0  0  0  0  0  0  0  0
    1.0349    8.8580  -13.3438 C   0  0  0  0  0  0  0  0  0  0  0  0
    2.2325    8.2442  -13.6139 C   0  0  0  0  0  0  0  0  0  0  0  0
    3.3783    8.9451  -14.0252 C   0  0  0  0  0  0  0  0  0  0  0  0
    3.2786   10.2961  -14.1635 C   0  0  0  0  0  0  0  0  0  0  0  0
    2.0706   10.9300  -13.8920 C   0  0  0  0  0  0  0  0  0  0  0  0
    0.9517   10.2233  -13.4837 C   0  0  0  0  0  0  0  0  0  0  0  0
 25 26  1  0  0  0
 26 27  2  0  0  0
 26 31  1  0  0  0
 27 28  1  0  0  0
 28 29  2  0  0  0
 28 21  1  0  0  0
 29 30  1  0  0  0
 30 31  2  0  0  0
 21 22  2  0  0  0
 21 23  1  0  0  0
 23 19  1  0  0  0
 19 20  1  0  0  0
 19  1  1  0  0  0
  1  2  2  0  0  0
  1  3  1  0  0  0
  3  4  1  0  0  0
  3 16  1  0  0  0
  4  5  1  0  0  0
  5  6  1  0  0  0
  6  7  1  0  0  0
  6 14  1  0  0  0
  6 15  1  0  0  0
  7  8  1  0  0  0
  8  9  1  0  0  0
  9 10  1  0  0  0
 10 11  1  0  0  0
 10 14  2  0  0  0
 11 12  1  0  0  0
 12 13  2  0  0  0
 13 14  1  0  0  0
 15 16  1  0  0  0
 23 24  1  0  0  0
  7 17  1  0  0  0
 11 18  1  0  0  0
M  END
> <minimizedAffinity>
-6.88417

$$$$
1381


 31 34  0  0  0  0  0  0  0  0999 V2000
    0.1922   13.6497  -12.7399 C   0  0  0  0  0  0  0  0  0  0  0  0
    0.7599   14.2374  -11.8284 O   0  0  0  0  0  0  0  0  0  0  0  0
    0.1842   12.2393  -13.0769 C   0  0  0  0  0  0  0  0  0  0  0  0
   -0.9953   11.5561  -13.1730 N   0  0  0  0  0  0  0  0  0  0  0  0
   -1.0296   10.2712  -13.4789 N   0  0  0  0  0  0  0  0  0  0  0  0
    0.0965    9.5752  -13.7097 C   0  0  0  0  0  0  0  0  0  0  0  0
    0.0509    8.3338  -14.0036 O   0  0  0  0  0  0  0  0  0  0  0  0
    1.3245   10.1884  -13.6321 C   0  0  0  0  0  0  0  0  0  0  0  0
    1.3326   11.5474  -13.3076 C   0  0  0  0  0  0  0  0  0  0  0  0
    2.5797   12.1189  -13.2424 C   0  0  0  0  0  0  0  0  0  0  0  0
    3.7394   11.3895  -13.4830 C   0  0  0  0  0  0  0  0  0  0  0  0
    3.6947   10.0522  -13.7996 C   0  0  0  0  0  0  0  0  0  0  0  0
    2.4593    9.4594  -13.8712 C   0  0  0  0  0  0  0  0  0  0  0  0
   -2.2863    9.5580  -13.5773 C   0  0  0  0  0  0  0  0  0  0  0  0
   -3.3325   10.3363  -14.3311 C   0  0  0  0  0  0  0  0  0  0  0  0
   -4.1437    9.5284  -15.1062 O   0  0  0  0  0  0  0  0  0  0  0  0
   -3.9308    8.5916  -14.8831 H   0  0  0  0  0  0  0  0  0  0  0  0
   -0.5536   14.5497  -13.5492 O   0  0  0  0  0  0  0  0  0  0  0  0
   -0.0881   15.8674  -13.6588 C   0  0  0  0  0  0  0  0  0  0  0  0
   -5.3327   21.1188   -9.9682 Br  0  0  0  0  0  0  0  0  0  0  0  0
   -3.9482   19.9451  -10.6076 C   0  0  0  0  0  0  0  0  0  0  0  0
   -4.0970   19.2677  -11.8043 C   0  0  0  0  0  0  0  0  0  0  0  0
   -3.1309   18.4371  -12.2683 N   0  0  0  0  0  0  0  0  0  0  0  0
   -2.0005   18.2500  -11.5785 C   0  0  0  0  0  0  0  0  0  0  0  0
   -1.0467   17.4260  -12.0427 N   0  0  0  0  0  0  0  0  0  0  0  0
   -1.1725   16.7590  -13.2019 C   0  0  0  0  0  0  0  0  0  0  0  0
   -2.3319   16.9502  -13.9112 C   0  0  0  0  0  0  0  0  0  0  0  0
   -3.3386   17.8066  -13.4422 C   0  0  0  0  0  0  0  0  0  0  0  0
   -4.3877   17.9591  -14.1161 O   0  0  0  0  0  0  0  0  0  0  0  0
   -1.8352   18.9121  -10.3916 C   0  0  0  0  0  0  0  0  0  0  0  0
   -2.7943   19.7650   -9.8857 C   0  0  0  0  0  0  0  0  0  0  0  0
 20 21  1  0  0  0
 21 22  2  0  0  0
 21 31  1  0  0  0
 22 23  1  0  0  0
 23 24  1  0  0  0
 23 28  1  0  0  0
 24 25  2  0  0  0
 24 30  1  0  0  0
 25 26  1  0  0  0
 26 27  2  0  0  0
 26 19  1  0  0  0
 27 28  1  0  0  0
 28 29  2  0  0  0
 19 18  1  0  0  0
 18  1  1  0  0  0
  1  2  2  0  0  0
  1  3  1  0  0  0
  3  4  2  0  0  0
  3  9  1  0  0  0
  4  5  1  0  0  0
  5  6  1  0  0  0
  5 14  1  0  0  0
  6  7  2  0  0  0
  6  8  1  0  0  0
  8  9  2  0  0  0
  8 13  1  0  0  0
  9 10  1  0  0  0
 10 11  2  0  0  0
 11 12  1  0  0  0
 12 13  2  0  0  0
 14 15  1  0  0  0
 15 16  1  0  0  0
 30 31  2  0  0  0
 16 17  1  0  0  0
M  END
> <minimizedAffinity>
-10.52698

$$$$
1386


 33 36  0  0  0  0  0  0  0  0999 V2000
   -0.2619   14.2942  -12.7226 C   0  0  0  0  0  0  0  0  0  0  0  0
   -1.1896   13.4540  -12.6945 O   0  0  0  0  0  0  0  0  0  0  0  0
    1.0455   13.8732  -13.1675 N   0  0  0  0  0  0  0  0  0  0  0  0
    1.2378   12.5049  -13.5639 C   0  0  0  0  0  0  0  0  0  0  0  0
    2.1514   11.8655  -12.5388 C   0  0  0  0  0  0  0  0  0  0  0  0
    3.1416   12.8066  -11.9541 C   0  0  0  0  0  0  0  0  0  0  0  0
    3.4045   14.0357  -12.7443 C   0  0  0  0  0  0  0  0  0  0  0  0
    2.1870   14.7424  -13.2431 C   0  0  0  0  0  0  0  0  0  0  0  0
    2.8155   13.1958  -10.6454 O   0  0  0  0  0  0  0  0  0  0  0  0
    4.4704   12.0493  -11.8294 C   0  0  0  0  0  0  0  0  0  0  0  0
    1.8203   13.0874  -10.5317 H   0  0  0  0  0  0  0  0  0  0  0  0
    2.7472   10.6996  -13.1448 N   0  0  0  0  0  0  0  0  0  0  0  0
    3.5636   10.8299  -14.2087 C   0  0  0  0  0  0  0  0  0  0  0  0
    4.1532    9.7452  -14.8182 C   0  0  0  0  0  0  0  0  0  0  0  0
    3.8941    8.4909  -14.3160 C   0  0  0  0  0  0  0  0  0  0  0  0
    4.4096    7.4463  -14.8357 O   0  0  0  0  0  0  0  0  0  0  0  0
    3.0768    8.3914  -13.2562 N   0  0  0  0  0  0  0  0  0  0  0  0
    2.5177    9.4583  -12.6834 C   0  0  0  0  0  0  0  0  0  0  0  0
    1.7546    9.3096  -11.6860 O   0  0  0  0  0  0  0  0  0  0  0  0
    2.8490    7.4406  -12.8365 H   0  0  0  0  0  0  0  0  0  0  0  0
   -0.4512   15.6918  -12.3185 C   0  0  0  0  0  0  0  0  0  0  0  0
   -1.1498   16.5906  -13.2474 C   0  0  0  0  0  0  0  0  0  0  0  0
   -4.6564   21.7372   -8.7776 Cl  0  0  0  0  0  0  0  0  0  0  0  0
   -4.3394   20.6334  -10.1255 C   0  0  0  0  0  0  0  0  0  0  0  0
   -3.1562   19.9335  -10.1559 C   0  0  0  0  0  0  0  0  0  0  0  0
   -2.8701   19.0605  -11.1932 C   0  0  0  0  0  0  0  0  0  0  0  0
   -1.8247   18.2688  -11.4743 N   0  0  0  0  0  0  0  0  0  0  0  0
   -2.0653   17.5996  -12.6559 C   0  0  0  0  0  0  0  0  0  0  0  0
   -3.2636   18.0111  -13.0552 N   0  0  0  0  0  0  0  0  0  0  0  0
   -3.8072   18.9158  -12.1896 C   0  0  0  0  0  0  0  0  0  0  0  0
   -4.9965   19.6136  -12.1686 C   0  0  0  0  0  0  0  0  0  0  0  0
   -5.2692   20.4769  -11.1350 C   0  0  0  0  0  0  0  0  0  0  0  0
   -4.0043   17.5733  -14.2249 C   0  0  0  0  0  0  0  0  0  0  0  0
 23 24  1  0  0  0
 24 25  2  0  0  0
 24 32  1  0  0  0
 25 26  1  0  0  0
 26 27  1  0  0  0
 26 30  2  0  0  0
 27 28  2  0  0  0
 28 29  1  0  0  0
 28 22  1  0  0  0
 29 30  1  0  0  0
 29 33  1  0  0  0
 30 31  1  0  0  0
 31 32  2  0  0  0
 22 21  1  0  0  0
 21  1  1  0  0  0
  1  2  2  0  0  0
  1  3  1  0  0  0
  3  4  1  0  0  0
  3  8  1  0  0  0
  4  5  1  0  0  0
  5  6  1  0  0  0
  5 12  1  0  0  0
  6  7  1  0  0  0
  6  9  1  0  0  0
  6 10  1  0  0  0
  7  8  1  0  0  0
 12 13  1  0  0  0
 12 18  1  0  0  0
 13 14  2  0  0  0
 14 15  1  0  0  0
 15 16  2  0  0  0
 15 17  1  0  0  0
 17 18  1  0  0  0
 18 19  2  0  0  0
  9 11  1  0  0  0
 17 20  1  0  0  0
M  END
> <minimizedAffinity>
-9.22234

$$$$
1388


 30 33  0  0  0  0  0  0  0  0999 V2000
   -1.6007    6.4424  -13.9999 C   0  0  0  0  0  0  0  0  0  0  0  0
   -1.2430    5.2497  -13.8379 O   0  0  0  0  0  0  0  0  0  0  0  0
   -0.9021    7.4650  -13.3396 N   0  0  0  0  0  0  0  0  0  0  0  0
   -1.2538    8.8567  -13.4762 C   0  0  0  0  0  0  0  0  0  0  0  0
   -0.0836    9.5409  -14.1486 C   0  0  0  0  0  0  0  0  0  0  0  0
    1.1939    9.1970  -13.4205 C   0  0  0  0  0  0  0  0  0  0  0  0
    2.0503    8.4742  -14.3368 N   0  0  0  0  0  0  0  0  0  0  0  0
    3.3501    8.1852  -13.8404 C   0  0  0  0  0  0  0  0  0  0  0  0
    4.0174    9.2391  -13.0353 C   0  0  0  0  0  0  0  0  0  0  0  0
    3.2681   10.5093  -12.9384 C   0  0  0  0  0  0  0  0  0  0  0  0
    3.6597   11.7958  -12.6851 N   0  0  0  0  0  0  0  0  0  0  0  0
    2.5516   12.5461  -12.7133 C   0  0  0  0  0  0  0  0  0  0  0  0
    1.4936   11.7619  -12.9766 N   0  0  0  0  0  0  0  0  0  0  0  0
    1.9043   10.4772  -13.1235 C   0  0  0  0  0  0  0  0  0  0  0  0
    0.9962    8.4209  -12.1585 C   0  0  0  0  0  0  0  0  0  0  0  0
    0.2127    7.1459  -12.4855 C   0  0  0  0  0  0  0  0  0  0  0  0
    1.5810    7.5610  -14.5748 H   0  0  0  0  0  0  0  0  0  0  0  0
    4.6638   12.0906  -12.5057 H   0  0  0  0  0  0  0  0  0  0  0  0
   -2.7608    6.6821  -14.8985 C   0  0  0  0  0  0  0  0  0  0  0  0
   -4.7973    8.1260  -15.0594 C   0  0  0  0  0  0  0  0  0  0  0  0
   -4.9722    7.6763  -16.2209 O   0  0  0  0  0  0  0  0  0  0  0  0
   -3.6794    7.6496  -14.3377 N   0  0  0  0  0  0  0  0  0  0  0  0
   -3.5140    8.0067  -13.3761 H   0  0  0  0  0  0  0  0  0  0  0  0
   -8.8344   11.5043  -15.8748 Br  0  0  0  0  0  0  0  0  0  0  0  0
   -7.5647   10.6661  -14.7471 C   0  0  0  0  0  0  0  0  0  0  0  0
   -6.6850    9.7458  -15.2880 C   0  0  0  0  0  0  0  0  0  0  0  0
   -5.7358    9.0990  -14.5190 C   0  0  0  0  0  0  0  0  0  0  0  0
   -5.6830    9.4008  -13.1657 C   0  0  0  0  0  0  0  0  0  0  0  0
   -6.5603   10.3165  -12.6347 C   0  0  0  0  0  0  0  0  0  0  0  0
   -7.5122   10.9696  -13.3857 C   0  0  0  0  0  0  0  0  0  0  0  0
 24 25  1  0  0  0
 25 26  2  0  0  0
 25 30  1  0  0  0
 26 27  1  0  0  0
 27 28  2  0  0  0
 27 20  1  0  0  0
 28 29  1  0  0  0
 29 30  2  0  0  0
 20 21  2  0  0  0
 20 22  1  0  0  0
 22 19  1  0  0  0
 19  1  1  0  0  0
  1  2  2  0  0  0
  1  3  1  0  0  0
  3  4  1  0  0  0
  3 16  1  0  0  0
  4  5  1  0  0  0
  5  6  1  0  0  0
  6  7  1  0  0  0
  6 14  1  0  0  0
  6 15  1  0  0  0
  7  8  1  0  0  0
  8  9  1  0  0  0
  9 10  1  0  0  0
 10 11  1  0  0  0
 10 14  2  0  0  0
 11 12  1  0  0  0
 12 13  2  0  0  0
 13 14  1  0  0  0
 15 16  1  0  0  0
 22 23  1  0  0  0
  7 17  1  0  0  0
 11 18  1  0  0  0
M  END
> <minimizedAffinity>
-8.72071

$$$$
1404


 26 29  0  0  0  0  0  0  0  0999 V2000
    8.2020    4.9785  -11.9712 Br  0  0  0  0  0  0  0  0  0  0  0  0
    7.0719    6.1089  -13.0125 C   0  0  0  0  0  0  0  0  0  0  0  0
    5.7092    6.1625  -12.7884 C   0  0  0  0  0  0  0  0  0  0  0  0
    4.8517    6.9626  -13.5134 C   0  0  0  0  0  0  0  0  0  0  0  0
    5.4434    7.7396  -14.5135 C   0  0  0  0  0  0  0  0  0  0  0  0
    6.7975    7.6863  -14.7360 C   0  0  0  0  0  0  0  0  0  0  0  0
    7.6434    6.8807  -14.0021 C   0  0  0  0  0  0  0  0  0  0  0  0
    9.1064    6.8626  -14.2874 C   0  0  0  0  0  0  0  0  0  0  0  0
    4.5501    8.5327  -15.2201 O   0  0  0  0  0  0  0  0  0  0  0  0
    3.1419    8.4271  -15.1297 C   0  0  0  0  0  0  0  0  0  0  0  0
    2.7023    8.2579  -13.6372 C   0  0  0  0  0  0  0  0  0  0  0  0
    3.4135    7.0040  -13.2883 C   0  0  0  0  0  0  0  0  0  0  0  0
    2.9173    5.9642  -12.8205 O   0  0  0  0  0  0  0  0  0  0  0  0
    1.3539    8.2766  -13.4591 N   0  0  0  0  0  0  0  0  0  0  0  0
    0.7243    8.2984  -12.2087 C   0  0  0  0  0  0  0  0  0  0  0  0
    0.2266    6.9138  -11.8536 C   0  0  0  0  0  0  0  0  0  0  0  0
   -0.7958    6.6288  -12.7897 O   0  0  0  0  0  0  0  0  0  0  0  0
   -0.1060    6.4012  -13.9933 C   0  0  0  0  0  0  0  0  0  0  0  0
    0.5196    7.7267  -14.4337 C   0  0  0  0  0  0  0  0  0  0  0  0
    3.3557    9.4123  -12.9653 C   0  0  0  0  0  0  0  0  0  0  0  0
    3.3782   10.6710  -13.6427 N   0  0  0  0  0  0  0  0  0  0  0  0
    2.1541   11.2233  -14.0843 C   0  0  0  0  0  0  0  0  0  0  0  0
    1.3737   11.8204  -12.9037 C   0  0  0  0  0  0  0  0  0  0  0  0
    2.1392   12.9039  -12.4601 O   0  0  0  0  0  0  0  0  0  0  0  0
    3.2883   12.3701  -11.8652 C   0  0  0  0  0  0  0  0  0  0  0  0
    4.1469   11.6232  -12.8391 C   0  0  0  0  0  0  0  0  0  0  0  0
  1  2  1  0  0  0
  2  3  2  0  0  0
  2  7  1  0  0  0
  3  4  1  0  0  0
  4  5  2  0  0  0
  4 12  1  0  0  0
  5  6  1  0  0  0
  5  9  1  0  0  0
  6  7  2  0  0  0
  7  8  1  0  0  0
  9 10  1  0  0  0
 10 11  1  0  0  0
 11 12  1  0  0  0
 11 14  1  0  0  0
 11 20  1  0  0  0
 12 13  2  0  0  0
 14 15  1  0  0  0
 14 19  1  0  0  0
 15 16  1  0  0  0
 16 17  1  0  0  0
 17 18  1  0  0  0
 18 19  1  0  0  0
 20 21  1  0  0  0
 21 22  1  0  0  0
 21 26  1  0  0  0
 22 23  1  0  0  0
 23 24  1  0  0  0
 24 25  1  0  0  0
 25 26  1  0  0  0
M  END
> <minimizedAffinity>
-6.91942

$$$$
1405


 27 30  0  0  0  0  0  0  0  0999 V2000
   -6.8750   21.9196   -9.7024 Br  0  0  0  0  0  0  0  0  0  0  0  0
   -6.9437   23.2315   -8.2922 C   0  0  0  0  0  0  0  0  0  0  0  0
   -8.0746   23.9723   -8.0707 C   0  0  0  0  0  0  0  0  0  0  0  0
   -8.1005   24.9049   -7.0551 C   0  0  0  0  0  0  0  0  0  0  0  0
   -6.9700   25.0513   -6.2977 C   0  0  0  0  0  0  0  0  0  0  0  0
   -5.8073   24.2880   -6.5267 C   0  0  0  0  0  0  0  0  0  0  0  0
   -5.7995   23.3662   -7.5394 C   0  0  0  0  0  0  0  0  0  0  0  0
   -7.1503   26.0464   -5.2946 N   0  0  0  0  0  0  0  0  0  0  0  0
   -8.4496   26.5538   -5.4202 C   0  0  0  0  0  0  0  0  0  0  0  0
   -8.9543   27.4592   -4.6881 O   0  0  0  0  0  0  0  0  0  0  0  0
   -9.1336   25.8475   -6.5602 C   0  0  0  0  0  0  0  0  0  0  0  0
  -10.2896   25.1759   -5.9776 C   0  0  0  0  0  0  0  0  0  0  0  0
  -11.5572   25.5116   -6.3390 C   0  0  0  0  0  0  0  0  0  0  0  0
  -12.3938   24.7062   -5.6203 N   0  0  0  0  0  0  0  0  0  0  0  0
  -11.6967   23.9033   -4.8440 N   0  0  0  0  0  0  0  0  0  0  0  0
  -10.4028   24.1554   -5.0292 C   0  0  0  0  0  0  0  0  0  0  0  0
   -9.2125   23.5155   -4.3862 C   0  0  0  0  0  0  0  0  0  0  0  0
  -11.8381   26.5077   -7.2806 O   0  0  0  0  0  0  0  0  0  0  0  0
  -10.7329   27.1464   -7.8336 C   0  0  0  0  0  0  0  0  0  0  0  0
   -9.4928   26.8685   -7.5266 C   0  0  0  0  0  0  0  0  0  0  0  0
  -10.9625   28.1922   -8.8196 N   0  0  0  0  0  0  0  0  0  0  0  0
   -6.1571   26.4756   -4.2983 C   0  0  0  0  0  0  0  0  0  0  0  0
  -12.0483   23.1713   -4.1743 H   0  0  0  0  0  0  0  0  0  0  0  0
  -11.0783   29.1456   -8.4219 H   0  0  0  0  0  0  0  0  0  0  0  0
  -11.0095   28.0190   -9.8216 H   0  0  0  0  0  0  0  0  0  0  0  0
   -8.4471   27.6468   -8.2133 C   0  0  0  0  0  0  0  0  0  0  0  0
   -7.6061   28.2442   -8.7608 N   0  0  0  0  0  0  0  0  0  0  0  0
  1  2  1  0  0  0
  2  3  2  0  0  0
  2  7  1  0  0  0
  3  4  1  0  0  0
  4  5  2  0  0  0
  4 11  1  0  0  0
  5  6  1  0  0  0
  5  8  1  0  0  0
  6  7  2  0  0  0
  8  9  1  0  0  0
  8 22  1  0  0  0
  9 10  2  0  0  0
  9 11  1  0  0  0
 11 12  1  0  0  0
 11 20  1  0  0  0
 12 13  1  0  0  0
 12 16  2  0  0  0
 13 14  2  0  0  0
 13 18  1  0  0  0
 14 15  1  0  0  0
 15 16  1  0  0  0
 16 17  1  0  0  0
 18 19  1  0  0  0
 19 20  2  0  0  0
 19 21  1  0  0  0
 20 26  1  0  0  0
 26 27  3  0  0  0
 15 23  1  0  0  0
 21 24  1  0  0  0
 21 25  1  0  0  0
M  END
> <minimizedAffinity>
-5.00756

$$$$
1413


 24 27  0  0  0  0  0  0  0  0999 V2000
   -5.2730    9.1000  -14.6786 C   0  0  0  0  0  0  0  0  0  0  0  0
   -0.6980    6.7323  -13.4610 Br  0  0  0  0  0  0  0  0  0  0  0  0
   -1.7503    8.2779  -13.7626 C   0  0  0  0  0  0  0  0  0  0  0  0
   -1.1716    9.4953  -13.6428 C   0  0  0  0  0  0  0  0  0  0  0  0
    0.0873    9.8612  -13.3311 N   0  0  0  0  0  0  0  0  0  0  0  0
    0.0656   11.1902  -13.3659 N   0  0  0  0  0  0  0  0  0  0  0  0
   -1.1111   11.6585  -13.6765 N   0  0  0  0  0  0  0  0  0  0  0  0
   -1.9512   10.6079  -13.8668 C   0  0  0  0  0  0  0  0  0  0  0  0
   -3.2945   10.4844  -14.2058 C   0  0  0  0  0  0  0  0  0  0  0  0
   -3.8742    9.2782  -14.3257 N   0  0  0  0  0  0  0  0  0  0  0  0
   -3.0994    8.1943  -14.1040 C   0  0  0  0  0  0  0  0  0  0  0  0
    1.2378    9.0999  -13.0218 C   0  0  0  0  0  0  0  0  0  0  0  0
   -6.2056    9.8254  -13.8211 C   0  0  0  0  0  0  0  0  0  0  0  0
   -6.0585    9.6682  -12.5708 O   0  0  0  0  0  0  0  0  0  0  0  0
   -7.2822   10.7065  -14.2632 C   0  0  0  0  0  0  0  0  0  0  0  0
   -7.9145   10.4383  -15.4444 C   0  0  0  0  0  0  0  0  0  0  0  0
   -8.9246   11.2518  -15.8875 C   0  0  0  0  0  0  0  0  0  0  0  0
   -9.3408   12.3597  -15.1721 C   0  0  0  0  0  0  0  0  0  0  0  0
   -8.6753   12.6054  -13.9734 C   0  0  0  0  0  0  0  0  0  0  0  0
   -7.6673   11.7958  -13.5272 C   0  0  0  0  0  0  0  0  0  0  0  0
  -10.3550   13.1926  -15.5971 C   0  0  0  0  0  0  0  0  0  0  0  0
  -10.9695   12.8899  -16.7932 C   0  0  0  0  0  0  0  0  0  0  0  0
  -10.5628   11.7874  -17.5157 C   0  0  0  0  0  0  0  0  0  0  0  0
   -9.5510   10.9600  -17.0860 C   0  0  0  0  0  0  0  0  0  0  0  0
  2  3  1  0  0  0
  3  4  2  0  0  0
  3 11  1  0  0  0
  4  5  1  0  0  0
  4  8  1  0  0  0
  5  6  1  0  0  0
  5 12  1  0  0  0
  6  7  2  0  0  0
  7  8  1  0  0  0
  8  9  2  0  0  0
  9 10  1  0  0  0
 10 11  2  0  0  0
 10  1  1  0  0  0
  1 13  1  0  0  0
 13 14  2  0  0  0
 13 15  1  0  0  0
 15 16  2  0  0  0
 15 20  1  0  0  0
 16 17  1  0  0  0
 17 18  2  0  0  0
 17 24  1  0  0  0
 18 19  1  0  0  0
 18 21  1  0  0  0
 19 20  2  0  0  0
 21 22  2  0  0  0
 22 23  1  0  0  0
 23 24  2  0  0  0
M  END
> <minimizedAffinity>
-10.94032

$$$$
1415


 32 35  0  0  0  0  0  0  0  0999 V2000
   -0.9827   12.2892  -15.0412 Br  0  0  0  0  0  0  0  0  0  0  0  0
    0.4289   12.6511  -13.7963 C   0  0  0  0  0  0  0  0  0  0  0  0
    1.4056   11.7092  -13.5769 C   0  0  0  0  0  0  0  0  0  0  0  0
    2.4573   11.9344  -12.6732 C   0  0  0  0  0  0  0  0  0  0  0  0
    2.4567   13.1477  -12.0205 C   0  0  0  0  0  0  0  0  0  0  0  0
    1.4895   14.1089  -12.2214 C   0  0  0  0  0  0  0  0  0  0  0  0
    0.4694   13.8652  -13.1123 C   0  0  0  0  0  0  0  0  0  0  0  0
   -0.6180   14.8366  -13.3979 C   0  0  0  0  0  0  0  0  0  0  0  0
    1.5149   15.7811  -11.3030 Br  0  0  0  0  0  0  0  0  0  0  0  0
    3.4637   10.9129  -12.4704 C   0  0  0  0  0  0  0  0  0  0  0  0
    4.4469   11.1413  -11.7579 O   0  0  0  0  0  0  0  0  0  0  0  0
    3.3051    9.6000  -13.1207 C   0  0  0  0  0  0  0  0  0  0  0  0
    2.6118    9.8379  -14.4443 C   0  0  0  0  0  0  0  0  0  0  0  0
    1.3722   10.4952  -14.2561 O   0  0  0  0  0  0  0  0  0  0  0  0
    4.5938    8.8558  -13.2977 C   0  0  0  0  0  0  0  0  0  0  0  0
    4.8101    8.2828  -14.5700 N   0  0  0  0  0  0  0  0  0  0  0  0
    6.2148    8.1203  -14.8018 C   0  0  0  0  0  0  0  0  0  0  0  0
    6.8714    7.0566  -13.9969 C   0  0  0  0  0  0  0  0  0  0  0  0
    5.9823    6.1589  -13.2270 C   0  0  0  0  0  0  0  0  0  0  0  0
    4.5854    6.0417  -13.6982 C   0  0  0  0  0  0  0  0  0  0  0  0
    4.2030    6.9989  -14.7885 C   0  0  0  0  0  0  0  0  0  0  0  0
    7.8124    7.7439  -13.0007 C   0  0  0  0  0  0  0  0  0  0  0  0
    4.4447    8.9231  -15.3196 H   0  0  0  0  0  0  0  0  0  0  0  0
    2.3662    8.8070  -12.2352 C   0  0  0  0  0  0  0  0  0  0  0  0
    2.0121    7.5180  -12.7234 N   0  0  0  0  0  0  0  0  0  0  0  0
    0.8911    7.6199  -13.6558 C   0  0  0  0  0  0  0  0  0  0  0  0
   -0.4189    7.2478  -13.0253 C   0  0  0  0  0  0  0  0  0  0  0  0
   -0.4950    7.8321  -11.6329 C   0  0  0  0  0  0  0  0  0  0  0  0
    0.5321    7.1413  -10.7905 C   0  0  0  0  0  0  0  0  0  0  0  0
    1.6033    6.5852  -11.6958 C   0  0  0  0  0  0  0  0  0  0  0  0
   -1.5208    7.9364  -13.8420 C   0  0  0  0  0  0  0  0  0  0  0  0
    2.7875    7.1040  -13.2477 H   0  0  0  0  0  0  0  0  0  0  0  0
  1  2  1  0  0  0
  2  3  2  0  0  0
  2  7  1  0  0  0
  3  4  1  0  0  0
  3 14  1  0  0  0
  4  5  2  0  0  0
  4 10  1  0  0  0
  5  6  1  0  0  0
  6  7  2  0  0  0
  6  9  1  0  0  0
  7  8  1  0  0  0
 10 11  2  0  0  0
 10 12  1  0  0  0
 12 13  1  0  0  0
 12 15  1  0  0  0
 12 24  1  0  0  0
 13 14  1  0  0  0
 15 16  1  0  0  0
 16 17  1  0  0  0
 16 21  1  0  0  0
 17 18  1  0  0  0
 18 19  1  0  0  0
 18 22  1  0  0  0
 19 20  1  0  0  0
 20 21  1  0  0  0
 24 25  1  0  0  0
 25 26  1  0  0  0
 25 30  1  0  0  0
 26 27  1  0  0  0
 27 28  1  0  0  0
 27 31  1  0  0  0
 28 29  1  0  0  0
 29 30  1  0  0  0
 16 23  1  0  0  0
 25 32  1  0  0  0
M  CHG 1  16   1
M  CHG 1  25   1
M  END
> <minimizedAffinity>
-4.77960

$$$$
1428


 37 40  0  0  0  0  0  0  0  0999 V2000
    0.8969    7.1343  -11.0404 Cl  0  0  0  0  0  0  0  0  0  0  0  0
    2.1009    6.0853  -11.7823 C   0  0  0  0  0  0  0  0  0  0  0  0
    3.3552    6.5314  -12.1026 C   0  0  0  0  0  0  0  0  0  0  0  0
    4.2586    5.6693  -12.6819 C   0  0  0  0  0  0  0  0  0  0  0  0
    3.8636    4.3789  -12.9196 C   0  0  0  0  0  0  0  0  0  0  0  0
    2.5826    3.9263  -12.5913 C   0  0  0  0  0  0  0  0  0  0  0  0
    1.6958    4.7896  -12.0181 C   0  0  0  0  0  0  0  0  0  0  0  0
    4.8971    3.5965  -13.5067 N   0  0  0  0  0  0  0  0  0  0  0  0
    6.0008    4.4481  -13.6424 C   0  0  0  0  0  0  0  0  0  0  0  0
    7.1076    4.0428  -14.1287 O   0  0  0  0  0  0  0  0  0  0  0  0
    5.6583    5.7911  -13.1538 C   0  0  0  0  0  0  0  0  0  0  0  0
    6.5651    6.1164  -12.0889 N   0  0  0  0  0  0  0  0  0  0  0  0
    7.4290    7.1706  -12.5204 C   0  0  0  0  0  0  0  0  0  0  0  0
    7.2642    7.3047  -14.0002 C   0  0  0  0  0  0  0  0  0  0  0  0
    5.8707    6.7826  -14.2142 C   0  0  0  0  0  0  0  0  0  0  0  0
    4.8488    2.5806  -13.7853 H   0  0  0  0  0  0  0  0  0  0  0  0
    6.0519    6.3205  -11.2055 H   0  0  0  0  0  0  0  0  0  0  0  0
    4.8597    7.8661  -14.3176 C   0  0  0  0  0  0  0  0  0  0  0  0
    4.2575    7.9534  -15.4149 O   0  0  0  0  0  0  0  0  0  0  0  0
    4.5661    8.7582  -13.2800 N   0  0  0  0  0  0  0  0  0  0  0  0
    5.1245    8.5912  -12.3872 H   0  0  0  0  0  0  0  0  0  0  0  0
    3.6486    9.8097  -13.2609 C   0  0  0  0  0  0  0  0  0  0  0  0
    2.3488    9.5835  -13.6905 C   0  0  0  0  0  0  0  0  0  0  0  0
    1.3896   10.5757  -13.6970 C   0  0  0  0  0  0  0  0  0  0  0  0
    1.6818   11.8482  -13.2745 C   0  0  0  0  0  0  0  0  0  0  0  0
    2.9529   12.1014  -12.8465 C   0  0  0  0  0  0  0  0  0  0  0  0
    3.9111   11.0905  -12.8443 C   0  0  0  0  0  0  0  0  0  0  0  0
    1.9770    8.3258  -14.1319 O   0  0  0  0  0  0  0  0  0  0  0  0
    0.6812    7.9822  -14.5167 C   0  0  0  0  0  0  0  0  0  0  0  0
    3.2879   13.3708  -12.4114 O   0  0  0  0  0  0  0  0  0  0  0  0
    2.6125   14.0185  -11.3486 C   0  0  0  0  0  0  0  0  0  0  0  0
    8.8744    6.9120  -12.1278 C   0  0  0  0  0  0  0  0  0  0  0  0
    9.1653    5.4760  -12.0121 C   0  0  0  0  0  0  0  0  0  0  0  0
    8.9847    4.8842  -10.9363 O   0  0  0  0  0  0  0  0  0  0  0  0
    9.6514    4.7696  -13.1280 N   0  0  0  0  0  0  0  0  0  0  0  0
    9.2042    3.8591  -13.3677 H   0  0  0  0  0  0  0  0  0  0  0  0
   10.4377    5.0962  -13.7407 H   0  0  0  0  0  0  0  0  0  0  0  0
  1  2  1  0  0  0
  2  3  2  0  0  0
  2  7  1  0  0  0
  3  4  1  0  0  0
  4  5  2  0  0  0
  4 11  1  0  0  0
  5  6  1  0  0  0
  5  8  1  0  0  0
  6  7  2  0  0  0
  8  9  1  0  0  0
  9 10  2  0  0  0
  9 11  1  0  0  0
 11 12  1  0  0  0
 11 15  1  0  0  0
 12 13  1  0  0  0
 13 14  1  0  0  0
 13 32  1  0  0  0
 14 15  1  0  0  0
 15 18  1  0  0  0
 18 19  2  0  0  0
 18 20  1  0  0  0
 20 22  1  0  0  0
 22 23  2  0  0  0
 22 27  1  0  0  0
 23 24  1  0  0  0
 23 28  1  0  0  0
 24 25  2  0  0  0
 25 26  1  0  0  0
 26 27  2  0  0  0
 26 30  1  0  0  0
 30 31  1  0  0  0
 28 29  1  0  0  0
 32 33  1  0  0  0
 33 34  2  0  0  0
 33 35  1  0  0  0
  8 16  1  0  0  0
 12 17  1  0  0  0
 20 21  1  0  0  0
 35 36  1  0  0  0
 35 37  1  0  0  0
M  END
> <minimizedAffinity>
-6.82176

$$$$
1432


 21 24  0  0  0  0  0  0  0  0999 V2000
   -1.8056   17.5168  -13.0494 C   0  0  0  0  0  0  0  0  0  0  0  0
   -1.2700   17.9060  -11.8807 N   0  0  0  0  0  0  0  0  0  0  0  0
   -2.1134   18.7179  -11.2215 N   0  0  0  0  0  0  0  0  0  0  0  0
   -3.2119   18.8483  -11.9865 C   0  0  0  0  0  0  0  0  0  0  0  0
   -3.0158   18.1137  -13.0973 N   0  0  0  0  0  0  0  0  0  0  0  0
   -4.2345   19.6468  -11.5115 C   0  0  0  0  0  0  0  0  0  0  0  0
   -4.1550   20.2991  -10.2955 C   0  0  0  0  0  0  0  0  0  0  0  0
   -5.2814   21.0095  -10.0716 N   0  0  0  0  0  0  0  0  0  0  0  0
   -6.0517   20.8062  -11.1237 N   0  0  0  0  0  0  0  0  0  0  0  0
   -5.4646   19.9926  -12.0200 C   0  0  0  0  0  0  0  0  0  0  0  0
   -5.5609   21.8259   -8.8923 C   0  0  0  0  0  0  0  0  0  0  0  0
   -3.0282   20.1228   -9.5841 N   0  0  0  0  0  0  0  0  0  0  0  0
   -2.0274   19.3492  -10.0354 C   0  0  0  0  0  0  0  0  0  0  0  0
   -1.2222   16.6236  -14.0879 C   0  0  0  0  0  0  0  0  0  0  0  0
    2.5673   13.9075  -11.2817 Br  0  0  0  0  0  0  0  0  0  0  0  0
    1.0744   14.3878  -12.3645 C   0  0  0  0  0  0  0  0  0  0  0  0
    0.6450   15.6644  -12.7194 C   0  0  0  0  0  0  0  0  0  0  0  0
   -0.4502   15.5429  -13.4961 N   0  0  0  0  0  0  0  0  0  0  0  0
   -0.7144   14.2434  -13.6342 N   0  0  0  0  0  0  0  0  0  0  0  0
    0.1926   13.5106  -12.9594 C   0  0  0  0  0  0  0  0  0  0  0  0
    0.2902   12.0373  -12.8329 C   0  0  0  0  0  0  0  0  0  0  0  0
 15 16  1  0  0  0
 16 17  2  0  0  0
 16 20  1  0  0  0
 17 18  1  0  0  0
 18 19  1  0  0  0
 18 14  1  0  0  0
 19 20  2  0  0  0
 20 21  1  0  0  0
 14  1  1  0  0  0
  1  2  2  0  0  0
  1  5  1  0  0  0
  2  3  1  0  0  0
  3  4  1  0  0  0
  3 13  1  0  0  0
  4  5  2  0  0  0
  4  6  1  0  0  0
  6  7  2  0  0  0
  6 10  1  0  0  0
  7  8  1  0  0  0
  7 12  1  0  0  0
  8  9  1  0  0  0
  8 11  1  0  0  0
  9 10  2  0  0  0
 12 13  2  0  0  0
M  END
> <minimizedAffinity>
-8.25473

$$$$
1433


 28 31  0  0  0  0  0  0  0  0999 V2000
    2.9765    9.5519  -15.3821 Br  0  0  0  0  0  0  0  0  0  0  0  0
    2.5311    8.3143  -14.0160 C   0  0  0  0  0  0  0  0  0  0  0  0
    3.4463    7.3192  -13.6578 C   0  0  0  0  0  0  0  0  0  0  0  0
    3.1626    6.4137  -12.6652 C   0  0  0  0  0  0  0  0  0  0  0  0
    1.9450    6.5195  -12.0366 C   0  0  0  0  0  0  0  0  0  0  0  0
    1.0142    7.5007  -12.3739 C   0  0  0  0  0  0  0  0  0  0  0  0
    1.3181    8.4177  -13.3842 C   0  0  0  0  0  0  0  0  0  0  0  0
    0.3341    9.4739  -13.7494 C   0  0  0  0  0  0  0  0  0  0  0  0
   -0.2989    7.5605  -11.6785 C   0  0  0  0  0  0  0  0  0  0  0  0
    4.0917    5.3472  -12.1925 C   0  0  0  0  0  0  0  0  0  0  0  0
    5.3159    5.1697  -13.0372 C   0  0  0  0  0  0  0  0  0  0  0  0
    5.0531    5.7634  -14.4090 C   0  0  0  0  0  0  0  0  0  0  0  0
    4.6848    7.1596  -14.2639 O   0  0  0  0  0  0  0  0  0  0  0  0
    3.3419    4.1307  -12.1548 O   0  0  0  0  0  0  0  0  0  0  0  0
    2.7691    4.1747  -11.3499 H   0  0  0  0  0  0  0  0  0  0  0  0
    5.4937    3.7427  -13.2007 N   0  0  0  0  0  0  0  0  0  0  0  0
    6.7611    3.2681  -12.7549 C   0  0  0  0  0  0  0  0  0  0  0  0
    7.1537    1.9057  -13.2504 C   0  0  0  0  0  0  0  0  0  0  0  0
    6.7775    1.6195  -14.5348 O   0  0  0  0  0  0  0  0  0  0  0  0
    5.3862    1.7629  -14.6175 C   0  0  0  0  0  0  0  0  0  0  0  0
    5.1722    3.2965  -14.5240 C   0  0  0  0  0  0  0  0  0  0  0  0
    6.5399    5.8556  -12.5623 C   0  0  0  0  0  0  0  0  0  0  0  0
    7.2346    6.8075  -13.2998 N   0  0  0  0  0  0  0  0  0  0  0  0
    8.1369    7.5876  -12.3850 C   0  0  0  0  0  0  0  0  0  0  0  0
    9.0465    6.6882  -11.6329 C   0  0  0  0  0  0  0  0  0  0  0  0
    9.4097    5.5463  -12.2949 O   0  0  0  0  0  0  0  0  0  0  0  0
    9.3576    5.6008  -13.6572 C   0  0  0  0  0  0  0  0  0  0  0  0
    8.2264    6.3669  -14.2632 C   0  0  0  0  0  0  0  0  0  0  0  0
  1  2  1  0  0  0
  2  3  2  0  0  0
  2  7  1  0  0  0
  3  4  1  0  0  0
  3 13  1  0  0  0
  4  5  2  0  0  0
  4 10  1  0  0  0
  5  6  1  0  0  0
  6  7  2  0  0  0
  6  9  1  0  0  0
  7  8  1  0  0  0
 10 11  1  0  0  0
 10 14  1  0  0  0
 11 12  1  0  0  0
 11 16  1  0  0  0
 11 22  1  0  0  0
 12 13  1  0  0  0
 16 17  1  0  0  0
 16 21  1  0  0  0
 17 18  1  0  0  0
 18 19  1  0  0  0
 19 20  1  0  0  0
 20 21  1  0  0  0
 22 23  1  0  0  0
 23 24  1  0  0  0
 23 28  1  0  0  0
 24 25  1  0  0  0
 25 26  1  0  0  0
 26 27  1  0  0  0
 27 28  1  0  0  0
 14 15  1  0  0  0
M  END
> <minimizedAffinity>
-5.52396

$$$$
1434


 28 31  0  0  0  0  0  0  0  0999 V2000
    3.1346    6.5026  -12.8674 C   0  0  0  0  0  0  0  0  0  0  0  0
    3.2023    5.7353  -11.7850 O   0  0  0  0  0  0  0  0  0  0  0  0
    2.1552    7.4817  -12.8146 N   0  0  0  0  0  0  0  0  0  0  0  0
    1.8284    8.4490  -13.8007 C   0  0  0  0  0  0  0  0  0  0  0  0
    0.4862    8.1007  -14.4454 C   0  0  0  0  0  0  0  0  0  0  0  0
   -0.4113    7.4281  -13.4203 C   0  0  0  0  0  0  0  0  0  0  0  0
   -1.7610    7.8641  -13.7361 N   0  0  0  0  0  0  0  0  0  0  0  0
   -2.2841    6.9101  -14.6834 C   0  0  0  0  0  0  0  0  0  0  0  0
   -3.2721    7.0861  -15.4390 O   0  0  0  0  0  0  0  0  0  0  0  0
   -1.4627    5.7303  -14.5964 N   0  0  0  0  0  0  0  0  0  0  0  0
   -0.4602    5.9640  -13.6150 C   0  0  0  0  0  0  0  0  0  0  0  0
    0.2224    5.0763  -13.0528 O   0  0  0  0  0  0  0  0  0  0  0  0
   -0.0966    7.8410  -12.0172 C   0  0  0  0  0  0  0  0  0  0  0  0
    1.3103    7.5629  -11.5981 C   0  0  0  0  0  0  0  0  0  0  0  0
   -2.2631    8.6958  -13.3616 H   0  0  0  0  0  0  0  0  0  0  0  0
   -1.5853    4.8711  -15.1503 H   0  0  0  0  0  0  0  0  0  0  0  0
    4.1187    6.1191  -13.8600 C   0  0  0  0  0  0  0  0  0  0  0  0
    7.2945    1.8699  -12.6916 Br  0  0  0  0  0  0  0  0  0  0  0  0
    6.5590    3.6090  -12.9898 C   0  0  0  0  0  0  0  0  0  0  0  0
    7.2671    4.7670  -12.7859 C   0  0  0  0  0  0  0  0  0  0  0  0
    6.4275    5.8049  -13.0977 C   0  0  0  0  0  0  0  0  0  0  0  0
    5.2193    5.3004  -13.4884 N   0  0  0  0  0  0  0  0  0  0  0  0
    5.3070    3.9511  -13.4188 C   0  0  0  0  0  0  0  0  0  0  0  0
    4.2147    3.0098  -13.7545 C   0  0  0  0  0  0  0  0  0  0  0  0
    6.8889    7.1165  -12.9828 C   0  0  0  0  0  0  0  0  0  0  0  0
    8.1854    7.3750  -12.5568 C   0  0  0  0  0  0  0  0  0  0  0  0
    9.0072    6.3264  -12.2503 C   0  0  0  0  0  0  0  0  0  0  0  0
    8.5604    5.0298  -12.3607 C   0  0  0  0  0  0  0  0  0  0  0  0
 18 19  1  0  0  0
 19 20  1  0  0  0
 19 23  2  0  0  0
 20 21  2  0  0  0
 20 28  1  0  0  0
 21 22  1  0  0  0
 21 25  1  0  0  0
 22 23  1  0  0  0
 22 17  1  0  0  0
 23 24  1  0  0  0
 17  1  1  0  0  0
  1  2  2  0  0  0
  1  3  1  0  0  0
  3  4  1  0  0  0
  3 14  1  0  0  0
  4  5  1  0  0  0
  5  6  1  0  0  0
  6  7  1  0  0  0
  6 11  1  0  0  0
  6 13  1  0  0  0
  7  8  1  0  0  0
  8  9  2  0  0  0
  8 10  1  0  0  0
 10 11  1  0  0  0
 11 12  2  0  0  0
 13 14  1  0  0  0
 25 26  2  0  0  0
 26 27  1  0  0  0
 27 28  2  0  0  0
  7 15  1  0  0  0
 10 16  1  0  0  0
M  END
> <minimizedAffinity>
-7.92678

$$$$
1435


 32 35  0  0  0  0  0  0  0  0999 V2000
    2.4045    8.4527  -14.6181 C   0  0  0  0  0  0  0  0  0  0  0  0
    3.0513    8.1711  -13.2688 C   0  0  0  0  0  0  0  0  0  0  0  0
    0.4310    6.3572  -12.2709 Br  0  0  0  0  0  0  0  0  0  0  0  0
    2.2410    5.8665  -12.6305 C   0  0  0  0  0  0  0  0  0  0  0  0
    3.1835    6.7533  -13.0333 N   0  0  0  0  0  0  0  0  0  0  0  0
    4.3101    6.0198  -13.1752 C   0  0  0  0  0  0  0  0  0  0  0  0
    4.0785    4.6955  -12.8671 C   0  0  0  0  0  0  0  0  0  0  0  0
    2.7692    4.6333  -12.5283 N   0  0  0  0  0  0  0  0  0  0  0  0
    5.0459    3.7526  -12.9298 N   0  0  0  0  0  0  0  0  0  0  0  0
    6.2760    4.1412  -13.3104 C   0  0  0  0  0  0  0  0  0  0  0  0
    7.2272    3.3194  -13.3922 O   0  0  0  0  0  0  0  0  0  0  0  0
    6.5426    5.4390  -13.6229 N   0  0  0  0  0  0  0  0  0  0  0  0
    5.5893    6.3805  -13.5640 C   0  0  0  0  0  0  0  0  0  0  0  0
    5.7841    7.5851  -13.8405 O   0  0  0  0  0  0  0  0  0  0  0  0
    4.7844    2.3639  -12.6009 C   0  0  0  0  0  0  0  0  0  0  0  0
    7.5126    5.7030  -13.9157 H   0  0  0  0  0  0  0  0  0  0  0  0
    1.4861    9.6433  -14.5398 C   0  0  0  0  0  0  0  0  0  0  0  0
    0.9435    9.9299  -13.1715 C   0  0  0  0  0  0  0  0  0  0  0  0
    0.4801   11.2749  -13.0899 N   0  0  0  0  0  0  0  0  0  0  0  0
    1.1272   12.4039  -12.8071 C   0  0  0  0  0  0  0  0  0  0  0  0
    0.2337   13.4657  -12.8932 C   0  0  0  0  0  0  0  0  0  0  0  0
   -0.9350   12.9272  -13.2285 N   0  0  0  0  0  0  0  0  0  0  0  0
   -0.8099   11.6048  -13.3517 C   0  0  0  0  0  0  0  0  0  0  0  0
   -2.2388   10.4326  -13.8197 Br  0  0  0  0  0  0  0  0  0  0  0  0
    0.6324   14.7172  -12.6492 N   0  0  0  0  0  0  0  0  0  0  0  0
    1.9089   14.9845  -12.3122 C   0  0  0  0  0  0  0  0  0  0  0  0
    2.2760   16.1642  -12.0847 O   0  0  0  0  0  0  0  0  0  0  0  0
    2.7782   13.9730  -12.2246 N   0  0  0  0  0  0  0  0  0  0  0  0
    2.4192   12.7024  -12.4617 C   0  0  0  0  0  0  0  0  0  0  0  0
    3.2439   11.7713  -12.3726 O   0  0  0  0  0  0  0  0  0  0  0  0
   -0.2837   15.8496  -12.7331 C   0  0  0  0  0  0  0  0  0  0  0  0
    3.7916   14.1394  -11.9623 H   0  0  0  0  0  0  0  0  0  0  0  0
  3  4  1  0  0  0
  4  5  1  0  0  0
  4  8  2  0  0  0
  5  6  1  0  0  0
  5  2  1  0  0  0
  6  7  2  0  0  0
  6 13  1  0  0  0
  7  8  1  0  0  0
  7  9  1  0  0  0
  9 10  1  0  0  0
  9 15  1  0  0  0
 10 11  2  0  0  0
 10 12  1  0  0  0
 12 13  1  0  0  0
 13 14  2  0  0  0
  2  1  1  0  0  0
  1 17  1  0  0  0
 17 18  1  0  0  0
 18 19  1  0  0  0
 19 20  1  0  0  0
 19 23  1  0  0  0
 20 21  2  0  0  0
 20 29  1  0  0  0
 21 22  1  0  0  0
 21 25  1  0  0  0
 22 23  2  0  0  0
 23 24  1  0  0  0
 25 26  1  0  0  0
 25 31  1  0  0  0
 26 27  2  0  0  0
 26 28  1  0  0  0
 28 29  1  0  0  0
 29 30  2  0  0  0
 12 16  1  0  0  0
 28 32  1  0  0  0
M  END
> <minimizedAffinity>
-8.17428

$$$$
1436


 33 36  0  0  0  0  0  0  0  0999 V2000
   -0.5412   16.0575  -13.6421 O   0  0  0  0  0  0  0  0  0  0  0  0
   -1.5049   16.4502  -12.7735 C   0  0  0  0  0  0  0  0  0  0  0  0
   -1.5740   17.8195  -12.2372 C   0  0  0  0  0  0  0  0  0  0  0  0
   -4.0118   17.4089  -14.6633 Br  0  0  0  0  0  0  0  0  0  0  0  0
   -3.8817   18.4051  -13.0362 C   0  0  0  0  0  0  0  0  0  0  0  0
   -2.8369   18.4769  -12.2143 N   0  0  0  0  0  0  0  0  0  0  0  0
   -3.1991   19.3424  -11.2271 C   0  0  0  0  0  0  0  0  0  0  0  0
   -4.4819   19.7682  -11.4950 C   0  0  0  0  0  0  0  0  0  0  0  0
   -4.9007   19.1880  -12.6114 N   0  0  0  0  0  0  0  0  0  0  0  0
   -5.0748   20.6534  -10.6461 N   0  0  0  0  0  0  0  0  0  0  0  0
   -4.3962   21.0817   -9.5835 C   0  0  0  0  0  0  0  0  0  0  0  0
   -4.9732   21.9028   -8.8132 O   0  0  0  0  0  0  0  0  0  0  0  0
   -3.1462   20.6735   -9.3134 N   0  0  0  0  0  0  0  0  0  0  0  0
   -2.4987   19.7890  -10.1242 C   0  0  0  0  0  0  0  0  0  0  0  0
   -1.3276   19.4153   -9.8641 O   0  0  0  0  0  0  0  0  0  0  0  0
   -6.4220   21.1247  -10.8921 C   0  0  0  0  0  0  0  0  0  0  0  0
   -2.6270   21.0178   -8.4778 H   0  0  0  0  0  0  0  0  0  0  0  0
   -0.6417   14.7074  -13.9352 C   0  0  0  0  0  0  0  0  0  0  0  0
   -0.4143   13.9143  -12.6830 C   0  0  0  0  0  0  0  0  0  0  0  0
    0.7192   13.0516  -12.7910 N   0  0  0  0  0  0  0  0  0  0  0  0
    0.6935   11.7667  -13.1692 C   0  0  0  0  0  0  0  0  0  0  0  0
    1.9701   11.2986  -13.1365 C   0  0  0  0  0  0  0  0  0  0  0  0
    2.7407   12.3078  -12.7395 N   0  0  0  0  0  0  0  0  0  0  0  0
    2.0035   13.4083  -12.5165 C   0  0  0  0  0  0  0  0  0  0  0  0
    2.5516   15.1331  -11.9406 Br  0  0  0  0  0  0  0  0  0  0  0  0
    2.2292   10.0242  -13.4767 N   0  0  0  0  0  0  0  0  0  0  0  0
    1.2228    9.2347  -13.8442 C   0  0  0  0  0  0  0  0  0  0  0  0
    1.4803    8.0428  -14.1608 O   0  0  0  0  0  0  0  0  0  0  0  0
   -0.0296    9.6722  -13.8832 N   0  0  0  0  0  0  0  0  0  0  0  0
   -0.3354   10.9299  -13.5537 C   0  0  0  0  0  0  0  0  0  0  0  0
   -1.5486   11.3103  -13.6044 O   0  0  0  0  0  0  0  0  0  0  0  0
    3.5817    9.5080  -13.4478 C   0  0  0  0  0  0  0  0  0  0  0  0
   -0.8049    9.0378  -14.1739 H   0  0  0  0  0  0  0  0  0  0  0  0
  4  5  1  0  0  0
  5  6  1  0  0  0
  5  9  2  0  0  0
  6  7  1  0  0  0
  6  3  1  0  0  0
  7  8  2  0  0  0
  7 14  1  0  0  0
  8  9  1  0  0  0
  8 10  1  0  0  0
 10 11  1  0  0  0
 10 16  1  0  0  0
 11 12  2  0  0  0
 11 13  1  0  0  0
 13 14  1  0  0  0
 14 15  2  0  0  0
  3  2  1  0  0  0
  2  1  1  0  0  0
  1 18  1  0  0  0
 18 19  1  0  0  0
 19 20  1  0  0  0
 20 21  1  0  0  0
 20 24  1  0  0  0
 21 22  2  0  0  0
 21 30  1  0  0  0
 22 23  1  0  0  0
 22 26  1  0  0  0
 23 24  2  0  0  0
 24 25  1  0  0  0
 26 27  1  0  0  0
 26 32  1  0  0  0
 27 28  2  0  0  0
 27 29  1  0  0  0
 29 30  1  0  0  0
 30 31  2  0  0  0
 13 17  1  0  0  0
 29 33  1  0  0  0
M  END
> <minimizedAffinity>
-8.57164

$$$$
1444


 33 36  0  0  0  0  0  0  0  0999 V2000
   -3.2402   10.1169  -13.6506 N   0  0  0  0  0  0  0  0  0  0  0  0
   -1.9044   10.3515  -13.5723 C   0  0  0  0  0  0  0  0  0  0  0  0
   -1.7310   11.5749  -12.9694 O   0  0  0  0  0  0  0  0  0  0  0  0
   -3.8405   10.9539  -13.1999 H   0  0  0  0  0  0  0  0  0  0  0  0
   -5.4641    9.2346  -14.2425 N   0  0  0  0  0  0  0  0  0  0  0  0
   -5.9130    8.1833  -14.9164 N   0  0  0  0  0  0  0  0  0  0  0  0
   -4.9187    7.4218  -15.3399 C   0  0  0  0  0  0  0  0  0  0  0  0
   -3.7401    8.0414  -14.8985 C   0  0  0  0  0  0  0  0  0  0  0  0
   -4.0987    9.1782  -14.2102 C   0  0  0  0  0  0  0  0  0  0  0  0
   -6.2499   10.2555  -13.6423 C   0  0  0  0  0  0  0  0  0  0  0  0
   -7.7383   12.7865  -12.7506 Cl  0  0  0  0  0  0  0  0  0  0  0  0
   -8.0791   11.8729  -14.2020 C   0  0  0  0  0  0  0  0  0  0  0  0
   -7.3447   10.7607  -14.4912 C   0  0  0  0  0  0  0  0  0  0  0  0
   -7.6560   10.0795  -15.6468 C   0  0  0  0  0  0  0  0  0  0  0  0
   -8.6604   10.4852  -16.4876 C   0  0  0  0  0  0  0  0  0  0  0  0
   -9.3963   11.6111  -16.1855 C   0  0  0  0  0  0  0  0  0  0  0  0
   -9.0907   12.2972  -15.0321 C   0  0  0  0  0  0  0  0  0  0  0  0
   -0.6110    9.7705  -13.8936 C   0  0  0  0  0  0  0  0  0  0  0  0
    0.1351    8.9049  -13.0859 N   0  0  0  0  0  0  0  0  0  0  0  0
   -0.4910    7.8944  -12.1920 C   0  0  0  0  0  0  0  0  0  0  0  0
    0.6291    7.4548  -11.2725 C   0  0  0  0  0  0  0  0  0  0  0  0
    1.6867    6.7684  -12.0959 C   0  0  0  0  0  0  0  0  0  0  0  0
    2.3691    7.7861  -12.9851 C   0  0  0  0  0  0  0  0  0  0  0  0
    1.5624    9.0400  -13.0339 C   0  0  0  0  0  0  0  0  0  0  0  0
    2.1608   10.2289  -12.9300 C   0  0  0  0  0  0  0  0  0  0  0  0
    3.5932   10.3440  -12.8917 N   0  0  0  0  0  0  0  0  0  0  0  0
    3.9474   11.6938  -12.7145 N   0  0  0  0  0  0  0  0  0  0  0  0
    2.7599   12.4500  -12.6388 C   0  0  0  0  0  0  0  0  0  0  0  0
    2.6091   13.6834  -12.4858 O   0  0  0  0  0  0  0  0  0  0  0  0
    1.6692   11.5210  -12.7735 N   0  0  0  0  0  0  0  0  0  0  0  0
    4.3430    9.6304  -12.9739 H   0  0  0  0  0  0  0  0  0  0  0  0
    4.9120   12.1036  -12.6472 H   0  0  0  0  0  0  0  0  0  0  0  0
    0.6729   11.7914  -12.7317 H   0  0  0  0  0  0  0  0  0  0  0  0
 11 12  1  0  0  0
 12 13  2  0  0  0
 12 17  1  0  0  0
 13 14  1  0  0  0
 13 10  1  0  0  0
 14 15  2  0  0  0
 15 16  1  0  0  0
 16 17  2  0  0  0
 10  5  1  0  0  0
  5  6  1  0  0  0
  5  9  1  0  0  0
  6  7  2  0  0  0
  7  8  1  0  0  0
  8  9  2  0  0  0
  9  1  1  0  0  0
  1  2  1  0  0  0
  2  3  2  0  0  0
  2 18  1  0  0  0
 18 19  1  0  0  0
 19 20  1  0  0  0
 19 24  1  0  0  0
 20 21  1  0  0  0
 21 22  1  0  0  0
 22 23  1  0  0  0
 23 24  1  0  0  0
 24 25  2  0  0  0
 25 26  1  0  0  0
 25 30  1  0  0  0
 26 27  1  0  0  0
 27 28  1  0  0  0
 28 29  2  0  0  0
 28 30  1  0  0  0
  1  4  1  0  0  0
 26 31  1  0  0  0
 27 32  1  0  0  0
 30 33  1  0  0  0
M  END
> <minimizedAffinity>
-10.15705

$$$$
1447


 38 41  0  0  0  0  0  0  0  0999 V2000
    6.5585    6.8006  -13.7655 C   0  0  0  0  0  0  0  0  0  0  0  0
    7.6912    7.4809  -14.1367 N   0  0  0  0  0  0  0  0  0  0  0  0
    8.7409    6.7584  -13.8590 N   0  0  0  0  0  0  0  0  0  0  0  0
    8.4016    5.6037  -13.3122 N   0  0  0  0  0  0  0  0  0  0  0  0
    7.0597    5.6044  -13.2409 C   0  0  0  0  0  0  0  0  0  0  0  0
    9.3294    4.6018  -12.9356 C   0  0  0  0  0  0  0  0  0  0  0  0
   10.0838    4.5075  -11.8198 N   0  0  0  0  0  0  0  0  0  0  0  0
   10.8003    3.4155  -11.8611 O   0  0  0  0  0  0  0  0  0  0  0  0
   10.5645    2.7567  -12.9669 N   0  0  0  0  0  0  0  0  0  0  0  0
    9.6554    3.4641  -13.6582 C   0  0  0  0  0  0  0  0  0  0  0  0
    9.1383    3.0802  -14.9144 N   0  0  0  0  0  0  0  0  0  0  0  0
    8.4961    2.2686  -14.9642 H   0  0  0  0  0  0  0  0  0  0  0  0
    9.3748    3.5780  -15.7915 H   0  0  0  0  0  0  0  0  0  0  0  0
    4.0599    6.9318  -13.2112 N   0  0  0  0  0  0  0  0  0  0  0  0
    5.2014    7.2907  -13.9151 C   0  0  0  0  0  0  0  0  0  0  0  0
    5.0547    8.1812  -14.8345 O   0  0  0  0  0  0  0  0  0  0  0  0
    3.9849    6.2284  -12.4384 H   0  0  0  0  0  0  0  0  0  0  0  0
    1.7286    7.1748  -13.0624 C   0  0  0  0  0  0  0  0  0  0  0  0
    2.8339    7.5868  -13.5732 N   0  0  0  0  0  0  0  0  0  0  0  0
   -1.2257   11.5696  -13.3813 Br  0  0  0  0  0  0  0  0  0  0  0  0
   -1.0101    9.6944  -13.5427 C   0  0  0  0  0  0  0  0  0  0  0  0
   -2.0618    8.9173  -13.9316 C   0  0  0  0  0  0  0  0  0  0  0  0
   -1.8727    7.5420  -14.0399 C   0  0  0  0  0  0  0  0  0  0  0  0
   -0.6268    6.9943  -13.7511 C   0  0  0  0  0  0  0  0  0  0  0  0
    0.4336    7.7671  -13.3600 C   0  0  0  0  0  0  0  0  0  0  0  0
    0.2321    9.1255  -13.2571 C   0  0  0  0  0  0  0  0  0  0  0  0
    1.3127    9.8982  -12.8606 O   0  0  0  0  0  0  0  0  0  0  0  0
   -3.3134    6.4341  -14.5786 Br  0  0  0  0  0  0  0  0  0  0  0  0
   -3.3117    9.4433  -14.2244 O   0  0  0  0  0  0  0  0  0  0  0  0
    1.2153   10.9017  -12.7699 H   0  0  0  0  0  0  0  0  0  0  0  0
   -4.0722    8.8479  -14.5087 H   0  0  0  0  0  0  0  0  0  0  0  0
    6.2042    4.5253  -12.7385 C   0  0  0  0  0  0  0  0  0  0  0  0
    6.0931    3.3742  -13.6385 N   0  0  0  0  0  0  0  0  0  0  0  0
    4.7182    3.3299  -14.1737 C   0  0  0  0  0  0  0  0  0  0  0  0
    3.7396    3.5094  -13.0661 C   0  0  0  0  0  0  0  0  0  0  0  0
    3.9849    2.5868  -12.0790 O   0  0  0  0  0  0  0  0  0  0  0  0
    4.8963    1.6221  -12.4194 C   0  0  0  0  0  0  0  0  0  0  0  0
    6.2495    2.1428  -12.8285 C   0  0  0  0  0  0  0  0  0  0  0  0
 20 21  1  0  0  0
 21 22  2  0  0  0
 21 26  1  0  0  0
 22 23  1  0  0  0
 22 29  1  0  0  0
 23 24  2  0  0  0
 23 28  1  0  0  0
 24 25  1  0  0  0
 25 26  2  0  0  0
 25 18  1  0  0  0
 26 27  1  0  0  0
 18 19  2  0  0  0
 19 14  1  0  0  0
 14 15  1  0  0  0
 15 16  2  0  0  0
 15  1  1  0  0  0
  1  2  1  0  0  0
  1  5  2  0  0  0
  2  3  2  0  0  0
  3  4  1  0  0  0
  4  5  1  0  0  0
  4  6  1  0  0  0
  5 32  1  0  0  0
 32 33  1  0  0  0
 33 34  1  0  0  0
 33 38  1  0  0  0
 34 35  1  0  0  0
 35 36  1  0  0  0
 36 37  1  0  0  0
 37 38  1  0  0  0
  6  7  2  0  0  0
  6 10  1  0  0  0
  7  8  1  0  0  0
  8  9  1  0  0  0
  9 10  2  0  0  0
 10 11  1  0  0  0
 27 30  1  0  0  0
 14 17  1  0  0  0
 11 12  1  0  0  0
 11 13  1  0  0  0
 29 31  1  0  0  0
M  END
> <minimizedAffinity>
-7.88135

$$$$
1466


 29 32  0  0  0  0  0  0  0  0999 V2000
    0.7824   15.5714  -12.0848 N   0  0  0  0  0  0  0  0  0  0  0  0
    0.2610   15.0807  -13.1967 N   0  0  0  0  0  0  0  0  0  0  0  0
   -0.8331   15.7507  -13.5319 N   0  0  0  0  0  0  0  0  0  0  0  0
   -1.0565   16.7159  -12.6263 C   0  0  0  0  0  0  0  0  0  0  0  0
   -0.0324   16.5956  -11.7163 C   0  0  0  0  0  0  0  0  0  0  0  0
   -2.1419   17.6800  -12.6062 C   0  0  0  0  0  0  0  0  0  0  0  0
   -2.6148   18.3499  -11.5400 N   0  0  0  0  0  0  0  0  0  0  0  0
   -3.6223   19.1484  -11.9279 C   0  0  0  0  0  0  0  0  0  0  0  0
   -3.7538   18.9527  -13.2495 N   0  0  0  0  0  0  0  0  0  0  0  0
   -2.8658   18.0809  -13.6179 O   0  0  0  0  0  0  0  0  0  0  0  0
   -4.4220   20.0553  -11.0762 C   0  0  0  0  0  0  0  0  0  0  0  0
   -5.7258   20.3369  -11.4126 C   0  0  0  0  0  0  0  0  0  0  0  0
   -6.4637   21.1608  -10.6441 N   0  0  0  0  0  0  0  0  0  0  0  0
   -5.9868   21.7467   -9.5271 C   0  0  0  0  0  0  0  0  0  0  0  0
   -4.6769   21.4571   -9.1976 C   0  0  0  0  0  0  0  0  0  0  0  0
   -3.8913   20.6244   -9.9511 C   0  0  0  0  0  0  0  0  0  0  0  0
    1.9856   15.1258  -11.3727 C   0  0  0  0  0  0  0  0  0  0  0  0
    2.7607   14.2745  -12.3532 C   0  0  0  0  0  0  0  0  0  0  0  0
    2.9055   11.9365  -13.1213 C   0  0  0  0  0  0  0  0  0  0  0  0
    4.0810   12.1889  -13.5470 O   0  0  0  0  0  0  0  0  0  0  0  0
    2.1511   12.9606  -12.4897 N   0  0  0  0  0  0  0  0  0  0  0  0
    1.1922   12.7697  -12.1372 H   0  0  0  0  0  0  0  0  0  0  0  0
   -1.2095    8.5004  -13.4298 Br  0  0  0  0  0  0  0  0  0  0  0  0
    0.6415    8.9692  -13.4677 C   0  0  0  0  0  0  0  0  0  0  0  0
    1.5683    7.9749  -13.6873 C   0  0  0  0  0  0  0  0  0  0  0  0
    2.8877    8.2749  -13.7187 N   0  0  0  0  0  0  0  0  0  0  0  0
    3.2601    9.5549  -13.5327 C   0  0  0  0  0  0  0  0  0  0  0  0
    2.3942   10.5870  -13.3102 C   0  0  0  0  0  0  0  0  0  0  0  0
    1.0456   10.2908  -13.2760 C   0  0  0  0  0  0  0  0  0  0  0  0
 23 24  1  0  0  0
 24 25  2  0  0  0
 24 29  1  0  0  0
 25 26  1  0  0  0
 26 27  2  0  0  0
 27 28  1  0  0  0
 28 29  2  0  0  0
 28 19  1  0  0  0
 19 20  2  0  0  0
 19 21  1  0  0  0
 21 18  1  0  0  0
 18 17  1  0  0  0
 17  1  1  0  0  0
  1  2  1  0  0  0
  1  5  1  0  0  0
  2  3  2  0  0  0
  3  4  1  0  0  0
  4  5  2  0  0  0
  4  6  1  0  0  0
  6  7  2  0  0  0
  6 10  1  0  0  0
  7  8  1  0  0  0
  8  9  2  0  0  0
  8 11  1  0  0  0
  9 10  1  0  0  0
 11 12  2  0  0  0
 11 16  1  0  0  0
 12 13  1  0  0  0
 13 14  2  0  0  0
 14 15  1  0  0  0
 15 16  2  0  0  0
 21 22  1  0  0  0
M  END
> <minimizedAffinity>
-9.81147

$$$$
1471


 31 34  0  0  0  0  0  0  0  0999 V2000
    2.2013    8.2987  -14.0873 C   0  0  0  0  0  0  0  0  0  0  0  0
    0.8337    8.2887  -14.1009 C   0  0  0  0  0  0  0  0  0  0  0  0
    0.0666    7.2697  -13.6053 N   0  0  0  0  0  0  0  0  0  0  0  0
    0.7030    6.2282  -13.0794 C   0  0  0  0  0  0  0  0  0  0  0  0
    2.0694    6.1473  -13.0201 C   0  0  0  0  0  0  0  0  0  0  0  0
    2.8677    7.2371  -13.5496 C   0  0  0  0  0  0  0  0  0  0  0  0
    4.1526    6.8851  -13.3563 N   0  0  0  0  0  0  0  0  0  0  0  0
    4.2135    5.7025  -12.7679 N   0  0  0  0  0  0  0  0  0  0  0  0
    2.9830    5.2220  -12.5470 C   0  0  0  0  0  0  0  0  0  0  0  0
    2.6307    4.1287  -12.0081 O   0  0  0  0  0  0  0  0  0  0  0  0
    5.0787    5.1621  -12.4862 H   0  0  0  0  0  0  0  0  0  0  0  0
    2.8760   12.4927  -12.6499 N   0  0  0  0  0  0  0  0  0  0  0  0
    4.0429   12.6733  -13.4730 C   0  0  0  0  0  0  0  0  0  0  0  0
    4.3629   11.4711  -14.3255 C   0  0  0  0  0  0  0  0  0  0  0  0
    3.6226   10.3489  -13.8147 N   0  0  0  0  0  0  0  0  0  0  0  0
    3.5849   10.1696  -12.3860 C   0  0  0  0  0  0  0  0  0  0  0  0
    2.6738   11.2797  -11.8438 C   0  0  0  0  0  0  0  0  0  0  0  0
    2.9406    9.4243  -14.6357 C   0  0  0  0  0  0  0  0  0  0  0  0
    2.9442    9.5383  -15.8966 O   0  0  0  0  0  0  0  0  0  0  0  0
    0.2228   11.7087  -13.8360 Cl  0  0  0  0  0  0  0  0  0  0  0  0
    0.6030   13.2580  -13.0774 C   0  0  0  0  0  0  0  0  0  0  0  0
    1.8685   13.4739  -12.5773 C   0  0  0  0  0  0  0  0  0  0  0  0
    2.1357   14.6829  -11.9951 C   0  0  0  0  0  0  0  0  0  0  0  0
    1.1894   15.6911  -11.8920 C   0  0  0  0  0  0  0  0  0  0  0  0
   -0.0833   15.4329  -12.4126 C   0  0  0  0  0  0  0  0  0  0  0  0
   -0.3744   14.2273  -13.0010 C   0  0  0  0  0  0  0  0  0  0  0  0
   -1.3827    7.3461  -13.7054 C   0  0  0  0  0  0  0  0  0  0  0  0
   -2.0367    6.2593  -14.4351 C   0  0  0  0  0  0  0  0  0  0  0  0
   -3.0792    6.4518  -15.4449 C   0  0  0  0  0  0  0  0  0  0  0  0
   -3.8518    7.5500  -15.4740 O   0  0  0  0  0  0  0  0  0  0  0  0
   -5.1438    7.5575  -15.1398 C   0  0  0  0  0  0  0  0  0  0  0  0
 20 21  1  0  0  0
 21 22  2  0  0  0
 21 26  1  0  0  0
 22 23  1  0  0  0
 22 12  1  0  0  0
 23 24  2  0  0  0
 24 25  1  0  0  0
 25 26  2  0  0  0
 12 13  1  0  0  0
 12 17  1  0  0  0
 13 14  1  0  0  0
 14 15  1  0  0  0
 15 16  1  0  0  0
 15 18  1  0  0  0
 16 17  1  0  0  0
 18 19  2  0  0  0
 18  1  1  0  0  0
  1  2  2  0  0  0
  1  6  1  0  0  0
  2  3  1  0  0  0
  3  4  1  0  0  0
  3 27  1  0  0  0
  4  5  2  0  0  0
  5  6  1  0  0  0
  5  9  1  0  0  0
  6  7  2  0  0  0
  7  8  1  0  0  0
  8  9  1  0  0  0
  9 10  2  0  0  0
 27 28  1  0  0  0
 28 29  1  0  0  0
 29 30  1  0  0  0
 30 31  1  0  0  0
  8 11  1  0  0  0
M  END
> <minimizedAffinity>
-7.78183

$$$$
1477


 35 39  0  0  0  0  0  0  0  0999 V2000
    1.8559    7.9504  -13.1633 C   0  0  0  0  0  0  0  0  0  0  0  0
    1.8938    9.1524  -13.8735 N   0  0  0  0  0  0  0  0  0  0  0  0
    3.0352    9.0768  -14.7805 C   0  0  0  0  0  0  0  0  0  0  0  0
    3.3471    9.8851  -15.6908 O   0  0  0  0  0  0  0  0  0  0  0  0
    3.8159    7.8853  -14.4858 C   0  0  0  0  0  0  0  0  0  0  0  0
    4.8746    7.5050  -15.0887 O   0  0  0  0  0  0  0  0  0  0  0  0
    3.1507    7.2308  -13.3909 C   0  0  0  0  0  0  0  0  0  0  0  0
    3.5930    6.1660  -12.7543 C   0  0  0  0  0  0  0  0  0  0  0  0
    2.7288    5.6609  -11.7545 O   0  0  0  0  0  0  0  0  0  0  0  0
    4.8575    5.4917  -12.9814 C   0  0  0  0  0  0  0  0  0  0  0  0
    6.1344    5.8912  -12.8755 N   0  0  0  0  0  0  0  0  0  0  0  0
    7.0060    4.9367  -13.2343 C   0  0  0  0  0  0  0  0  0  0  0  0
    6.2576    3.8686  -13.5891 N   0  0  0  0  0  0  0  0  0  0  0  0
    4.9629    4.1638  -13.4502 C   0  0  0  0  0  0  0  0  0  0  0  0
    3.8212    3.2813  -13.7280 C   0  0  0  0  0  0  0  0  0  0  0  0
    8.3738    5.1275  -13.1867 C   0  0  0  0  0  0  0  0  0  0  0  0
    8.8585    6.3346  -12.7602 C   0  0  0  0  0  0  0  0  0  0  0  0
    7.9611    7.3179  -12.3898 C   0  0  0  0  0  0  0  0  0  0  0  0
    6.6054    7.0945  -12.4486 C   0  0  0  0  0  0  0  0  0  0  0  0
   -2.6865    6.5051  -15.5361 Br  0  0  0  0  0  0  0  0  0  0  0  0
   -1.3352    6.3083  -14.2183 C   0  0  0  0  0  0  0  0  0  0  0  0
   -0.2804    7.1920  -14.1552 C   0  0  0  0  0  0  0  0  0  0  0  0
    0.7213    7.0486  -13.1859 C   0  0  0  0  0  0  0  0  0  0  0  0
    0.5572    5.9798  -12.3324 C   0  0  0  0  0  0  0  0  0  0  0  0
   -0.4709    5.0831  -12.3587 C   0  0  0  0  0  0  0  0  0  0  0  0
   -1.4399    5.2563  -13.3304 C   0  0  0  0  0  0  0  0  0  0  0  0
    1.0916   10.3117  -13.7283 C   0  0  0  0  0  0  0  0  0  0  0  0
    1.4639   11.3903  -12.8158 C   0  0  0  0  0  0  0  0  0  0  0  0
    2.1937   12.5306  -13.2865 N   0  0  0  0  0  0  0  0  0  0  0  0
    1.5772   13.7061  -12.6710 C   0  0  0  0  0  0  0  0  0  0  0  0
    2.1788   14.0499  -11.3464 C   0  0  0  0  0  0  0  0  0  0  0  0
    2.9957   13.0089  -10.8792 O   0  0  0  0  0  0  0  0  0  0  0  0
    4.0474   12.9432  -11.7655 C   0  0  0  0  0  0  0  0  0  0  0  0
    3.6003   12.4361  -13.0863 C   0  0  0  0  0  0  0  0  0  0  0  0
    2.0285   12.7014  -14.3229 H   0  0  0  0  0  0  0  0  0  0  0  0
 20 21  1  0  0  0
 21 22  2  0  0  0
 21 26  1  0  0  0
 22 23  1  0  0  0
 23 24  2  0  0  0
 23  1  1  0  0  0
 24 25  1  0  0  0
 25 26  2  0  0  0
  1  2  1  0  0  0
  1  7  1  0  0  0
  2  3  1  0  0  0
  2 27  1  0  0  0
  3  4  2  0  0  0
  3  5  1  0  0  0
  5  6  2  0  0  0
  5  7  1  0  0  0
  7  8  2  0  0  0
  8  9  1  0  0  0
  8 10  1  0  0  0
 10 11  1  0  0  0
 10 14  2  0  0  0
 11 12  1  0  0  0
 11 19  1  0  0  0
 12 13  2  0  0  0
 12 16  1  0  0  0
 13 14  1  0  0  0
 14 15  1  0  0  0
 16 17  2  0  0  0
 17 18  1  0  0  0
 18 19  2  0  0  0
 27 28  1  0  0  0
 28 29  1  0  0  0
 29 30  1  0  0  0
 29 34  1  0  0  0
 30 31  1  0  0  0
 31 32  1  0  0  0
 32 33  1  0  0  0
 33 34  1  0  0  0
 29 35  1  0  0  0
M  CHG 1   9  -1
M  CHG 1  29   1
M  END
> <minimizedAffinity>
-8.49333

$$$$
1486


 31 34  0  0  0  0  0  0  0  0999 V2000
    2.9463    6.7424  -13.0652 N   0  0  0  0  0  0  0  0  0  0  0  0
    2.7338    8.0194  -13.2880 N   0  0  0  0  0  0  0  0  0  0  0  0
    3.8052    8.5820  -13.8663 C   0  0  0  0  0  0  0  0  0  0  0  0
    4.7239    7.6157  -14.0096 N   0  0  0  0  0  0  0  0  0  0  0  0
    4.1791    6.4693  -13.5055 C   0  0  0  0  0  0  0  0  0  0  0  0
    4.8261    5.1594  -13.4544 C   0  0  0  0  0  0  0  0  0  0  0  0
    6.1231    5.1709  -12.6803 C   0  0  0  0  0  0  0  0  0  0  0  0
    7.2268    5.8767  -13.4367 C   0  0  0  0  0  0  0  0  0  0  0  0
    7.0376    7.3604  -13.5082 C   0  0  0  0  0  0  0  0  0  0  0  0
    6.0444    7.7640  -14.5887 C   0  0  0  0  0  0  0  0  0  0  0  0
    2.0373    5.8124  -12.4646 C   0  0  0  0  0  0  0  0  0  0  0  0
    0.7925    6.4783  -11.9975 C   0  0  0  0  0  0  0  0  0  0  0  0
    0.7639    6.8904  -10.8075 O   0  0  0  0  0  0  0  0  0  0  0  0
   -4.1521    7.3510  -15.5894 Br  0  0  0  0  0  0  0  0  0  0  0  0
   -2.6105    7.0875  -14.4680 C   0  0  0  0  0  0  0  0  0  0  0  0
   -2.0932    5.8150  -14.2962 C   0  0  0  0  0  0  0  0  0  0  0  0
   -0.9789    5.6177  -13.4864 C   0  0  0  0  0  0  0  0  0  0  0  0
   -0.3669    6.6679  -12.8423 C   0  0  0  0  0  0  0  0  0  0  0  0
   -0.9076    7.9195  -13.0348 C   0  0  0  0  0  0  0  0  0  0  0  0
   -2.0062    8.1431  -13.8280 C   0  0  0  0  0  0  0  0  0  0  0  0
    3.9768    9.9822  -14.2779 C   0  0  0  0  0  0  0  0  0  0  0  0
    3.7709   10.9016  -13.2011 N   0  0  0  0  0  0  0  0  0  0  0  0
    4.4740   10.9871  -12.4527 H   0  0  0  0  0  0  0  0  0  0  0  0
    2.6169   11.7299  -13.0984 C   0  0  0  0  0  0  0  0  0  0  0  0
    1.3935   11.3525  -13.6040 C   0  0  0  0  0  0  0  0  0  0  0  0
    0.2882   12.1564  -13.4946 C   0  0  0  0  0  0  0  0  0  0  0  0
    0.3926   13.3607  -12.8725 C   0  0  0  0  0  0  0  0  0  0  0  0
    1.6154   13.7422  -12.3657 C   0  0  0  0  0  0  0  0  0  0  0  0
    2.7338   12.9413  -12.4691 C   0  0  0  0  0  0  0  0  0  0  0  0
   -0.6981   14.1878  -12.7489 O   0  0  0  0  0  0  0  0  0  0  0  0
   -0.6807   15.5396  -13.1352 C   0  0  0  0  0  0  0  0  0  0  0  0
 14 15  1  0  0  0
 15 16  2  0  0  0
 15 20  1  0  0  0
 16 17  1  0  0  0
 17 18  2  0  0  0
 18 19  1  0  0  0
 18 12  1  0  0  0
 19 20  2  0  0  0
 12 13  2  0  0  0
 12 11  1  0  0  0
 11  1  1  0  0  0
  1  2  1  0  0  0
  1  5  2  0  0  0
  2  3  2  0  0  0
  3  4  1  0  0  0
  3 21  1  0  0  0
  4  5  1  0  0  0
  4 10  1  0  0  0
  5  6  1  0  0  0
  6  7  1  0  0  0
  7  8  1  0  0  0
  8  9  1  0  0  0
  9 10  1  0  0  0
 21 22  1  0  0  0
 22 24  1  0  0  0
 24 25  2  0  0  0
 24 29  1  0  0  0
 25 26  1  0  0  0
 26 27  2  0  0  0
 27 28  1  0  0  0
 27 30  1  0  0  0
 28 29  2  0  0  0
 30 31  1  0  0  0
 22 23  1  0  0  0
M  END
> <minimizedAffinity>
-9.39685

$$$$
1487


 29 32  0  0  0  0  0  0  0  0999 V2000
    3.9599    7.4282  -14.5610 N   0  0  0  0  0  0  0  0  0  0  0  0
    4.0676    8.8337  -14.8621 C   0  0  0  0  0  0  0  0  0  0  0  0
    2.8352    9.5573  -14.5143 C   0  0  0  0  0  0  0  0  0  0  0  0
    1.9654    8.5236  -14.0292 N   0  0  0  0  0  0  0  0  0  0  0  0
    0.5285    8.4342  -13.9176 C   0  0  0  0  0  0  0  0  0  0  0  0
    0.0119    8.2398  -12.5283 C   0  0  0  0  0  0  0  0  0  0  0  0
    1.0462    7.9288  -11.5037 C   0  0  0  0  0  0  0  0  0  0  0  0
    1.4821    6.4588  -11.6974 C   0  0  0  0  0  0  0  0  0  0  0  0
    2.6349    6.5464  -12.6815 C   0  0  0  0  0  0  0  0  0  0  0  0
    2.8212    7.4101  -13.6532 C   0  0  0  0  0  0  0  0  0  0  0  0
    2.2330   10.0627  -15.7001 O   0  0  0  0  0  0  0  0  0  0  0  0
    3.7283    6.8006  -15.3232 H   0  0  0  0  0  0  0  0  0  0  0  0
    2.9821   10.1074  -16.3815 H   0  0  0  0  0  0  0  0  0  0  0  0
    8.4952    8.0945  -12.1294 Cl  0  0  0  0  0  0  0  0  0  0  0  0
    7.1903    7.0756  -12.7187 C   0  0  0  0  0  0  0  0  0  0  0  0
    6.0874    7.6361  -13.3578 C   0  0  0  0  0  0  0  0  0  0  0  0
    5.0340    6.8806  -13.8105 C   0  0  0  0  0  0  0  0  0  0  0  0
    5.1319    5.5007  -13.5953 C   0  0  0  0  0  0  0  0  0  0  0  0
    6.2240    4.9213  -12.9589 C   0  0  0  0  0  0  0  0  0  0  0  0
    7.2524    5.7114  -12.5195 C   0  0  0  0  0  0  0  0  0  0  0  0
    2.9581   10.6964  -13.6374 C   0  0  0  0  0  0  0  0  0  0  0  0
    1.9385   11.6282  -13.4420 C   0  0  0  0  0  0  0  0  0  0  0  0
    2.0534   12.7088  -12.5784 C   0  0  0  0  0  0  0  0  0  0  0  0
    3.2435   12.8730  -11.8696 C   0  0  0  0  0  0  0  0  0  0  0  0
    4.2669   11.9845  -12.0328 C   0  0  0  0  0  0  0  0  0  0  0  0
    4.1120   10.9039  -12.9156 C   0  0  0  0  0  0  0  0  0  0  0  0
    0.9783   13.6144  -12.4299 N   0  0  0  0  0  0  0  0  0  0  0  0
    1.1464   14.6842  -11.7654 O   0  0  0  0  0  0  0  0  0  0  0  0
   -0.2424   13.4100  -12.9554 O   0  0  0  0  0  0  0  0  0  0  0  0
 14 15  1  0  0  0
 15 16  2  0  0  0
 15 20  1  0  0  0
 16 17  1  0  0  0
 17 18  2  0  0  0
 17  1  1  0  0  0
 18 19  1  0  0  0
 19 20  2  0  0  0
  1  2  1  0  0  0
  1 10  1  0  0  0
  2  3  1  0  0  0
  3  4  1  0  0  0
  3 11  1  0  0  0
  3 21  1  0  0  0
  4  5  1  0  0  0
  4 10  1  0  0  0
  5  6  1  0  0  0
  6  7  1  0  0  0
  7  8  1  0  0  0
  8  9  1  0  0  0
  9 10  2  0  0  0
 21 22  2  0  0  0
 21 26  1  0  0  0
 22 23  1  0  0  0
 23 24  2  0  0  0
 23 27  1  0  0  0
 24 25  1  0  0  0
 25 26  2  0  0  0
 27 28  2  0  0  0
 27 29  1  0  0  0
  1 12  1  0  0  0
 11 13  1  0  0  0
M  CHG 1   1   1
M  CHG 1  29  -1
M  END
> <minimizedAffinity>
-9.41345

$$$$
1491


 34 38  0  0  0  0  0  0  0  0999 V2000
    1.7881    3.9735  -12.1233 F   0  0  0  0  0  0  0  0  0  0  0  0
    3.0033    4.4533  -12.4431 C   0  0  0  0  0  0  0  0  0  0  0  0
    3.9306    3.4722  -12.7819 C   0  0  0  0  0  0  0  0  0  0  0  0
    5.2149    3.8180  -13.1393 C   0  0  0  0  0  0  0  0  0  0  0  0
    5.5456    5.1523  -13.1516 C   0  0  0  0  0  0  0  0  0  0  0  0
    4.6039    6.1180  -12.8110 C   0  0  0  0  0  0  0  0  0  0  0  0
    3.3248    5.7871  -12.4525 C   0  0  0  0  0  0  0  0  0  0  0  0
    6.8078    5.4671  -13.5060 N   0  0  0  0  0  0  0  0  0  0  0  0
    7.7218    4.5374  -13.8370 C   0  0  0  0  0  0  0  0  0  0  0  0
    7.4222    3.1930  -13.8340 C   0  0  0  0  0  0  0  0  0  0  0  0
    6.1454    2.8264  -13.4790 C   0  0  0  0  0  0  0  0  0  0  0  0
    5.8062    1.6197  -13.4566 O   0  0  0  0  0  0  0  0  0  0  0  0
    2.4120    6.7837  -12.1082 N   0  0  0  0  0  0  0  0  0  0  0  0
    1.0305    6.3770  -12.0662 C   0  0  0  0  0  0  0  0  0  0  0  0
    0.1589    7.5367  -11.5289 C   0  0  0  0  0  0  0  0  0  0  0  0
    0.2835    8.5727  -12.4768 N   0  0  0  0  0  0  0  0  0  0  0  0
    1.6878    9.1393  -12.4480 C   0  0  0  0  0  0  0  0  0  0  0  0
    2.5221    7.9745  -12.8852 C   0  0  0  0  0  0  0  0  0  0  0  0
   -0.5564    9.0973  -13.4001 C   0  0  0  0  0  0  0  0  0  0  0  0
   -0.0896   10.1291  -14.0615 O   0  0  0  0  0  0  0  0  0  0  0  0
    2.6475    7.0681  -11.1075 H   0  0  0  0  0  0  0  0  0  0  0  0
   -1.8870    8.7250  -13.7925 C   0  0  0  0  0  0  0  0  0  0  0  0
   -2.9715    9.5342  -13.6869 C   0  0  0  0  0  0  0  0  0  0  0  0
   -4.2310    9.1516  -14.1309 C   0  0  0  0  0  0  0  0  0  0  0  0
   -4.3933    7.9125  -14.6947 C   0  0  0  0  0  0  0  0  0  0  0  0
   -3.3351    7.0580  -14.8232 C   0  0  0  0  0  0  0  0  0  0  0  0
   -2.1127    7.4626  -14.3796 C   0  0  0  0  0  0  0  0  0  0  0  0
   -5.6120   10.2398  -13.9749 Cl  0  0  0  0  0  0  0  0  0  0  0  0
    8.4366    2.1859  -14.1991 C   0  0  0  0  0  0  0  0  0  0  0  0
    9.2845    1.7711  -13.3933 O   0  0  0  0  0  0  0  0  0  0  0  0
    8.4275    1.6967  -15.4856 O   0  0  0  0  0  0  0  0  0  0  0  0
    7.1426    6.8960  -13.5130 C   0  0  0  0  0  0  0  0  0  0  0  0
    8.5285    7.3469  -13.6728 C   0  0  0  0  0  0  0  0  0  0  0  0
    8.0256    7.3354  -12.2983 C   0  0  0  0  0  0  0  0  0  0  0  0
  1  2  1  0  0  0
  2  3  2  0  0  0
  2  7  1  0  0  0
  3  4  1  0  0  0
  4  5  2  0  0  0
  4 11  1  0  0  0
  5  6  1  0  0  0
  5  8  1  0  0  0
  6  7  2  0  0  0
  7 13  1  0  0  0
 13 14  1  0  0  0
 13 18  1  0  0  0
 14 15  1  0  0  0
 15 16  1  0  0  0
 16 17  1  0  0  0
 16 19  1  0  0  0
 17 18  1  0  0  0
 19 20  2  0  0  0
 19 22  1  0  0  0
 22 23  2  0  0  0
 22 27  1  0  0  0
 23 24  1  0  0  0
 24 25  2  0  0  0
 24 28  1  0  0  0
 25 26  1  0  0  0
 26 27  2  0  0  0
  8  9  1  0  0  0
  8 32  1  0  0  0
  9 10  2  0  0  0
 10 11  1  0  0  0
 10 29  1  0  0  0
 11 12  2  0  0  0
 29 30  2  0  0  0
 29 31  1  0  0  0
 32 33  1  0  0  0
 32 34  1  0  0  0
 33 34  1  0  0  0
 13 21  1  0  0  0
M  CHG 1  13   1
M  END
> <minimizedAffinity>
-9.50376

$$$$
1506


 32 35  0  0  0  0  0  0  0  0999 V2000
    1.2423   12.8535  -12.5341 N   0  0  0  0  0  0  0  0  0  0  0  0
    2.6218   12.5363  -12.8074 C   0  0  0  0  0  0  0  0  0  0  0  0
    3.4635   13.4482  -12.8034 O   0  0  0  0  0  0  0  0  0  0  0  0
    0.6142   12.0540  -12.5249 H   0  0  0  0  0  0  0  0  0  0  0  0
    3.0566   11.1484  -13.0920 C   0  0  0  0  0  0  0  0  0  0  0  0
    2.5235   10.7608  -14.4532 C   0  0  0  0  0  0  0  0  0  0  0  0
    1.0280   10.5840  -14.3140 C   0  0  0  0  0  0  0  0  0  0  0  0
    0.8484    9.3702  -13.5229 N   0  0  0  0  0  0  0  0  0  0  0  0
    1.7683    9.0554  -12.4832 C   0  0  0  0  0  0  0  0  0  0  0  0
    2.6517   10.1694  -12.0528 C   0  0  0  0  0  0  0  0  0  0  0  0
   -0.2577    8.5462  -13.8344 C   0  0  0  0  0  0  0  0  0  0  0  0
   -1.5154    9.0170  -13.9369 N   0  0  0  0  0  0  0  0  0  0  0  0
   -2.5584    8.2613  -14.2249 N   0  0  0  0  0  0  0  0  0  0  0  0
   -3.8490    8.5453  -14.3659 N   0  0  0  0  0  0  0  0  0  0  0  0
   -4.5269    7.4676  -14.6568 N   0  0  0  0  0  0  0  0  0  0  0  0
   -3.6818    6.4602  -14.7112 N   0  0  0  0  0  0  0  0  0  0  0  0
   -2.4514    6.9457  -14.4422 C   0  0  0  0  0  0  0  0  0  0  0  0
   -1.1834    6.4004  -14.3506 C   0  0  0  0  0  0  0  0  0  0  0  0
   -0.0913    7.1891  -14.0497 C   0  0  0  0  0  0  0  0  0  0  0  0
    0.9310   14.2034  -12.2734 C   0  0  0  0  0  0  0  0  0  0  0  0
   -0.1105   14.9246  -13.0226 C   0  0  0  0  0  0  0  0  0  0  0  0
   -1.5687   17.0160  -12.8995 C   0  0  0  0  0  0  0  0  0  0  0  0
   -1.8024   17.1229  -14.1222 O   0  0  0  0  0  0  0  0  0  0  0  0
   -0.7875   15.9903  -12.3884 N   0  0  0  0  0  0  0  0  0  0  0  0
   -0.6946   16.0547  -11.2822 H   0  0  0  0  0  0  0  0  0  0  0  0
   -4.1540   21.2256   -9.4648 Cl  0  0  0  0  0  0  0  0  0  0  0  0
   -3.3852   19.9974  -10.4571 C   0  0  0  0  0  0  0  0  0  0  0  0
   -3.9988   19.5744  -11.6245 C   0  0  0  0  0  0  0  0  0  0  0  0
   -3.3891   18.6131  -12.3956 C   0  0  0  0  0  0  0  0  0  0  0  0
   -2.1804   18.0558  -12.0388 C   0  0  0  0  0  0  0  0  0  0  0  0
   -1.5928   18.4894  -10.8795 C   0  0  0  0  0  0  0  0  0  0  0  0
   -2.1839   19.4641  -10.0723 C   0  0  0  0  0  0  0  0  0  0  0  0
 26 27  1  0  0  0
 27 28  2  0  0  0
 27 32  1  0  0  0
 28 29  1  0  0  0
 29 30  2  0  0  0
 30 31  1  0  0  0
 30 22  1  0  0  0
 31 32  2  0  0  0
 22 23  2  0  0  0
 22 24  1  0  0  0
 24 21  1  0  0  0
 21 20  1  0  0  0
 20  1  1  0  0  0
  1  2  1  0  0  0
  2  3  2  0  0  0
  2  5  1  0  0  0
  5  6  1  0  0  0
  5 10  1  0  0  0
  6  7  1  0  0  0
  7  8  1  0  0  0
  8  9  1  0  0  0
  8 11  1  0  0  0
  9 10  1  0  0  0
 11 12  2  0  0  0
 11 19  1  0  0  0
 12 13  1  0  0  0
 13 14  1  0  0  0
 13 17  1  0  0  0
 14 15  2  0  0  0
 15 16  1  0  0  0
 16 17  2  0  0  0
 17 18  1  0  0  0
 18 19  2  0  0  0
 24 25  1  0  0  0
  1  4  1  0  0  0
M  END
> <minimizedAffinity>
-10.81790

$$$$
1507


 32 35  0  0  0  0  0  0  0  0999 V2000
   -1.5500    9.5088  -13.5959 C   0  0  0  0  0  0  0  0  0  0  0  0
   -1.0808    8.2941  -13.7959 C   0  0  0  0  0  0  0  0  0  0  0  0
    0.3375    7.8259  -13.9216 C   0  0  0  0  0  0  0  0  0  0  0  0
    0.3172    6.6203  -13.1757 N   0  0  0  0  0  0  0  0  0  0  0  0
   -0.9203    5.9733  -13.6027 C   0  0  0  0  0  0  0  0  0  0  0  0
   -1.1739    4.7410  -13.6290 O   0  0  0  0  0  0  0  0  0  0  0  0
   -1.8206    7.0493  -14.0009 C   0  0  0  0  0  0  0  0  0  0  0  0
   -3.0161    6.9991  -14.4442 O   0  0  0  0  0  0  0  0  0  0  0  0
   -0.7175   10.6072  -13.4712 O   0  0  0  0  0  0  0  0  0  0  0  0
   -7.6401   10.4868  -13.3196 Br  0  0  0  0  0  0  0  0  0  0  0  0
   -5.7422   10.1916  -13.4104 C   0  0  0  0  0  0  0  0  0  0  0  0
   -4.9970    9.9457  -12.2803 C   0  0  0  0  0  0  0  0  0  0  0  0
   -3.6475    9.7295  -12.2862 C   0  0  0  0  0  0  0  0  0  0  0  0
   -2.9831    9.7585  -13.4983 C   0  0  0  0  0  0  0  0  0  0  0  0
   -3.7050   10.0016  -14.6442 C   0  0  0  0  0  0  0  0  0  0  0  0
   -5.0856   10.2209  -14.6236 C   0  0  0  0  0  0  0  0  0  0  0  0
    1.3157    8.8440  -13.7308 C   0  0  0  0  0  0  0  0  0  0  0  0
    1.8528    9.4719  -14.8286 C   0  0  0  0  0  0  0  0  0  0  0  0
    2.7875   10.4738  -14.7255 C   0  0  0  0  0  0  0  0  0  0  0  0
    3.2312   10.8960  -13.4806 C   0  0  0  0  0  0  0  0  0  0  0  0
    2.6799   10.2530  -12.3902 C   0  0  0  0  0  0  0  0  0  0  0  0
    1.7434    9.2496  -12.5025 C   0  0  0  0  0  0  0  0  0  0  0  0
    4.4180   12.1683  -13.3352 Cl  0  0  0  0  0  0  0  0  0  0  0  0
    1.2267    5.9881  -12.2398 C   0  0  0  0  0  0  0  0  0  0  0  0
    2.0311    4.8490  -12.7326 C   0  0  0  0  0  0  0  0  0  0  0  0
    3.4179    4.8430  -12.2542 N   0  0  0  0  0  0  0  0  0  0  0  0
    4.1122    5.9873  -12.7369 C   0  0  0  0  0  0  0  0  0  0  0  0
    5.2405    5.7385  -13.6754 C   0  0  0  0  0  0  0  0  0  0  0  0
    5.8752    4.5189  -13.5367 O   0  0  0  0  0  0  0  0  0  0  0  0
    4.8724    3.5554  -13.7914 C   0  0  0  0  0  0  0  0  0  0  0  0
    3.9801    3.5706  -12.6006 C   0  0  0  0  0  0  0  0  0  0  0  0
    3.3302    4.8837  -11.1923 H   0  0  0  0  0  0  0  0  0  0  0  0
 10 11  1  0  0  0
 11 12  2  0  0  0
 11 16  1  0  0  0
 12 13  1  0  0  0
 13 14  2  0  0  0
 14 15  1  0  0  0
 14  1  1  0  0  0
 15 16  2  0  0  0
  1  2  2  0  0  0
  1  9  1  0  0  0
  2  3  1  0  0  0
  2  7  1  0  0  0
  3  4  1  0  0  0
  3 17  1  0  0  0
  4  5  1  0  0  0
  4 24  1  0  0  0
  5  6  2  0  0  0
  5  7  1  0  0  0
  7  8  2  0  0  0
 24 25  1  0  0  0
 25 26  1  0  0  0
 26 27  1  0  0  0
 26 31  1  0  0  0
 27 28  1  0  0  0
 28 29  1  0  0  0
 29 30  1  0  0  0
 30 31  1  0  0  0
 17 18  2  0  0  0
 17 22  1  0  0  0
 18 19  1  0  0  0
 19 20  2  0  0  0
 20 21  1  0  0  0
 20 23  1  0  0  0
 21 22  2  0  0  0
 26 32  1  0  0  0
M  CHG 1   9  -1
M  CHG 1  26   1
M  END
> <minimizedAffinity>
-6.80236

$$$$
1511


 34 37  0  0  0  0  0  0  0  0999 V2000
   -3.0730   18.8663  -11.8450 N   0  0  0  0  0  0  0  0  0  0  0  0
   -2.0344   18.1228  -11.4303 C   0  0  0  0  0  0  0  0  0  0  0  0
   -1.6392   18.1210  -10.2363 O   0  0  0  0  0  0  0  0  0  0  0  0
   -1.4931   17.3923  -12.4750 C   0  0  0  0  0  0  0  0  0  0  0  0
   -2.2174   17.6983  -13.5438 C   0  0  0  0  0  0  0  0  0  0  0  0
   -1.6923   16.9906  -14.5558 N   0  0  0  0  0  0  0  0  0  0  0  0
   -0.6748   16.2719  -14.1165 N   0  0  0  0  0  0  0  0  0  0  0  0
   -0.5362   16.5044  -12.8385 N   0  0  0  0  0  0  0  0  0  0  0  0
   -3.1879   18.6024  -13.1657 C   0  0  0  0  0  0  0  0  0  0  0  0
   -4.0631   19.1129  -13.9407 O   0  0  0  0  0  0  0  0  0  0  0  0
   -2.0092   16.9832  -15.5457 H   0  0  0  0  0  0  0  0  0  0  0  0
   -0.0606   15.6121  -14.6806 H   0  0  0  0  0  0  0  0  0  0  0  0
   -6.8090   22.6860   -8.7780 Br  0  0  0  0  0  0  0  0  0  0  0  0
   -5.6362   21.5018   -9.7213 C   0  0  0  0  0  0  0  0  0  0  0  0
   -4.3311   21.3091   -9.3132 C   0  0  0  0  0  0  0  0  0  0  0  0
   -3.4832   20.4468  -10.0021 C   0  0  0  0  0  0  0  0  0  0  0  0
   -3.9114   19.7555  -11.1164 C   0  0  0  0  0  0  0  0  0  0  0  0
   -5.2140   19.9521  -11.5190 C   0  0  0  0  0  0  0  0  0  0  0  0
   -6.0566   20.8056  -10.8368 C   0  0  0  0  0  0  0  0  0  0  0  0
    0.4439   15.9416  -11.9408 C   0  0  0  0  0  0  0  0  0  0  0  0
    0.6308   14.4781  -12.2667 C   0  0  0  0  0  0  0  0  0  0  0  0
   -0.3774   13.7520  -12.4127 O   0  0  0  0  0  0  0  0  0  0  0  0
    1.9217   13.9468  -12.4025 N   0  0  0  0  0  0  0  0  0  0  0  0
    2.7379   14.6275  -12.2645 H   0  0  0  0  0  0  0  0  0  0  0  0
    2.2356   12.6078  -12.7090 C   0  0  0  0  0  0  0  0  0  0  0  0
    1.3929   11.6962  -13.2931 C   0  0  0  0  0  0  0  0  0  0  0  0
    1.7564   10.3908  -13.5517 C   0  0  0  0  0  0  0  0  0  0  0  0
    3.0297    9.9915  -13.2041 C   0  0  0  0  0  0  0  0  0  0  0  0
    3.9119   10.8814  -12.6130 C   0  0  0  0  0  0  0  0  0  0  0  0
    3.5293   12.1713  -12.3644 C   0  0  0  0  0  0  0  0  0  0  0  0
    3.4170    8.6783  -13.4570 O   0  0  0  0  0  0  0  0  0  0  0  0
    4.3949    8.4261  -14.4464 C   0  0  0  0  0  0  0  0  0  0  0  0
    0.8785    9.4874  -14.1465 O   0  0  0  0  0  0  0  0  0  0  0  0
   -0.2087    8.9981  -13.3506 C   0  0  0  0  0  0  0  0  0  0  0  0
 13 14  1  0  0  0
 14 15  2  0  0  0
 14 19  1  0  0  0
 15 16  1  0  0  0
 16 17  2  0  0  0
 17 18  1  0  0  0
 17  1  1  0  0  0
 18 19  2  0  0  0
  1  2  1  0  0  0
  1  9  1  0  0  0
  2  3  2  0  0  0
  2  4  1  0  0  0
  4  5  2  0  0  0
  4  8  1  0  0  0
  5  6  1  0  0  0
  5  9  1  0  0  0
  6  7  1  0  0  0
  7  8  1  0  0  0
  8 20  1  0  0  0
 20 21  1  0  0  0
 21 22  2  0  0  0
 21 23  1  0  0  0
 23 25  1  0  0  0
 25 26  2  0  0  0
 25 30  1  0  0  0
 26 27  1  0  0  0
 27 28  2  0  0  0
 27 33  1  0  0  0
 28 29  1  0  0  0
 28 31  1  0  0  0
 29 30  2  0  0  0
 31 32  1  0  0  0
 33 34  1  0  0  0
  9 10  2  0  0  0
  6 11  1  0  0  0
  7 12  1  0  0  0
 23 24  1  0  0  0
M  END
> <minimizedAffinity>
-10.59614

$$$$
1516


 30 33  0  0  0  0  0  0  0  0999 V2000
    0.1750   12.4163  -13.1775 C   0  0  0  0  0  0  0  0  0  0  0  0
   -0.9279   13.1292  -13.2004 O   0  0  0  0  0  0  0  0  0  0  0  0
   -0.0161   11.0689  -13.4492 N   0  0  0  0  0  0  0  0  0  0  0  0
    1.0291   10.1012  -13.5147 C   0  0  0  0  0  0  0  0  0  0  0  0
    0.4522    8.8202  -14.1600 C   0  0  0  0  0  0  0  0  0  0  0  0
   -0.5303    8.2435  -13.1586 C   0  0  0  0  0  0  0  0  0  0  0  0
    0.1493    7.9315  -11.9691 N   0  0  0  0  0  0  0  0  0  0  0  0
    0.8046    6.7040  -11.8183 C   0  0  0  0  0  0  0  0  0  0  0  0
    0.1720    5.5068  -12.4216 C   0  0  0  0  0  0  0  0  0  0  0  0
   -0.8576    5.8237  -13.4334 C   0  0  0  0  0  0  0  0  0  0  0  0
   -1.6089    4.9652  -14.1500 N   0  0  0  0  0  0  0  0  0  0  0  0
   -2.4093    5.6797  -14.9470 C   0  0  0  0  0  0  0  0  0  0  0  0
   -2.1598    6.9910  -14.7301 N   0  0  0  0  0  0  0  0  0  0  0  0
   -1.1988    7.0979  -13.7937 C   0  0  0  0  0  0  0  0  0  0  0  0
   -1.5542    9.3437  -12.8306 C   0  0  0  0  0  0  0  0  0  0  0  0
   -1.3743   10.5591  -13.6966 C   0  0  0  0  0  0  0  0  0  0  0  0
    0.3102    8.6597  -11.2835 H   0  0  0  0  0  0  0  0  0  0  0  0
   -2.6333    7.7769  -15.2114 H   0  0  0  0  0  0  0  0  0  0  0  0
    1.3778   13.1893  -12.8731 C   0  0  0  0  0  0  0  0  0  0  0  0
    1.0681   15.7526  -12.0034 C   0  0  0  0  0  0  0  0  0  0  0  0
    1.8646   16.4188  -11.2921 O   0  0  0  0  0  0  0  0  0  0  0  0
    1.2215   14.4781  -12.4362 N   0  0  0  0  0  0  0  0  0  0  0  0
    2.4058   14.3608  -11.7441 H   0  0  0  0  0  0  0  0  0  0  0  0
   -3.9233   18.6687  -13.5460 Cl  0  0  0  0  0  0  0  0  0  0  0  0
   -2.4548   17.8095  -13.1041 C   0  0  0  0  0  0  0  0  0  0  0  0
   -1.9081   18.0398  -11.8725 C   0  0  0  0  0  0  0  0  0  0  0  0
   -0.7422   17.3542  -11.5162 C   0  0  0  0  0  0  0  0  0  0  0  0
   -0.1819   16.4799  -12.4000 C   0  0  0  0  0  0  0  0  0  0  0  0
   -0.7194   16.2484  -13.6204 C   0  0  0  0  0  0  0  0  0  0  0  0
   -1.8946   16.9338  -13.9877 C   0  0  0  0  0  0  0  0  0  0  0  0
 24 25  1  0  0  0
 25 26  2  0  0  0
 25 30  1  0  0  0
 26 27  1  0  0  0
 27 28  2  0  0  0
 28 29  1  0  0  0
 28 20  1  0  0  0
 29 30  2  0  0  0
 20 21  2  0  0  0
 20 22  1  0  0  0
 22 19  1  0  0  0
 19  1  1  0  0  0
  1  2  2  0  0  0
  1  3  1  0  0  0
  3  4  1  0  0  0
  3 16  1  0  0  0
  4  5  1  0  0  0
  5  6  1  0  0  0
  6  7  1  0  0  0
  6 14  1  0  0  0
  6 15  1  0  0  0
  7  8  1  0  0  0
  8  9  1  0  0  0
  9 10  1  0  0  0
 10 11  1  0  0  0
 10 14  2  0  0  0
 11 12  2  0  0  0
 12 13  1  0  0  0
 13 14  1  0  0  0
 15 16  1  0  0  0
 22 23  1  0  0  0
  7 17  1  0  0  0
 13 18  1  0  0  0
M  END
> <minimizedAffinity>
-8.94323

$$$$
1518


 31 34  0  0  0  0  0  0  0  0999 V2000
   -2.4197    9.4813  -13.7435 C   0  0  0  0  0  0  0  0  0  0  0  0
   -2.4928    8.2333  -13.6295 O   0  0  0  0  0  0  0  0  0  0  0  0
   -1.1675   10.1344  -13.6631 N   0  0  0  0  0  0  0  0  0  0  0  0
   -1.0173   11.5703  -13.7851 C   0  0  0  0  0  0  0  0  0  0  0  0
    0.3264   11.8397  -14.4461 C   0  0  0  0  0  0  0  0  0  0  0  0
    1.4654   11.3512  -13.5518 C   0  0  0  0  0  0  0  0  0  0  0  0
    2.5018   10.8789  -14.4234 N   0  0  0  0  0  0  0  0  0  0  0  0
    3.7898   10.8395  -13.7647 C   0  0  0  0  0  0  0  0  0  0  0  0
    4.2716   12.2733  -13.5548 C   0  0  0  0  0  0  0  0  0  0  0  0
    3.2492   12.9339  -12.6930 C   0  0  0  0  0  0  0  0  0  0  0  0
    3.3374   13.9785  -11.8162 N   0  0  0  0  0  0  0  0  0  0  0  0
    2.1154   14.1817  -11.2931 C   0  0  0  0  0  0  0  0  0  0  0  0
    1.2781   13.2788  -11.8343 N   0  0  0  0  0  0  0  0  0  0  0  0
    1.9499   12.4802  -12.7154 C   0  0  0  0  0  0  0  0  0  0  0  0
    1.0023   10.2118  -12.6692 C   0  0  0  0  0  0  0  0  0  0  0  0
    0.0417    9.3636  -13.4493 C   0  0  0  0  0  0  0  0  0  0  0  0
    2.2747    9.9475  -14.8237 H   0  0  0  0  0  0  0  0  0  0  0  0
    4.2390   14.4767  -11.6428 H   0  0  0  0  0  0  0  0  0  0  0  0
   -3.6728   10.2382  -13.9610 C   0  0  0  0  0  0  0  0  0  0  0  0
   -4.8852    9.3620  -13.9709 C   0  0  0  0  0  0  0  0  0  0  0  0
   -7.0466   10.6397  -14.0360 C   0  0  0  0  0  0  0  0  0  0  0  0
   -7.1289   10.6288  -12.7816 O   0  0  0  0  0  0  0  0  0  0  0  0
   -5.9637   10.0316  -14.6715 N   0  0  0  0  0  0  0  0  0  0  0  0
   -5.8798   10.0344  -15.7163 H   0  0  0  0  0  0  0  0  0  0  0  0
  -11.4371   13.3077  -17.1473 Cl  0  0  0  0  0  0  0  0  0  0  0  0
  -10.1498   12.5041  -16.2708 C   0  0  0  0  0  0  0  0  0  0  0  0
   -9.8298   12.9551  -14.9980 C   0  0  0  0  0  0  0  0  0  0  0  0
   -8.8231   12.3646  -14.2493 C   0  0  0  0  0  0  0  0  0  0  0  0
   -8.1175   11.3046  -14.7740 C   0  0  0  0  0  0  0  0  0  0  0  0
   -8.4600   10.8726  -16.0547 C   0  0  0  0  0  0  0  0  0  0  0  0
   -9.4507   11.4428  -16.8063 C   0  0  0  0  0  0  0  0  0  0  0  0
 25 26  1  0  0  0
 26 27  2  0  0  0
 26 31  1  0  0  0
 27 28  1  0  0  0
 28 29  2  0  0  0
 29 30  1  0  0  0
 29 21  1  0  0  0
 30 31  2  0  0  0
 21 22  2  0  0  0
 21 23  1  0  0  0
 23 20  1  0  0  0
 20 19  1  0  0  0
 19  1  1  0  0  0
  1  2  2  0  0  0
  1  3  1  0  0  0
  3  4  1  0  0  0
  3 16  1  0  0  0
  4  5  1  0  0  0
  5  6  1  0  0  0
  6  7  1  0  0  0
  6 14  1  0  0  0
  6 15  1  0  0  0
  7  8  1  0  0  0
  8  9  1  0  0  0
  9 10  1  0  0  0
 10 11  1  0  0  0
 10 14  2  0  0  0
 11 12  1  0  0  0
 12 13  2  0  0  0
 13 14  1  0  0  0
 15 16  1  0  0  0
 23 24  1  0  0  0
  7 17  1  0  0  0
 11 18  1  0  0  0
M  END
> <minimizedAffinity>
-10.25092

$$$$
1521


 24 27  0  0  0  0  0  0  0  0999 V2000
   -4.6657    7.9810  -15.0980 Cl  0  0  0  0  0  0  0  0  0  0  0  0
   -3.3205    8.8638  -14.4064 C   0  0  0  0  0  0  0  0  0  0  0  0
   -2.2620    8.1713  -13.8706 C   0  0  0  0  0  0  0  0  0  0  0  0
   -1.9631    6.8695  -13.7253 N   0  0  0  0  0  0  0  0  0  0  0  0
   -0.7726    6.7003  -13.1196 C   0  0  0  0  0  0  0  0  0  0  0  0
   -0.3014    7.9721  -12.8713 C   0  0  0  0  0  0  0  0  0  0  0  0
   -1.2136    8.8973  -13.3308 C   0  0  0  0  0  0  0  0  0  0  0  0
   -1.2649   10.2762  -13.3490 C   0  0  0  0  0  0  0  0  0  0  0  0
   -2.3103   10.9916  -13.8783 C   0  0  0  0  0  0  0  0  0  0  0  0
   -3.3616   10.2585  -14.4188 C   0  0  0  0  0  0  0  0  0  0  0  0
    1.0201    8.0484  -12.2003 C   0  0  0  0  0  0  0  0  0  0  0  0
    1.8825    7.1955  -12.9865 N   0  0  0  0  0  0  0  0  0  0  0  0
    1.5670    5.8214  -12.9328 C   0  0  0  0  0  0  0  0  0  0  0  0
    0.0951    5.5877  -12.6792 C   0  0  0  0  0  0  0  0  0  0  0  0
   -2.5557    6.0475  -14.0322 H   0  0  0  0  0  0  0  0  0  0  0  0
    3.2284    7.5825  -13.0179 C   0  0  0  0  0  0  0  0  0  0  0  0
    3.5224    8.6128  -14.0654 C   0  0  0  0  0  0  0  0  0  0  0  0
    2.4132    8.8030  -15.0412 C   0  0  0  0  0  0  0  0  0  0  0  0
    2.0069   10.1658  -15.0716 N   0  0  0  0  0  0  0  0  0  0  0  0
    2.7570   10.9017  -14.1065 C   0  0  0  0  0  0  0  0  0  0  0  0
    3.6599    9.9528  -13.3938 C   0  0  0  0  0  0  0  0  0  0  0  0
    4.7442    8.3525  -14.6987 O   0  0  0  0  0  0  0  0  0  0  0  0
    2.0428   10.5989  -16.0247 H   0  0  0  0  0  0  0  0  0  0  0  0
    4.6846    8.7852  -15.5912 H   0  0  0  0  0  0  0  0  0  0  0  0
  1  2  1  0  0  0
  2  3  2  0  0  0
  2 10  1  0  0  0
  3  4  1  0  0  0
  3  7  1  0  0  0
  4  5  1  0  0  0
  5  6  2  0  0  0
  5 14  1  0  0  0
  6  7  1  0  0  0
  6 11  1  0  0  0
  7  8  2  0  0  0
  8  9  1  0  0  0
  9 10  2  0  0  0
 11 12  1  0  0  0
 12 13  1  0  0  0
 12 16  1  0  0  0
 13 14  1  0  0  0
 16 17  1  0  0  0
 17 18  1  0  0  0
 17 21  1  0  0  0
 17 22  1  0  0  0
 18 19  1  0  0  0
 19 20  1  0  0  0
 20 21  1  0  0  0
  4 15  1  0  0  0
 19 23  1  0  0  0
 22 24  1  0  0  0
M  END
> <minimizedAffinity>
-7.80181

$$$$
1523


 25 28  0  0  0  0  0  0  0  0999 V2000
    3.4093   12.3132  -12.5476 C   0  0  0  0  0  0  0  0  0  0  0  0
    4.5808   12.2711  -12.0315 O   0  0  0  0  0  0  0  0  0  0  0  0
    3.0001   11.3380  -13.4579 N   0  0  0  0  0  0  0  0  0  0  0  0
    3.9030   10.2818  -13.8240 C   0  0  0  0  0  0  0  0  0  0  0  0
    3.3518    8.9834  -13.3028 C   0  0  0  0  0  0  0  0  0  0  0  0
    1.9470    8.9122  -13.5870 N   0  0  0  0  0  0  0  0  0  0  0  0
    1.4537    9.8687  -14.5971 C   0  0  0  0  0  0  0  0  0  0  0  0
    1.7040   11.2849  -14.0974 C   0  0  0  0  0  0  0  0  0  0  0  0
    1.0017    8.0573  -13.0205 C   0  0  0  0  0  0  0  0  0  0  0  0
   -0.2014    8.1823  -13.4916 O   0  0  0  0  0  0  0  0  0  0  0  0
    1.0523   15.0759  -12.0786 N   0  0  0  0  0  0  0  0  0  0  0  0
    1.6904   15.0234  -10.9046 N   0  0  0  0  0  0  0  0  0  0  0  0
    2.5876   14.0630  -10.9114 N   0  0  0  0  0  0  0  0  0  0  0  0
    2.5681   13.4481  -12.1026 C   0  0  0  0  0  0  0  0  0  0  0  0
    1.5952   14.0990  -12.8242 C   0  0  0  0  0  0  0  0  0  0  0  0
   -2.1493   19.0372  -10.6143 Br  0  0  0  0  0  0  0  0  0  0  0  0
   -1.4721   17.7805  -11.8776 C   0  0  0  0  0  0  0  0  0  0  0  0
   -0.4548   16.8874  -11.5106 C   0  0  0  0  0  0  0  0  0  0  0  0
    0.0243   15.9861  -12.4302 C   0  0  0  0  0  0  0  0  0  0  0  0
   -0.5060   15.9818  -13.6936 C   0  0  0  0  0  0  0  0  0  0  0  0
   -1.5221   16.8693  -14.0696 C   0  0  0  0  0  0  0  0  0  0  0  0
   -1.9952   17.7665  -13.1431 C   0  0  0  0  0  0  0  0  0  0  0  0
    1.1447    7.0428  -11.9831 C   0  0  0  0  0  0  0  0  0  0  0  0
    0.6004    5.6877  -12.0709 C   0  0  0  0  0  0  0  0  0  0  0  0
    2.1088    5.9168  -12.0387 C   0  0  0  0  0  0  0  0  0  0  0  0
 16 17  1  0  0  0
 17 18  2  0  0  0
 17 22  1  0  0  0
 18 19  1  0  0  0
 19 20  2  0  0  0
 19 11  1  0  0  0
 20 21  1  0  0  0
 21 22  2  0  0  0
 11 12  1  0  0  0
 11 15  1  0  0  0
 12 13  2  0  0  0
 13 14  1  0  0  0
 14 15  2  0  0  0
 14  1  1  0  0  0
  1  2  2  0  0  0
  1  3  1  0  0  0
  3  4  1  0  0  0
  3  8  1  0  0  0
  4  5  1  0  0  0
  5  6  1  0  0  0
  6  7  1  0  0  0
  6  9  1  0  0  0
  7  8  1  0  0  0
  9 10  2  0  0  0
  9 23  1  0  0  0
 23 24  1  0  0  0
 23 25  1  0  0  0
 24 25  1  0  0  0
M  END
> <minimizedAffinity>
-8.69946

$$$$
1525


 26 29  0  0  0  0  0  0  0  0999 V2000
   -4.2753    8.5803  -14.6072 N   0  0  0  0  0  0  0  0  0  0  0  0
   -2.9209    9.0074  -14.5314 C   0  0  0  0  0  0  0  0  0  0  0  0
   -2.5802   10.2114  -14.4372 O   0  0  0  0  0  0  0  0  0  0  0  0
   -2.0955    7.8067  -14.5859 C   0  0  0  0  0  0  0  0  0  0  0  0
   -2.9318    6.8532  -15.4132 C   0  0  0  0  0  0  0  0  0  0  0  0
   -4.3289    7.2844  -15.2163 C   0  0  0  0  0  0  0  0  0  0  0  0
   -5.3770    6.6544  -15.5171 O   0  0  0  0  0  0  0  0  0  0  0  0
   -8.6119   11.5531  -15.6063 Br  0  0  0  0  0  0  0  0  0  0  0  0
   -7.3581   10.6954  -14.4600 C   0  0  0  0  0  0  0  0  0  0  0  0
   -6.2900    9.9629  -14.9707 C   0  0  0  0  0  0  0  0  0  0  0  0
   -5.3852    9.3444  -14.1338 C   0  0  0  0  0  0  0  0  0  0  0  0
   -5.6045    9.4956  -12.7691 C   0  0  0  0  0  0  0  0  0  0  0  0
   -6.6475   10.2117  -12.2481 C   0  0  0  0  0  0  0  0  0  0  0  0
   -7.5378   10.8197  -13.0994 C   0  0  0  0  0  0  0  0  0  0  0  0
   -1.6943    7.2595  -13.3526 N   0  0  0  0  0  0  0  0  0  0  0  0
   -1.4771    8.1390  -12.2762 C   0  0  0  0  0  0  0  0  0  0  0  0
    0.0248    8.4430  -12.1876 C   0  0  0  0  0  0  0  0  0  0  0  0
    0.7723    7.4499  -12.9422 N   0  0  0  0  0  0  0  0  0  0  0  0
    0.3578    6.0625  -13.0069 C   0  0  0  0  0  0  0  0  0  0  0  0
   -1.1255    5.9878  -13.2825 C   0  0  0  0  0  0  0  0  0  0  0  0
    1.9499    7.8139  -13.6757 C   0  0  0  0  0  0  0  0  0  0  0  0
    1.8852    8.6787  -14.7098 N   0  0  0  0  0  0  0  0  0  0  0  0
    2.9979    9.0295  -15.3838 C   0  0  0  0  0  0  0  0  0  0  0  0
    4.2451    8.5193  -15.0425 C   0  0  0  0  0  0  0  0  0  0  0  0
    4.3040    7.6340  -13.9807 C   0  0  0  0  0  0  0  0  0  0  0  0
    3.1589    7.3235  -13.3479 N   0  0  0  0  0  0  0  0  0  0  0  0
  8  9  1  0  0  0
  9 10  2  0  0  0
  9 14  1  0  0  0
 10 11  1  0  0  0
 11 12  2  0  0  0
 11  1  1  0  0  0
 12 13  1  0  0  0
 13 14  2  0  0  0
  1  2  1  0  0  0
  1  6  1  0  0  0
  2  3  2  0  0  0
  2  4  1  0  0  0
  4  5  1  0  0  0
  4 15  1  0  0  0
  5  6  1  0  0  0
  6  7  2  0  0  0
 15 16  1  0  0  0
 15 20  1  0  0  0
 16 17  1  0  0  0
 17 18  1  0  0  0
 18 19  1  0  0  0
 18 21  1  0  0  0
 19 20  1  0  0  0
 21 22  2  0  0  0
 21 26  1  0  0  0
 22 23  1  0  0  0
 23 24  2  0  0  0
 24 25  1  0  0  0
 25 26  2  0  0  0
M  END
> <minimizedAffinity>
-7.04808

$$$$
1531


 27 30  0  0  0  0  0  0  0  0999 V2000
    0.3616   14.0378  -12.6709 N   0  0  0  0  0  0  0  0  0  0  0  0
    1.5086   13.2886  -12.6864 C   0  0  0  0  0  0  0  0  0  0  0  0
    1.1370   12.0396  -12.9773 N   0  0  0  0  0  0  0  0  0  0  0  0
   -0.1908   11.9321  -13.1516 C   0  0  0  0  0  0  0  0  0  0  0  0
   -0.6814   13.2106  -12.9547 C   0  0  0  0  0  0  0  0  0  0  0  0
    2.3010   11.1605  -13.0152 C   0  0  0  0  0  0  0  0  0  0  0  0
    3.4585   12.0193  -12.5972 C   0  0  0  0  0  0  0  0  0  0  0  0
    2.9730   13.4208  -12.4933 C   0  0  0  0  0  0  0  0  0  0  0  0
   -0.9920   10.7531  -13.4771 C   0  0  0  0  0  0  0  0  0  0  0  0
   -0.5518    9.4579  -13.3799 C   0  0  0  0  0  0  0  0  0  0  0  0
   -1.3817    8.3768  -13.7095 C   0  0  0  0  0  0  0  0  0  0  0  0
   -2.6749    8.5589  -14.1466 C   0  0  0  0  0  0  0  0  0  0  0  0
   -3.1263    9.8568  -14.2486 C   0  0  0  0  0  0  0  0  0  0  0  0
   -2.3081   10.9184  -13.9229 C   0  0  0  0  0  0  0  0  0  0  0  0
   -3.5071    7.4983  -14.4765 O   0  0  0  0  0  0  0  0  0  0  0  0
   -3.0571    6.4759  -15.3474 C   0  0  0  0  0  0  0  0  0  0  0  0
    0.2780   15.4411  -12.4476 C   0  0  0  0  0  0  0  0  0  0  0  0
   -0.6071   16.2786  -13.2225 C   0  0  0  0  0  0  0  0  0  0  0  0
   -0.4431   16.1797  -14.5274 O   0  0  0  0  0  0  0  0  0  0  0  0
   -2.1924   19.6491   -9.6658 Cl  0  0  0  0  0  0  0  0  0  0  0  0
   -2.4339   18.8106  -11.1749 C   0  0  0  0  0  0  0  0  0  0  0  0
   -3.5751   19.0709  -11.8986 C   0  0  0  0  0  0  0  0  0  0  0  0
   -3.7518   18.4022  -13.0851 C   0  0  0  0  0  0  0  0  0  0  0  0
   -2.7786   17.4894  -13.5178 C   0  0  0  0  0  0  0  0  0  0  0  0
   -1.6370   17.2037  -12.8327 C   0  0  0  0  0  0  0  0  0  0  0  0
   -1.5098   17.9225  -11.6179 C   0  0  0  0  0  0  0  0  0  0  0  0
   -4.7847   20.2100  -11.3548 Cl  0  0  0  0  0  0  0  0  0  0  0  0
 20 21  1  0  0  0
 21 22  2  0  0  0
 21 26  1  0  0  0
 22 23  1  0  0  0
 22 27  1  0  0  0
 23 24  2  0  0  0
 24 25  1  0  0  0
 25 26  2  0  0  0
 25 18  1  0  0  0
 18 19  2  0  0  0
 18 17  1  0  0  0
 17  1  1  0  0  0
  1  2  1  0  0  0
  1  5  1  0  0  0
  2  3  2  0  0  0
  2  8  1  0  0  0
  3  4  1  0  0  0
  3  6  1  0  0  0
  4  5  2  0  0  0
  4  9  1  0  0  0
  9 10  2  0  0  0
  9 14  1  0  0  0
 10 11  1  0  0  0
 11 12  2  0  0  0
 12 13  1  0  0  0
 12 15  1  0  0  0
 13 14  2  0  0  0
 15 16  1  0  0  0
  6  7  1  0  0  0
  7  8  1  0  0  0
M  END
> <minimizedAffinity>
-10.97404

$$$$
1533


 28 31  0  0  0  0  0  0  0  0999 V2000
   -0.1082   13.1200  -13.2288 C   0  0  0  0  0  0  0  0  0  0  0  0
    0.8693   13.7872  -12.5626 N   0  0  0  0  0  0  0  0  0  0  0  0
    0.7073   15.1029  -12.7387 C   0  0  0  0  0  0  0  0  0  0  0  0
   -0.3869   15.3367  -13.5262 N   0  0  0  0  0  0  0  0  0  0  0  0
   -0.8721   14.1181  -13.8165 C   0  0  0  0  0  0  0  0  0  0  0  0
    1.7626   15.8664  -12.0359 C   0  0  0  0  0  0  0  0  0  0  0  0
    2.2173   14.8735  -11.0024 C   0  0  0  0  0  0  0  0  0  0  0  0
    2.0342   13.5502  -11.7089 C   0  0  0  0  0  0  0  0  0  0  0  0
    1.5728    8.2391  -14.0337 Cl  0  0  0  0  0  0  0  0  0  0  0  0
    0.3166    9.4151  -13.7128 C   0  0  0  0  0  0  0  0  0  0  0  0
   -0.9678    8.9756  -13.5800 C   0  0  0  0  0  0  0  0  0  0  0  0
   -1.9749    9.8781  -13.3275 C   0  0  0  0  0  0  0  0  0  0  0  0
   -1.6584   11.2341  -13.2119 C   0  0  0  0  0  0  0  0  0  0  0  0
   -0.3642   11.6844  -13.3448 C   0  0  0  0  0  0  0  0  0  0  0  0
    0.6159   10.7688  -13.5949 C   0  0  0  0  0  0  0  0  0  0  0  0
   -1.3890    7.2680  -13.7232 Cl  0  0  0  0  0  0  0  0  0  0  0  0
   -0.8644   16.6107  -13.9792 C   0  0  0  0  0  0  0  0  0  0  0  0
   -2.0159   17.2538  -13.4078 C   0  0  0  0  0  0  0  0  0  0  0  0
   -3.1291   17.0453  -14.1043 O   0  0  0  0  0  0  0  0  0  0  0  0
   -2.2323   18.0761  -12.2445 C   0  0  0  0  0  0  0  0  0  0  0  0
   -3.4351   18.8073  -12.1172 C   0  0  0  0  0  0  0  0  0  0  0  0
   -3.7318   19.6133  -11.0494 C   0  0  0  0  0  0  0  0  0  0  0  0
   -2.7795   19.6959  -10.0539 C   0  0  0  0  0  0  0  0  0  0  0  0
   -1.5994   18.9932  -10.1542 C   0  0  0  0  0  0  0  0  0  0  0  0
   -1.3027   18.1737  -11.2450 C   0  0  0  0  0  0  0  0  0  0  0  0
   -4.9426   20.3378  -10.9418 N   0  0  0  0  0  0  0  0  0  0  0  0
   -5.7473   20.3139  -11.8793 O   0  0  0  0  0  0  0  0  0  0  0  0
   -5.2503   21.0654   -9.8292 O   0  0  0  0  0  0  0  0  0  0  0  0
  9 10  1  0  0  0
 10 11  2  0  0  0
 10 15  1  0  0  0
 11 12  1  0  0  0
 11 16  1  0  0  0
 12 13  2  0  0  0
 13 14  1  0  0  0
 14 15  2  0  0  0
 14  1  1  0  0  0
  1  2  1  0  0  0
  1  5  2  0  0  0
  2  3  2  0  0  0
  2  8  1  0  0  0
  3  4  1  0  0  0
  3  6  1  0  0  0
  4  5  1  0  0  0
  4 17  1  0  0  0
 17 18  1  0  0  0
 18 19  2  0  0  0
 18 20  1  0  0  0
 20 21  2  0  0  0
 20 25  1  0  0  0
 21 22  1  0  0  0
 22 23  2  0  0  0
 22 26  1  0  0  0
 23 24  1  0  0  0
 24 25  2  0  0  0
 26 27  2  0  0  0
 26 28  1  0  0  0
  6  7  1  0  0  0
  7  8  1  0  0  0
M  CHG 1  28  -1
M  END
> <minimizedAffinity>
-10.76850

$$$$
1535


 28 31  0  0  0  0  0  0  0  0999 V2000
   -2.0795    9.6976  -13.9612 C   0  0  0  0  0  0  0  0  0  0  0  0
   -2.1564    8.3647  -14.1045 N   0  0  0  0  0  0  0  0  0  0  0  0
   -3.4244    8.0165  -14.4071 C   0  0  0  0  0  0  0  0  0  0  0  0
   -4.1622    9.1398  -14.4586 N   0  0  0  0  0  0  0  0  0  0  0  0
   -3.3655   10.2120  -14.1878 C   0  0  0  0  0  0  0  0  0  0  0  0
   -3.5250    6.5461  -14.5562 C   0  0  0  0  0  0  0  0  0  0  0  0
   -2.1265    6.2438  -15.0304 C   0  0  0  0  0  0  0  0  0  0  0  0
   -1.3416    7.1446  -14.0613 C   0  0  0  0  0  0  0  0  0  0  0  0
   -0.1485   14.3825  -12.8129 Cl  0  0  0  0  0  0  0  0  0  0  0  0
    0.0827   12.6879  -13.1073 C   0  0  0  0  0  0  0  0  0  0  0  0
    1.3335   12.1337  -13.0603 C   0  0  0  0  0  0  0  0  0  0  0  0
    1.4555   10.7865  -13.3031 C   0  0  0  0  0  0  0  0  0  0  0  0
    0.3521   10.0251  -13.5826 C   0  0  0  0  0  0  0  0  0  0  0  0
   -0.9398   10.5572  -13.6376 C   0  0  0  0  0  0  0  0  0  0  0  0
   -1.0397   11.8874  -13.3973 C   0  0  0  0  0  0  0  0  0  0  0  0
    2.7501   13.0974  -12.7040 Cl  0  0  0  0  0  0  0  0  0  0  0  0
   -5.5547    9.2119  -14.7085 C   0  0  0  0  0  0  0  0  0  0  0  0
   -6.4607    9.9959  -13.9195 C   0  0  0  0  0  0  0  0  0  0  0  0
   -6.2979    9.7818  -12.6293 O   0  0  0  0  0  0  0  0  0  0  0  0
   -7.4907   10.9480  -14.2621 C   0  0  0  0  0  0  0  0  0  0  0  0
   -8.2619   10.9008  -15.3916 C   0  0  0  0  0  0  0  0  0  0  0  0
   -9.2441   11.8597  -15.6569 C   0  0  0  0  0  0  0  0  0  0  0  0
   -9.4574   12.8775  -14.7839 C   0  0  0  0  0  0  0  0  0  0  0  0
   -8.6952   12.9495  -13.6383 C   0  0  0  0  0  0  0  0  0  0  0  0
   -7.7315   12.0163  -13.3684 C   0  0  0  0  0  0  0  0  0  0  0  0
  -10.0156   11.7528  -16.8547 N   0  0  0  0  0  0  0  0  0  0  0  0
  -10.1671   10.6396  -17.3870 O   0  0  0  0  0  0  0  0  0  0  0  0
  -10.5934   12.8355  -17.4361 O   0  0  0  0  0  0  0  0  0  0  0  0
  9 10  1  0  0  0
 10 11  2  0  0  0
 10 15  1  0  0  0
 11 12  1  0  0  0
 11 16  1  0  0  0
 12 13  2  0  0  0
 13 14  1  0  0  0
 14 15  2  0  0  0
 14  1  1  0  0  0
  1  2  1  0  0  0
  1  5  2  0  0  0
  2  3  1  0  0  0
  2  8  1  0  0  0
  3  4  2  0  0  0
  3  6  1  0  0  0
  4  5  1  0  0  0
  4 17  1  0  0  0
 17 18  1  0  0  0
 18 19  2  0  0  0
 18 20  1  0  0  0
 20 21  2  0  0  0
 20 25  1  0  0  0
 21 22  1  0  0  0
 22 23  2  0  0  0
 22 26  1  0  0  0
 23 24  1  0  0  0
 24 25  2  0  0  0
 26 27  2  0  0  0
 26 28  1  0  0  0
  6  7  1  0  0  0
  7  8  1  0  0  0
M  CHG 1  28  -1
M  END
> <minimizedAffinity>
-11.12008

$$$$
1536


 31 34  0  0  0  0  0  0  0  0999 V2000
   -0.2725   16.0391  -12.9652 S   0  0  0  0  0  0  0  0  0  0  0  0
   -1.0216   14.7059  -12.8696 O   0  0  0  0  0  0  0  0  0  0  0  0
    0.0235   16.1639  -14.4617 O   0  0  0  0  0  0  0  0  0  0  0  0
   -1.4200   17.2531  -12.4800 C   0  0  0  0  0  0  0  0  0  0  0  0
   -1.2127   17.9498  -11.2772 C   0  0  0  0  0  0  0  0  0  0  0  0
   -2.0973   18.8835  -10.8039 C   0  0  0  0  0  0  0  0  0  0  0  0
   -3.2256   19.1619  -11.5121 C   0  0  0  0  0  0  0  0  0  0  0  0
   -3.4809   18.5144  -12.6939 C   0  0  0  0  0  0  0  0  0  0  0  0
   -2.5631   17.5686  -13.1549 C   0  0  0  0  0  0  0  0  0  0  0  0
   -2.9006   16.8278  -14.7103 Cl  0  0  0  0  0  0  0  0  0  0  0  0
   -4.1446   20.1409  -10.9972 N   0  0  0  0  0  0  0  0  0  0  0  0
   -3.8579   20.7908   -9.7709 C   0  0  0  0  0  0  0  0  0  0  0  0
   -4.3869   21.8800   -9.4664 O   0  0  0  0  0  0  0  0  0  0  0  0
   -2.8979   20.1262   -8.8511 C   0  0  0  0  0  0  0  0  0  0  0  0
   -1.8566   19.5578   -9.5998 O   0  0  0  0  0  0  0  0  0  0  0  0
   -5.0085   20.3603  -11.5317 H   0  0  0  0  0  0  0  0  0  0  0  0
    1.1447   15.9007  -12.1260 N   0  0  0  0  0  0  0  0  0  0  0  0
    2.4092   15.9955  -12.6957 C   0  0  0  0  0  0  0  0  0  0  0  0
    3.0446   14.7170  -13.1387 C   0  0  0  0  0  0  0  0  0  0  0  0
    2.4143   13.5566  -12.3718 C   0  0  0  0  0  0  0  0  0  0  0  0
    2.2924   14.0975  -10.9380 C   0  0  0  0  0  0  0  0  0  0  0  0
    1.0837   15.0196  -10.9660 C   0  0  0  0  0  0  0  0  0  0  0  0
    3.2241   12.3518  -12.4308 C   0  0  0  0  0  0  0  0  0  0  0  0
    4.3696   12.3467  -11.9089 O   0  0  0  0  0  0  0  0  0  0  0  0
    2.7625   11.1876  -13.0535 N   0  0  0  0  0  0  0  0  0  0  0  0
    3.5381    9.9427  -13.0966 C   0  0  0  0  0  0  0  0  0  0  0  0
    2.7920    9.0082  -14.0255 C   0  0  0  0  0  0  0  0  0  0  0  0
    1.4756    8.7130  -13.4933 N   0  0  0  0  0  0  0  0  0  0  0  0
    0.6871    9.9218  -13.3325 C   0  0  0  0  0  0  0  0  0  0  0  0
    1.4896   11.1525  -13.7173 C   0  0  0  0  0  0  0  0  0  0  0  0
    0.7813    7.7551  -14.3263 C   0  0  0  0  0  0  0  0  0  0  0  0
  1  2  2  0  0  0
  1  3  2  0  0  0
  1 17  1  0  0  0
  1  4  1  0  0  0
 17 18  1  0  0  0
 17 22  1  0  0  0
 18 19  1  0  0  0
 19 20  1  0  0  0
 20 21  1  0  0  0
 20 23  1  0  0  0
 21 22  1  0  0  0
 23 24  2  0  0  0
 23 25  1  0  0  0
 25 26  1  0  0  0
 25 30  1  0  0  0
 26 27  1  0  0  0
 27 28  1  0  0  0
 28 29  1  0  0  0
 28 31  1  0  0  0
 29 30  1  0  0  0
  4  5  2  0  0  0
  4  9  1  0  0  0
  5  6  1  0  0  0
  6  7  2  0  0  0
  6 15  1  0  0  0
  7  8  1  0  0  0
  7 11  1  0  0  0
  8  9  2  0  0  0
  9 10  1  0  0  0
 11 12  1  0  0  0
 12 13  2  0  0  0
 12 14  1  0  0  0
 14 15  1  0  0  0
 11 16  1  0  0  0
M  END
> <minimizedAffinity>
-8.88647

$$$$
1539


 34 37  0  0  0  0  0  0  0  0999 V2000
    2.9048    9.2730  -12.5573 C   0  0  0  0  0  0  0  0  0  0  0  0
    3.7849    8.8326  -13.6473 N   0  0  0  0  0  0  0  0  0  0  0  0
    3.0792    9.1485  -14.8389 C   0  0  0  0  0  0  0  0  0  0  0  0
    3.5713    9.4009  -15.9509 O   0  0  0  0  0  0  0  0  0  0  0  0
    1.6615    9.1163  -14.4939 C   0  0  0  0  0  0  0  0  0  0  0  0
    0.6371    9.3302  -15.2077 O   0  0  0  0  0  0  0  0  0  0  0  0
    1.5960    8.7701  -13.0665 C   0  0  0  0  0  0  0  0  0  0  0  0
    0.5908    8.1877  -12.4424 C   0  0  0  0  0  0  0  0  0  0  0  0
    0.6972    7.9769  -11.0649 O   0  0  0  0  0  0  0  0  0  0  0  0
    3.0347   15.3444  -12.6404 Cl  0  0  0  0  0  0  0  0  0  0  0  0
    2.9999   13.5824  -12.6163 C   0  0  0  0  0  0  0  0  0  0  0  0
    1.8045   12.8883  -12.6630 C   0  0  0  0  0  0  0  0  0  0  0  0
    1.7942   11.5100  -12.6428 C   0  0  0  0  0  0  0  0  0  0  0  0
    2.9461   10.7556  -12.5774 C   0  0  0  0  0  0  0  0  0  0  0  0
    4.1465   11.4755  -12.5310 C   0  0  0  0  0  0  0  0  0  0  0  0
    4.1600   12.8510  -12.5510 C   0  0  0  0  0  0  0  0  0  0  0  0
   -0.6194    7.7517  -13.1232 C   0  0  0  0  0  0  0  0  0  0  0  0
   -0.7574    6.4734  -13.6386 C   0  0  0  0  0  0  0  0  0  0  0  0
   -1.8959    6.0729  -14.3066 C   0  0  0  0  0  0  0  0  0  0  0  0
   -2.9569    6.9488  -14.4879 C   0  0  0  0  0  0  0  0  0  0  0  0
   -2.8324    8.2220  -13.9809 C   0  0  0  0  0  0  0  0  0  0  0  0
   -1.6734    8.6166  -13.3058 C   0  0  0  0  0  0  0  0  0  0  0  0
   -1.9984    4.6968  -14.8406 C   0  0  0  0  0  0  0  0  0  0  0  0
   -4.1133    6.5598  -15.1588 O   0  0  0  0  0  0  0  0  0  0  0  0
   -5.2448    7.3824  -15.0976 C   0  0  0  0  0  0  0  0  0  0  0  0
    5.1027    8.2091  -13.5203 C   0  0  0  0  0  0  0  0  0  0  0  0
    4.9286    6.7556  -13.8952 C   0  0  0  0  0  0  0  0  0  0  0  0
    5.2240    5.8649  -12.8056 N   0  0  0  0  0  0  0  0  0  0  0  0
    6.6306    5.6669  -12.6731 C   0  0  0  0  0  0  0  0  0  0  0  0
    7.1858    4.4451  -13.3258 C   0  0  0  0  0  0  0  0  0  0  0  0
    6.3445    3.3658  -13.3580 O   0  0  0  0  0  0  0  0  0  0  0  0
    5.0974    3.6574  -13.8948 C   0  0  0  0  0  0  0  0  0  0  0  0
    4.4550    4.6640  -12.9765 C   0  0  0  0  0  0  0  0  0  0  0  0
    4.8919    6.3659  -11.9330 H   0  0  0  0  0  0  0  0  0  0  0  0
 10 11  1  0  0  0
 11 12  2  0  0  0
 11 16  1  0  0  0
 12 13  1  0  0  0
 13 14  2  0  0  0
 14 15  1  0  0  0
 14  1  1  0  0  0
 15 16  2  0  0  0
  1  2  1  0  0  0
  1  7  1  0  0  0
  2  3  1  0  0  0
  2 26  1  0  0  0
  3  4  2  0  0  0
  3  5  1  0  0  0
  5  6  2  0  0  0
  5  7  1  0  0  0
  7  8  2  0  0  0
  8  9  1  0  0  0
  8 17  1  0  0  0
 17 18  2  0  0  0
 17 22  1  0  0  0
 18 19  1  0  0  0
 19 20  2  0  0  0
 19 23  1  0  0  0
 20 21  1  0  0  0
 20 24  1  0  0  0
 21 22  2  0  0  0
 24 25  1  0  0  0
 26 27  1  0  0  0
 27 28  1  0  0  0
 28 29  1  0  0  0
 28 33  1  0  0  0
 29 30  1  0  0  0
 30 31  1  0  0  0
 31 32  1  0  0  0
 32 33  1  0  0  0
 28 34  1  0  0  0
M  CHG 1   9  -1
M  CHG 1  28   1
M  END
> <minimizedAffinity>
-7.38941

$$$$
1548


 24 27  0  0  0  0  0  0  0  0999 V2000
   -5.4884   21.3884   -9.2761 Cl  0  0  0  0  0  0  0  0  0  0  0  0
   -4.7880   20.3579  -10.5157 C   0  0  0  0  0  0  0  0  0  0  0  0
   -3.5336   19.8032  -10.3857 C   0  0  0  0  0  0  0  0  0  0  0  0
   -2.9917   19.0033  -11.3505 N   0  0  0  0  0  0  0  0  0  0  0  0
   -3.6616   18.7161  -12.4814 C   0  0  0  0  0  0  0  0  0  0  0  0
   -3.1251   17.9219  -13.4414 N   0  0  0  0  0  0  0  0  0  0  0  0
   -1.8952   17.3816  -13.3070 C   0  0  0  0  0  0  0  0  0  0  0  0
   -1.1876   17.6519  -12.1719 C   0  0  0  0  0  0  0  0  0  0  0  0
    0.1817   17.0778  -11.9706 C   0  0  0  0  0  0  0  0  0  0  0  0
    0.1853   15.8284  -12.7513 N   0  0  0  0  0  0  0  0  0  0  0  0
   -0.0167   16.0212  -14.1591 C   0  0  0  0  0  0  0  0  0  0  0  0
   -1.4222   16.5290  -14.4293 C   0  0  0  0  0  0  0  0  0  0  0  0
    0.3765   14.6342  -12.0626 C   0  0  0  0  0  0  0  0  0  0  0  0
    0.5458   14.6791  -10.7947 O   0  0  0  0  0  0  0  0  0  0  0  0
   -1.7656   18.4686  -11.2094 C   0  0  0  0  0  0  0  0  0  0  0  0
   -1.1267   18.7212  -10.1690 O   0  0  0  0  0  0  0  0  0  0  0  0
   -4.9249   19.2705  -12.6206 C   0  0  0  0  0  0  0  0  0  0  0  0
   -5.4977   20.0814  -11.6642 C   0  0  0  0  0  0  0  0  0  0  0  0
    0.4044   13.2938  -12.6599 C   0  0  0  0  0  0  0  0  0  0  0  0
   -0.7033   12.6699  -13.0708 N   0  0  0  0  0  0  0  0  0  0  0  0
   -0.6687   11.4492  -13.6135 C   0  0  0  0  0  0  0  0  0  0  0  0
    0.5155   10.7615  -13.7806 C   0  0  0  0  0  0  0  0  0  0  0  0
    1.6194   11.4044  -13.3619 N   0  0  0  0  0  0  0  0  0  0  0  0
    1.6116   12.6212  -12.8172 C   0  0  0  0  0  0  0  0  0  0  0  0
  1  2  1  0  0  0
  2  3  2  0  0  0
  2 18  1  0  0  0
  3  4  1  0  0  0
  4  5  1  0  0  0
  4 15  1  0  0  0
  5  6  2  0  0  0
  5 17  1  0  0  0
  6  7  1  0  0  0
  7  8  2  0  0  0
  7 12  1  0  0  0
  8  9  1  0  0  0
  8 15  1  0  0  0
  9 10  1  0  0  0
 10 11  1  0  0  0
 10 13  1  0  0  0
 11 12  1  0  0  0
 13 14  2  0  0  0
 13 19  1  0  0  0
 19 20  2  0  0  0
 19 24  1  0  0  0
 20 21  1  0  0  0
 21 22  2  0  0  0
 22 23  1  0  0  0
 23 24  2  0  0  0
 15 16  2  0  0  0
 17 18  2  0  0  0
M  END
> <minimizedAffinity>
-8.17955

$$$$
1553


 29 32  0  0  0  0  0  0  0  0999 V2000
    2.4057    8.3249  -14.6657 C   0  0  0  0  0  0  0  0  0  0  0  0
    1.0859    7.8855  -14.4119 N   0  0  0  0  0  0  0  0  0  0  0  0
    0.1638    8.8589  -13.9038 C   0  0  0  0  0  0  0  0  0  0  0  0
    0.7628    9.5040  -12.6425 C   0  0  0  0  0  0  0  0  0  0  0  0
    1.9571   10.2116  -13.1423 C   0  0  0  0  0  0  0  0  0  0  0  0
    2.4995   11.4438  -12.8145 C   0  0  0  0  0  0  0  0  0  0  0  0
    3.6167   11.6005  -13.6043 C   0  0  0  0  0  0  0  0  0  0  0  0
    3.7672   10.5215  -14.3878 N   0  0  0  0  0  0  0  0  0  0  0  0
    2.7392    9.6551  -14.1058 C   0  0  0  0  0  0  0  0  0  0  0  0
    4.3453   12.7680  -13.4667 C   0  0  0  0  0  0  0  0  0  0  0  0
    3.9281   13.7088  -12.5581 C   0  0  0  0  0  0  0  0  0  0  0  0
    2.8107   13.5495  -11.7701 C   0  0  0  0  0  0  0  0  0  0  0  0
    2.0673   12.3784  -11.8983 C   0  0  0  0  0  0  0  0  0  0  0  0
    0.6816    7.5314  -15.3371 H   0  0  0  0  0  0  0  0  0  0  0  0
    1.0222    7.0551  -13.7712 H   0  0  0  0  0  0  0  0  0  0  0  0
    4.5132   10.3194  -15.1024 H   0  0  0  0  0  0  0  0  0  0  0  0
    3.2644    3.7521  -11.9214 Br  0  0  0  0  0  0  0  0  0  0  0  0
    3.8734    5.3143  -12.8423 C   0  0  0  0  0  0  0  0  0  0  0  0
    2.9506    6.2105  -13.3911 C   0  0  0  0  0  0  0  0  0  0  0  0
    3.3781    7.3455  -14.0566 C   0  0  0  0  0  0  0  0  0  0  0  0
    4.7379    7.5576  -14.1568 C   0  0  0  0  0  0  0  0  0  0  0  0
    5.6477    6.6628  -13.6083 C   0  0  0  0  0  0  0  0  0  0  0  0
    5.2195    5.5353  -12.9469 C   0  0  0  0  0  0  0  0  0  0  0  0
    7.5343    7.0110  -13.7754 Br  0  0  0  0  0  0  0  0  0  0  0  0
    1.6280    5.8928  -13.2268 O   0  0  0  0  0  0  0  0  0  0  0  0
    0.8536    6.4101  -13.5418 H   0  0  0  0  0  0  0  0  0  0  0  0
   -1.1292    8.2134  -13.5995 C   0  0  0  0  0  0  0  0  0  0  0  0
   -1.1414    7.0004  -13.2656 O   0  0  0  0  0  0  0  0  0  0  0  0
   -2.2982    8.9510  -13.6881 O   0  0  0  0  0  0  0  0  0  0  0  0
 17 18  1  0  0  0
 18 19  2  0  0  0
 18 23  1  0  0  0
 19 20  1  0  0  0
 19 25  1  0  0  0
 20 21  2  0  0  0
 20  1  1  0  0  0
 21 22  1  0  0  0
 22 23  2  0  0  0
 22 24  1  0  0  0
  1  2  1  0  0  0
  1  9  1  0  0  0
  2  3  1  0  0  0
  3  4  1  0  0  0
  3 27  1  0  0  0
  4  5  1  0  0  0
  5  6  1  0  0  0
  5  9  2  0  0  0
  6  7  2  0  0  0
  6 13  1  0  0  0
  7  8  1  0  0  0
  7 10  1  0  0  0
  8  9  1  0  0  0
 10 11  2  0  0  0
 11 12  1  0  0  0
 12 13  2  0  0  0
 27 28  2  0  0  0
 27 29  1  0  0  0
  2 14  1  0  0  0
  2 15  1  0  0  0
  8 16  1  0  0  0
 25 26  1  0  0  0
M  CHG 1   2   1
M  END
> <minimizedAffinity>
-6.68688

$$$$
1571


 28 31  0  0  0  0  0  0  0  0999 V2000
   -5.2715    8.3657  -14.8029 O   0  0  0  0  0  0  0  0  0  0  0  0
   -4.4147    7.2960  -14.6827 C   0  0  0  0  0  0  0  0  0  0  0  0
   -4.8849    6.2743  -14.1062 O   0  0  0  0  0  0  0  0  0  0  0  0
   -3.0178    7.3211  -15.1935 C   0  0  0  0  0  0  0  0  0  0  0  0
   -2.0684    7.6878  -14.1412 N   0  0  0  0  0  0  0  0  0  0  0  0
   -1.2554    6.8106  -13.3665 C   0  0  0  0  0  0  0  0  0  0  0  0
   -1.0789    5.5840  -13.5728 O   0  0  0  0  0  0  0  0  0  0  0  0
   -0.6509    7.6028  -12.2703 C   0  0  0  0  0  0  0  0  0  0  0  0
   -0.5275    8.9502  -12.9424 C   0  0  0  0  0  0  0  0  0  0  0  0
    0.6257    9.0157  -13.9248 C   0  0  0  0  0  0  0  0  0  0  0  0
    1.5048    7.7939  -13.8853 C   0  0  0  0  0  0  0  0  0  0  0  0
    1.8462    7.4169  -12.4716 C   0  0  0  0  0  0  0  0  0  0  0  0
    0.6074    7.0562  -11.7315 C   0  0  0  0  0  0  0  0  0  0  0  0
   -1.7995    9.0068  -13.6990 C   0  0  0  0  0  0  0  0  0  0  0  0
   -2.5262   10.0252  -13.9217 O   0  0  0  0  0  0  0  0  0  0  0  0
   -5.7847    9.1211  -13.7416 C   0  0  0  0  0  0  0  0  0  0  0  0
  -11.6826   13.9607  -17.0896 Br  0  0  0  0  0  0  0  0  0  0  0  0
  -10.3511   12.6818  -16.5367 C   0  0  0  0  0  0  0  0  0  0  0  0
   -9.6597   12.8436  -15.3597 C   0  0  0  0  0  0  0  0  0  0  0  0
   -8.7284   11.9723  -14.9475 N   0  0  0  0  0  0  0  0  0  0  0  0
   -8.4259   10.8750  -15.6871 C   0  0  0  0  0  0  0  0  0  0  0  0
   -7.5084    9.9774  -15.3201 N   0  0  0  0  0  0  0  0  0  0  0  0
   -6.8091   10.1007  -14.1750 C   0  0  0  0  0  0  0  0  0  0  0  0
   -7.0892   11.2046  -13.3964 C   0  0  0  0  0  0  0  0  0  0  0  0
   -8.0407   12.1255  -13.7868 C   0  0  0  0  0  0  0  0  0  0  0  0
   -8.3278   13.1482  -13.1042 O   0  0  0  0  0  0  0  0  0  0  0  0
   -9.1067   10.6760  -16.8865 C   0  0  0  0  0  0  0  0  0  0  0  0
  -10.0620   11.5798  -17.3001 C   0  0  0  0  0  0  0  0  0  0  0  0
 17 18  1  0  0  0
 18 19  2  0  0  0
 18 28  1  0  0  0
 19 20  1  0  0  0
 20 21  1  0  0  0
 20 25  1  0  0  0
 21 22  2  0  0  0
 21 27  1  0  0  0
 22 23  1  0  0  0
 23 24  2  0  0  0
 23 16  1  0  0  0
 24 25  1  0  0  0
 25 26  2  0  0  0
 16  1  1  0  0  0
  1  2  1  0  0  0
  2  3  2  0  0  0
  2  4  1  0  0  0
  4  5  1  0  0  0
  5  6  1  0  0  0
  5 14  1  0  0  0
  6  7  2  0  0  0
  6  8  1  0  0  0
  8  9  1  0  0  0
  8 13  1  0  0  0
  9 10  1  0  0  0
  9 14  1  0  0  0
 10 11  1  0  0  0
 11 12  1  0  0  0
 12 13  1  0  0  0
 14 15  2  0  0  0
 27 28  2  0  0  0
M  END
> <minimizedAffinity>
-10.02401

$$$$
1576


 30 33  0  0  0  0  0  0  0  0999 V2000
   -0.7440    8.2089  -13.0839 N   0  0  0  0  0  0  0  0  0  0  0  0
   -0.5299    7.7109  -11.7422 C   0  0  0  0  0  0  0  0  0  0  0  0
    0.9633    7.7843  -11.4323 C   0  0  0  0  0  0  0  0  0  0  0  0
    1.7202    7.3750  -12.6046 N   0  0  0  0  0  0  0  0  0  0  0  0
    1.5141    8.0912  -13.8415 C   0  0  0  0  0  0  0  0  0  0  0  0
    0.3416    9.0237  -13.6515 C   0  0  0  0  0  0  0  0  0  0  0  0
    2.6482    6.2977  -12.5562 C   0  0  0  0  0  0  0  0  0  0  0  0
    2.8083    5.6932  -11.4505 O   0  0  0  0  0  0  0  0  0  0  0  0
   -1.0285    5.4945  -14.3918 Cl  0  0  0  0  0  0  0  0  0  0  0  0
   -2.1482    6.8020  -14.5280 C   0  0  0  0  0  0  0  0  0  0  0  0
   -1.8751    7.9819  -13.8701 C   0  0  0  0  0  0  0  0  0  0  0  0
   -2.8175    8.9964  -14.0230 C   0  0  0  0  0  0  0  0  0  0  0  0
   -3.9529    8.8189  -14.7888 C   0  0  0  0  0  0  0  0  0  0  0  0
   -4.1825    7.6273  -15.4246 C   0  0  0  0  0  0  0  0  0  0  0  0
   -3.2815    6.6172  -15.2957 C   0  0  0  0  0  0  0  0  0  0  0  0
    3.4362    5.8393  -13.7061 C   0  0  0  0  0  0  0  0  0  0  0  0
    4.8797    5.9399  -13.4998 N   0  0  0  0  0  0  0  0  0  0  0  0
    5.7098    5.0701  -12.9599 N   0  0  0  0  0  0  0  0  0  0  0  0
    6.9725    5.5022  -12.9372 C   0  0  0  0  0  0  0  0  0  0  0  0
    6.9607    6.7600  -13.5125 C   0  0  0  0  0  0  0  0  0  0  0  0
    5.6493    7.0065  -13.8523 C   0  0  0  0  0  0  0  0  0  0  0  0
    5.1640    8.2433  -14.4996 C   0  0  0  0  0  0  0  0  0  0  0  0
    8.1449    4.7817  -12.4079 C   0  0  0  0  0  0  0  0  0  0  0  0
    8.8047    5.2651  -11.4663 O   0  0  0  0  0  0  0  0  0  0  0  0
    8.5008    3.5420  -12.9828 N   0  0  0  0  0  0  0  0  0  0  0  0
    7.7883    2.9260  -14.0664 C   0  0  0  0  0  0  0  0  0  0  0  0
    8.5986    1.6864  -14.4656 C   0  0  0  0  0  0  0  0  0  0  0  0
    9.9131    2.0115  -14.7178 O   0  0  0  0  0  0  0  0  0  0  0  0
   10.5817    2.5306  -13.6345 C   0  0  0  0  0  0  0  0  0  0  0  0
    9.6635    2.8152  -12.4644 C   0  0  0  0  0  0  0  0  0  0  0  0
  9 10  1  0  0  0
 10 11  2  0  0  0
 10 15  1  0  0  0
 11 12  1  0  0  0
 11  1  1  0  0  0
 12 13  2  0  0  0
 13 14  1  0  0  0
 14 15  2  0  0  0
  1  2  1  0  0  0
  1  6  1  0  0  0
  2  3  1  0  0  0
  3  4  1  0  0  0
  4  5  1  0  0  0
  4  7  1  0  0  0
  5  6  1  0  0  0
  7  8  2  0  0  0
  7 16  1  0  0  0
 16 17  1  0  0  0
 17 18  1  0  0  0
 17 21  1  0  0  0
 18 19  2  0  0  0
 19 20  1  0  0  0
 19 23  1  0  0  0
 20 21  2  0  0  0
 21 22  1  0  0  0
 23 24  2  0  0  0
 23 25  1  0  0  0
 25 26  1  0  0  0
 25 30  1  0  0  0
 26 27  1  0  0  0
 27 28  1  0  0  0
 28 29  1  0  0  0
 29 30  1  0  0  0
M  END
> <minimizedAffinity>
-7.54607

$$$$
1581


 27 30  0  0  0  0  0  0  0  0999 V2000
   -4.1684    9.1404  -14.5301 N   0  0  0  0  0  0  0  0  0  0  0  0
   -3.4731   10.3517  -14.6649 C   0  0  0  0  0  0  0  0  0  0  0  0
   -2.2801   10.5204  -13.7838 C   0  0  0  0  0  0  0  0  0  0  0  0
   -1.6677    9.2455  -13.4392 N   0  0  0  0  0  0  0  0  0  0  0  0
   -0.5575    9.0754  -12.7228 N   0  0  0  0  0  0  0  0  0  0  0  0
   -0.3014    7.7687  -12.6119 C   0  0  0  0  0  0  0  0  0  0  0  0
   -1.2951    7.1062  -13.2875 C   0  0  0  0  0  0  0  0  0  0  0  0
   -2.1702    8.0598  -13.8172 C   0  0  0  0  0  0  0  0  0  0  0  0
   -3.4078    7.9460  -14.6286 C   0  0  0  0  0  0  0  0  0  0  0  0
    0.8535    7.1546  -11.8852 C   0  0  0  0  0  0  0  0  0  0  0  0
    0.6009    7.2694  -10.5084 O   0  0  0  0  0  0  0  0  0  0  0  0
   -0.3301    7.5997  -10.3476 H   0  0  0  0  0  0  0  0  0  0  0  0
    0.9129    5.6564  -12.1719 C   0  0  0  0  0  0  0  0  0  0  0  0
    2.3744    5.2483  -12.2826 C   0  0  0  0  0  0  0  0  0  0  0  0
   -5.3146    9.1094  -13.7213 C   0  0  0  0  0  0  0  0  0  0  0  0
  -11.4101   13.6104  -16.6074 Cl  0  0  0  0  0  0  0  0  0  0  0  0
  -10.1199   12.4882  -16.2005 C   0  0  0  0  0  0  0  0  0  0  0  0
   -9.4380   12.6971  -15.0233 C   0  0  0  0  0  0  0  0  0  0  0  0
   -8.4429   11.8289  -14.7125 N   0  0  0  0  0  0  0  0  0  0  0  0
   -8.1196   10.7971  -15.5084 C   0  0  0  0  0  0  0  0  0  0  0  0
   -7.1345    9.9308  -15.2071 N   0  0  0  0  0  0  0  0  0  0  0  0
   -6.3983   10.0324  -14.0857 C   0  0  0  0  0  0  0  0  0  0  0  0
   -6.7306   11.0957  -13.2644 C   0  0  0  0  0  0  0  0  0  0  0  0
   -7.7378   11.9814  -13.5733 C   0  0  0  0  0  0  0  0  0  0  0  0
   -8.0088   12.9433  -12.7893 O   0  0  0  0  0  0  0  0  0  0  0  0
   -8.8097   10.5794  -16.7053 C   0  0  0  0  0  0  0  0  0  0  0  0
   -9.8218   11.4412  -17.0480 C   0  0  0  0  0  0  0  0  0  0  0  0
 16 17  1  0  0  0
 17 18  2  0  0  0
 17 27  1  0  0  0
 18 19  1  0  0  0
 19 20  1  0  0  0
 19 24  1  0  0  0
 20 21  2  0  0  0
 20 26  1  0  0  0
 21 22  1  0  0  0
 22 23  2  0  0  0
 22 15  1  0  0  0
 23 24  1  0  0  0
 24 25  2  0  0  0
 15  1  1  0  0  0
  1  2  1  0  0  0
  1  9  1  0  0  0
  2  3  1  0  0  0
  3  4  1  0  0  0
  4  5  1  0  0  0
  4  8  1  0  0  0
  5  6  2  0  0  0
  6  7  1  0  0  0
  6 10  1  0  0  0
  7  8  2  0  0  0
  8  9  1  0  0  0
 10 11  1  0  0  0
 10 13  1  0  0  0
 13 14  1  0  0  0
 26 27  2  0  0  0
 11 12  1  0  0  0
M  END
> <minimizedAffinity>
-10.27912

$$$$
1586


 29 32  0  0  0  0  0  0  0  0999 V2000
    4.9090    5.6975  -13.0171 C   0  0  0  0  0  0  0  0  0  0  0  0
    4.6456    4.5701  -12.3757 O   0  0  0  0  0  0  0  0  0  0  0  0
    3.7885    6.4412  -13.4230 N   0  0  0  0  0  0  0  0  0  0  0  0
    3.8445    7.6614  -14.1461 C   0  0  0  0  0  0  0  0  0  0  0  0
    2.4222    8.0405  -14.5927 C   0  0  0  0  0  0  0  0  0  0  0  0
    1.6518    8.1408  -13.3802 N   0  0  0  0  0  0  0  0  0  0  0  0
    1.5381    6.9710  -12.5753 C   0  0  0  0  0  0  0  0  0  0  0  0
    2.4890    5.8881  -13.0423 C   0  0  0  0  0  0  0  0  0  0  0  0
    1.0390    9.3505  -13.0107 C   0  0  0  0  0  0  0  0  0  0  0  0
    0.0928    9.3235  -12.2039 O   0  0  0  0  0  0  0  0  0  0  0  0
    1.5413   10.6119  -13.5933 C   0  0  0  0  0  0  0  0  0  0  0  0
    1.6800   10.3920  -15.0028 N   0  0  0  0  0  0  0  0  0  0  0  0
    2.3938    9.2428  -15.4234 C   0  0  0  0  0  0  0  0  0  0  0  0
    3.0255    9.2184  -16.5260 O   0  0  0  0  0  0  0  0  0  0  0  0
    1.2777   11.0453  -15.7197 H   0  0  0  0  0  0  0  0  0  0  0  0
   10.8597    6.3328  -13.8314 Cl  0  0  0  0  0  0  0  0  0  0  0  0
    9.1147    6.1858  -13.5732 C   0  0  0  0  0  0  0  0  0  0  0  0
    8.3671    7.2638  -13.2262 C   0  0  0  0  0  0  0  0  0  0  0  0
    6.9935    7.1146  -13.0300 C   0  0  0  0  0  0  0  0  0  0  0  0
    6.3193    5.9264  -13.1668 C   0  0  0  0  0  0  0  0  0  0  0  0
    7.1438    4.8455  -13.5257 C   0  0  0  0  0  0  0  0  0  0  0  0
    8.5029    4.9686  -13.7245 C   0  0  0  0  0  0  0  0  0  0  0  0
    0.7541   11.8081  -13.2162 C   0  0  0  0  0  0  0  0  0  0  0  0
    1.5927   12.7451  -12.4512 C   0  0  0  0  0  0  0  0  0  0  0  0
    1.3081   13.9883  -12.0563 N   0  0  0  0  0  0  0  0  0  0  0  0
    2.3734   14.4971  -11.3700 C   0  0  0  0  0  0  0  0  0  0  0  0
    3.3364   13.5737  -11.3313 N   0  0  0  0  0  0  0  0  0  0  0  0
    2.8842   12.4977  -11.9833 C   0  0  0  0  0  0  0  0  0  0  0  0
    4.2535   13.6672  -10.8866 H   0  0  0  0  0  0  0  0  0  0  0  0
 16 17  1  0  0  0
 17 18  2  0  0  0
 17 22  1  0  0  0
 18 19  1  0  0  0
 19 20  2  0  0  0
 20 21  1  0  0  0
 20  1  1  0  0  0
 21 22  2  0  0  0
  1  2  2  0  0  0
  1  3  1  0  0  0
  3  4  1  0  0  0
  3  8  1  0  0  0
  4  5  1  0  0  0
  5  6  1  0  0  0
  5 13  1  0  0  0
  6  7  1  0  0  0
  6  9  1  0  0  0
  7  8  1  0  0  0
  9 10  2  0  0  0
  9 11  1  0  0  0
 11 12  1  0  0  0
 11 23  1  0  0  0
 12 13  1  0  0  0
 13 14  2  0  0  0
 23 24  1  0  0  0
 24 25  1  0  0  0
 24 28  2  0  0  0
 25 26  2  0  0  0
 26 27  1  0  0  0
 27 28  1  0  0  0
 12 15  1  0  0  0
 27 29  1  0  0  0
M  END
> <minimizedAffinity>
-7.05610

$$$$
1591


 26 29  0  0  0  0  0  0  0  0999 V2000
    3.7376   12.7136  -12.0024 Cl  0  0  0  0  0  0  0  0  0  0  0  0
    2.0950   12.9165  -12.5687 C   0  0  0  0  0  0  0  0  0  0  0  0
    1.4341   11.8735  -13.1536 C   0  0  0  0  0  0  0  0  0  0  0  0
    0.1336   12.1557  -13.5802 C   0  0  0  0  0  0  0  0  0  0  0  0
   -0.3965   13.3770  -13.4099 N   0  0  0  0  0  0  0  0  0  0  0  0
    0.2212   14.3928  -12.8503 N   0  0  0  0  0  0  0  0  0  0  0  0
    1.4715   14.1680  -12.4256 C   0  0  0  0  0  0  0  0  0  0  0  0
    2.1447   15.0770  -11.8765 O   0  0  0  0  0  0  0  0  0  0  0  0
   -0.4156   15.6586  -12.7081 C   0  0  0  0  0  0  0  0  0  0  0  0
   -0.1668   16.5034  -11.6448 C   0  0  0  0  0  0  0  0  0  0  0  0
   -0.7883   17.7272  -11.5174 C   0  0  0  0  0  0  0  0  0  0  0  0
   -1.6968   18.1555  -12.4645 C   0  0  0  0  0  0  0  0  0  0  0  0
   -1.9493   17.3165  -13.5292 C   0  0  0  0  0  0  0  0  0  0  0  0
   -1.3237   16.0906  -13.6529 C   0  0  0  0  0  0  0  0  0  0  0  0
    1.9932   10.5829  -13.3086 N   0  0  0  0  0  0  0  0  0  0  0  0
    2.5789   10.1224  -14.5566 C   0  0  0  0  0  0  0  0  0  0  0  0
    1.8206    8.9526  -15.1287 C   0  0  0  0  0  0  0  0  0  0  0  0
    1.4748    8.0980  -14.0192 N   0  0  0  0  0  0  0  0  0  0  0  0
    2.2710    8.1897  -12.8230 C   0  0  0  0  0  0  0  0  0  0  0  0
    2.0059    9.5936  -12.2365 C   0  0  0  0  0  0  0  0  0  0  0  0
    0.3878    7.1947  -14.0990 C   0  0  0  0  0  0  0  0  0  0  0  0
    0.2611    5.9939  -13.4645 N   0  0  0  0  0  0  0  0  0  0  0  0
   -0.8933    5.4484  -13.7915 N   0  0  0  0  0  0  0  0  0  0  0  0
   -1.5113    6.2758  -14.6246 C   0  0  0  0  0  0  0  0  0  0  0  0
   -0.7290    7.3093  -14.7932 O   0  0  0  0  0  0  0  0  0  0  0  0
   -2.8480    6.1219  -15.2851 C   0  0  0  0  0  0  0  0  0  0  0  0
  1  2  1  0  0  0
  2  3  2  0  0  0
  2  7  1  0  0  0
  3  4  1  0  0  0
  3 15  1  0  0  0
  4  5  2  0  0  0
  5  6  1  0  0  0
  6  7  1  0  0  0
  6  9  1  0  0  0
  7  8  2  0  0  0
  9 10  2  0  0  0
  9 14  1  0  0  0
 10 11  1  0  0  0
 11 12  2  0  0  0
 12 13  1  0  0  0
 13 14  2  0  0  0
 15 16  1  0  0  0
 15 20  1  0  0  0
 16 17  1  0  0  0
 17 18  1  0  0  0
 18 19  1  0  0  0
 18 21  1  0  0  0
 19 20  1  0  0  0
 21 22  2  0  0  0
 21 25  1  0  0  0
 22 23  1  0  0  0
 23 24  2  0  0  0
 24 25  1  0  0  0
 24 26  1  0  0  0
M  END
> <minimizedAffinity>
-8.71515

$$$$
1594


 27 30  0  0  0  0  0  0  0  0999 V2000
    1.1902   14.7169  -11.7394 C   0  0  0  0  0  0  0  0  0  0  0  0
    1.2910   14.7481  -10.4578 O   0  0  0  0  0  0  0  0  0  0  0  0
    0.8154   15.8937  -12.3583 N   0  0  0  0  0  0  0  0  0  0  0  0
    0.6618   16.0400  -13.7858 C   0  0  0  0  0  0  0  0  0  0  0  0
   -0.7934   16.2322  -14.1566 C   0  0  0  0  0  0  0  0  0  0  0  0
   -1.4673   17.0730  -13.1101 C   0  0  0  0  0  0  0  0  0  0  0  0
   -0.8822   17.4857  -11.9445 C   0  0  0  0  0  0  0  0  0  0  0  0
   -1.8314   18.2133  -11.3005 N   0  0  0  0  0  0  0  0  0  0  0  0
   -2.9409   18.2613  -12.0021 N   0  0  0  0  0  0  0  0  0  0  0  0
   -2.7790   17.5715  -13.1383 C   0  0  0  0  0  0  0  0  0  0  0  0
   -3.6206   17.3852  -14.0750 O   0  0  0  0  0  0  0  0  0  0  0  0
    0.5228   17.1300  -11.5929 C   0  0  0  0  0  0  0  0  0  0  0  0
   -1.6508   18.6568  -10.3676 H   0  0  0  0  0  0  0  0  0  0  0  0
    4.2070    8.4599  -14.8255 Cl  0  0  0  0  0  0  0  0  0  0  0  0
    3.0791    9.6817  -14.2682 C   0  0  0  0  0  0  0  0  0  0  0  0
    3.5266   10.8136  -13.6256 C   0  0  0  0  0  0  0  0  0  0  0  0
    2.6221   11.7416  -13.2066 N   0  0  0  0  0  0  0  0  0  0  0  0
    1.3187   11.5374  -13.4268 C   0  0  0  0  0  0  0  0  0  0  0  0
    0.6291   12.5765  -12.9298 N   0  0  0  0  0  0  0  0  0  0  0  0
    1.4790   13.4509  -12.3909 C   0  0  0  0  0  0  0  0  0  0  0  0
    2.7628   12.9117  -12.5697 C   0  0  0  0  0  0  0  0  0  0  0  0
    0.8336   10.3913  -14.0805 C   0  0  0  0  0  0  0  0  0  0  0  0
    1.7327    9.4611  -14.5013 C   0  0  0  0  0  0  0  0  0  0  0  0
   -4.1961   18.9436  -11.6561 C   0  0  0  0  0  0  0  0  0  0  0  0
   -4.0472   19.7194  -10.3677 C   0  0  0  0  0  0  0  0  0  0  0  0
   -3.0436   20.6778  -10.4430 O   0  0  0  0  0  0  0  0  0  0  0  0
   -2.5388   20.7630   -9.5801 H   0  0  0  0  0  0  0  0  0  0  0  0
 14 15  1  0  0  0
 15 16  2  0  0  0
 15 23  1  0  0  0
 16 17  1  0  0  0
 17 18  1  0  0  0
 17 21  1  0  0  0
 18 19  2  0  0  0
 18 22  1  0  0  0
 19 20  1  0  0  0
 20 21  2  0  0  0
 20  1  1  0  0  0
  1  2  2  0  0  0
  1  3  1  0  0  0
  3  4  1  0  0  0
  3 12  1  0  0  0
  4  5  1  0  0  0
  5  6  1  0  0  0
  6  7  2  0  0  0
  6 10  1  0  0  0
  7  8  1  0  0  0
  7 12  1  0  0  0
  8  9  1  0  0  0
  9 10  1  0  0  0
  9 24  1  0  0  0
 10 11  2  0  0  0
 24 25  1  0  0  0
 25 26  1  0  0  0
 22 23  2  0  0  0
  8 13  1  0  0  0
 26 27  1  0  0  0
M  END
> <minimizedAffinity>
-8.10654

$$$$
1599


 30 33  0  0  0  0  0  0  0  0999 V2000
    0.3818    7.6794  -13.2020 C   0  0  0  0  0  0  0  0  0  0  0  0
    0.2517    7.2720  -11.9940 O   0  0  0  0  0  0  0  0  0  0  0  0
    1.5857    8.2299  -13.6616 N   0  0  0  0  0  0  0  0  0  0  0  0
    1.7656    8.6979  -14.9986 C   0  0  0  0  0  0  0  0  0  0  0  0
    2.6471    9.9122  -15.0751 C   0  0  0  0  0  0  0  0  0  0  0  0
    2.7513   10.7038  -13.7900 C   0  0  0  0  0  0  0  0  0  0  0  0
    3.8591   11.6172  -14.0350 N   0  0  0  0  0  0  0  0  0  0  0  0
    4.0542   12.6323  -13.0718 C   0  0  0  0  0  0  0  0  0  0  0  0
    2.9317   12.9431  -12.1513 C   0  0  0  0  0  0  0  0  0  0  0  0
    1.6058   12.6267  -12.7680 C   0  0  0  0  0  0  0  0  0  0  0  0
    0.4212   13.2313  -12.6882 N   0  0  0  0  0  0  0  0  0  0  0  0
   -0.4163   12.5018  -13.4547 C   0  0  0  0  0  0  0  0  0  0  0  0
    0.2411   11.4563  -14.0026 N   0  0  0  0  0  0  0  0  0  0  0  0
    1.5350   11.5191  -13.5742 C   0  0  0  0  0  0  0  0  0  0  0  0
    3.0264    9.8589  -12.5727 C   0  0  0  0  0  0  0  0  0  0  0  0
    2.7410    8.3833  -12.7847 C   0  0  0  0  0  0  0  0  0  0  0  0
    4.7023   10.9781  -14.1078 H   0  0  0  0  0  0  0  0  0  0  0  0
   -0.1717   10.7452  -14.6291 H   0  0  0  0  0  0  0  0  0  0  0  0
   -0.8509    7.5137  -14.0535 C   0  0  0  0  0  0  0  0  0  0  0  0
   -2.7000    9.4166  -13.5081 C   0  0  0  0  0  0  0  0  0  0  0  0
   -2.5689   10.4807  -12.8063 O   0  0  0  0  0  0  0  0  0  0  0  0
   -1.7972    8.4872  -13.7744 N   0  0  0  0  0  0  0  0  0  0  0  0
   -0.8568    9.1651  -13.0191 H   0  0  0  0  0  0  0  0  0  0  0  0
   -7.7088   11.2195  -13.9099 Br  0  0  0  0  0  0  0  0  0  0  0  0
   -6.3615    9.9606  -14.3106 C   0  0  0  0  0  0  0  0  0  0  0  0
   -5.0837   10.1428  -13.8044 C   0  0  0  0  0  0  0  0  0  0  0  0
   -4.0827    9.2498  -14.0807 C   0  0  0  0  0  0  0  0  0  0  0  0
   -4.2835    8.1482  -14.8572 C   0  0  0  0  0  0  0  0  0  0  0  0
   -5.5698    7.9565  -15.3710 C   0  0  0  0  0  0  0  0  0  0  0  0
   -6.5831    8.8550  -15.0939 C   0  0  0  0  0  0  0  0  0  0  0  0
 24 25  1  0  0  0
 25 26  2  0  0  0
 25 30  1  0  0  0
 26 27  1  0  0  0
 27 28  2  0  0  0
 27 20  1  0  0  0
 28 29  1  0  0  0
 29 30  2  0  0  0
 20 21  2  0  0  0
 20 22  1  0  0  0
 22 19  1  0  0  0
 19  1  1  0  0  0
  1  2  2  0  0  0
  1  3  1  0  0  0
  3  4  1  0  0  0
  3 16  1  0  0  0
  4  5  1  0  0  0
  5  6  1  0  0  0
  6  7  1  0  0  0
  6 14  1  0  0  0
  6 15  1  0  0  0
  7  8  1  0  0  0
  8  9  1  0  0  0
  9 10  1  0  0  0
 10 11  1  0  0  0
 10 14  2  0  0  0
 11 12  2  0  0  0
 12 13  1  0  0  0
 13 14  1  0  0  0
 15 16  1  0  0  0
 22 23  1  0  0  0
  7 17  1  0  0  0
 13 18  1  0  0  0
M  END
> <minimizedAffinity>
-8.76232

$$$$
1609


 26 29  0  0  0  0  0  0  0  0999 V2000
    0.9876   15.2369  -12.6299 N   0  0  0  0  0  0  0  0  0  0  0  0
    1.2577   14.0677  -11.8364 C   0  0  0  0  0  0  0  0  0  0  0  0
    2.7196   14.2697  -11.4905 C   0  0  0  0  0  0  0  0  0  0  0  0
    3.2301   14.7001  -12.7454 O   0  0  0  0  0  0  0  0  0  0  0  0
    2.2354   15.5777  -13.2230 C   0  0  0  0  0  0  0  0  0  0  0  0
    2.4728   16.5107  -14.0538 O   0  0  0  0  0  0  0  0  0  0  0  0
    3.0820   12.8765  -11.1251 C   0  0  0  0  0  0  0  0  0  0  0  0
    2.5728   12.1354  -12.3017 N   0  0  0  0  0  0  0  0  0  0  0  0
    1.3906   12.8190  -12.7263 C   0  0  0  0  0  0  0  0  0  0  0  0
    3.2427   11.0049  -12.7779 C   0  0  0  0  0  0  0  0  0  0  0  0
    4.3274   10.6015  -12.1882 O   0  0  0  0  0  0  0  0  0  0  0  0
    2.8508   10.1874  -13.9112 C   0  0  0  0  0  0  0  0  0  0  0  0
    1.7781    9.3541  -13.9870 N   0  0  0  0  0  0  0  0  0  0  0  0
    1.7622    8.7906  -15.1925 C   0  0  0  0  0  0  0  0  0  0  0  0
    2.8021    9.2432  -15.8957 N   0  0  0  0  0  0  0  0  0  0  0  0
    3.4857   10.1100  -15.1154 C   0  0  0  0  0  0  0  0  0  0  0  0
    0.8310    9.1342  -12.9254 C   0  0  0  0  0  0  0  0  0  0  0  0
   -0.2328   15.9780  -12.8506 C   0  0  0  0  0  0  0  0  0  0  0  0
   -0.4638   17.0746  -11.8470 C   0  0  0  0  0  0  0  0  0  0  0  0
   -4.1421   20.2744   -9.9920 Cl  0  0  0  0  0  0  0  0  0  0  0  0
   -3.4878   19.2513  -11.2744 C   0  0  0  0  0  0  0  0  0  0  0  0
   -2.2970   18.5932  -11.0803 C   0  0  0  0  0  0  0  0  0  0  0  0
   -1.7492   17.7764  -12.0696 C   0  0  0  0  0  0  0  0  0  0  0  0
   -2.4657   17.6679  -13.2445 C   0  0  0  0  0  0  0  0  0  0  0  0
   -3.6634   18.3338  -13.4301 C   0  0  0  0  0  0  0  0  0  0  0  0
   -4.2005   19.1402  -12.4492 C   0  0  0  0  0  0  0  0  0  0  0  0
 20 21  1  0  0  0
 21 22  2  0  0  0
 21 26  1  0  0  0
 22 23  1  0  0  0
 23 24  2  0  0  0
 23 19  1  0  0  0
 24 25  1  0  0  0
 25 26  2  0  0  0
 19 18  1  0  0  0
 18  1  1  0  0  0
  1  2  1  0  0  0
  1  5  1  0  0  0
  2  3  1  0  0  0
  2  9  1  0  0  0
  3  4  1  0  0  0
  3  7  1  0  0  0
  4  5  1  0  0  0
  5  6  2  0  0  0
  7  8  1  0  0  0
  8  9  1  0  0  0
  8 10  1  0  0  0
 10 11  2  0  0  0
 10 12  1  0  0  0
 12 13  1  0  0  0
 12 16  2  0  0  0
 13 14  1  0  0  0
 13 17  1  0  0  0
 14 15  2  0  0  0
 15 16  1  0  0  0
M  END
> <minimizedAffinity>
-8.22099

$$$$
1612


 31 34  0  0  0  0  0  0  0  0999 V2000
    2.8059    7.8175  -13.8124 N   0  0  0  0  0  0  0  0  0  0  0  0
    4.1334    7.6809  -14.0096 C   0  0  0  0  0  0  0  0  0  0  0  0
    4.5255    6.5515  -13.3306 C   0  0  0  0  0  0  0  0  0  0  0  0
    3.4519    6.0476  -12.7548 N   0  0  0  0  0  0  0  0  0  0  0  0
    2.3718    6.8162  -13.0415 C   0  0  0  0  0  0  0  0  0  0  0  0
    5.8416    6.2017  -13.3830 N   0  0  0  0  0  0  0  0  0  0  0  0
    6.7351    6.9235  -14.0692 C   0  0  0  0  0  0  0  0  0  0  0  0
    7.9431    6.5569  -14.0878 O   0  0  0  0  0  0  0  0  0  0  0  0
    6.3955    8.0291  -14.7443 N   0  0  0  0  0  0  0  0  0  0  0  0
    5.0939    8.4021  -14.7108 C   0  0  0  0  0  0  0  0  0  0  0  0
    4.7708    9.4331  -15.3404 O   0  0  0  0  0  0  0  0  0  0  0  0
    6.2776    5.0017  -12.6725 C   0  0  0  0  0  0  0  0  0  0  0  0
    7.1247    8.5630  -15.2676 H   0  0  0  0  0  0  0  0  0  0  0  0
    1.0304    6.5139  -12.6283 N   0  0  0  0  0  0  0  0  0  0  0  0
    0.3889    7.4232  -11.6568 C   0  0  0  0  0  0  0  0  0  0  0  0
   -0.9020    7.9695  -12.1755 C   0  0  0  0  0  0  0  0  0  0  0  0
   -1.4666    7.1077  -13.1883 N   0  0  0  0  0  0  0  0  0  0  0  0
   -1.2302    5.6851  -13.0585 C   0  0  0  0  0  0  0  0  0  0  0  0
    0.2634    5.4123  -13.0873 C   0  0  0  0  0  0  0  0  0  0  0  0
   -2.2293    7.6444  -14.2603 C   0  0  0  0  0  0  0  0  0  0  0  0
   -2.4360    8.8752  -14.3352 O   0  0  0  0  0  0  0  0  0  0  0  0
   -2.7977    6.7704  -15.3138 C   0  0  0  0  0  0  0  0  0  0  0  0
   -4.2737    7.1336  -15.4533 C   0  0  0  0  0  0  0  0  0  0  0  0
    2.0371    8.8602  -14.4134 C   0  0  0  0  0  0  0  0  0  0  0  0
   -0.3357   13.3487  -13.3282 Cl  0  0  0  0  0  0  0  0  0  0  0  0
    1.0091   12.2277  -13.1196 C   0  0  0  0  0  0  0  0  0  0  0  0
    0.9594   11.0281  -13.8178 C   0  0  0  0  0  0  0  0  0  0  0  0
    1.9882   10.1418  -13.6704 C   0  0  0  0  0  0  0  0  0  0  0  0
    3.0590   10.4751  -12.8180 C   0  0  0  0  0  0  0  0  0  0  0  0
    3.0817   11.6622  -12.1441 C   0  0  0  0  0  0  0  0  0  0  0  0
    2.0469   12.5712  -12.2817 C   0  0  0  0  0  0  0  0  0  0  0  0
 25 26  1  0  0  0
 26 27  2  0  0  0
 26 31  1  0  0  0
 27 28  1  0  0  0
 28 29  2  0  0  0
 28 24  1  0  0  0
 29 30  1  0  0  0
 30 31  2  0  0  0
 24  1  1  0  0  0
  1  2  1  0  0  0
  1  5  1  0  0  0
  2  3  2  0  0  0
  2 10  1  0  0  0
  3  4  1  0  0  0
  3  6  1  0  0  0
  4  5  2  0  0  0
  5 14  1  0  0  0
 14 15  1  0  0  0
 14 19  1  0  0  0
 15 16  1  0  0  0
 16 17  1  0  0  0
 17 18  1  0  0  0
 17 20  1  0  0  0
 18 19  1  0  0  0
 20 21  2  0  0  0
 20 22  1  0  0  0
 22 23  1  0  0  0
  6  7  1  0  0  0
  6 12  1  0  0  0
  7  8  2  0  0  0
  7  9  1  0  0  0
  9 10  1  0  0  0
 10 11  2  0  0  0
  9 13  1  0  0  0
M  END
> <minimizedAffinity>
-7.97636

$$$$
1622


 28 31  0  0  0  0  0  0  0  0999 V2000
    2.5927   11.2222  -13.7994 C   0  0  0  0  0  0  0  0  0  0  0  0
    3.7649   10.8941  -14.1163 O   0  0  0  0  0  0  0  0  0  0  0  0
    1.4559   10.4820  -14.2227 N   0  0  0  0  0  0  0  0  0  0  0  0
    1.6573    9.3099  -15.0460 C   0  0  0  0  0  0  0  0  0  0  0  0
    0.4762    8.3896  -14.7989 C   0  0  0  0  0  0  0  0  0  0  0  0
    0.0023    8.4500  -13.3632 C   0  0  0  0  0  0  0  0  0  0  0  0
   -0.9616    7.3879  -13.1878 N   0  0  0  0  0  0  0  0  0  0  0  0
   -0.2603    6.2008  -12.8499 C   0  0  0  0  0  0  0  0  0  0  0  0
   -0.6626    4.9988  -12.9472 O   0  0  0  0  0  0  0  0  0  0  0  0
    1.0175    6.6250  -12.3662 N   0  0  0  0  0  0  0  0  0  0  0  0
    1.0748    8.0512  -12.4164 C   0  0  0  0  0  0  0  0  0  0  0  0
    1.8820    8.7778  -11.7758 O   0  0  0  0  0  0  0  0  0  0  0  0
    2.1158    5.7817  -11.8884 C   0  0  0  0  0  0  0  0  0  0  0  0
   -0.5518    9.7970  -13.0041 C   0  0  0  0  0  0  0  0  0  0  0  0
    0.0946   10.8258  -13.8803 C   0  0  0  0  0  0  0  0  0  0  0  0
   -1.9871    7.4991  -13.2969 H   0  0  0  0  0  0  0  0  0  0  0  0
    4.6153   11.4584  -11.6190 Cl  0  0  0  0  0  0  0  0  0  0  0  0
    3.3380   12.6439  -11.9233 C   0  0  0  0  0  0  0  0  0  0  0  0
    2.4632   12.4200  -12.9640 C   0  0  0  0  0  0  0  0  0  0  0  0
    1.4639   13.3355  -13.2112 C   0  0  0  0  0  0  0  0  0  0  0  0
    1.3278   14.4673  -12.4356 C   0  0  0  0  0  0  0  0  0  0  0  0
    2.2295   14.6510  -11.3998 C   0  0  0  0  0  0  0  0  0  0  0  0
    3.2404   13.7616  -11.1200 C   0  0  0  0  0  0  0  0  0  0  0  0
    0.3013   15.4296  -12.6722 N   0  0  0  0  0  0  0  0  0  0  0  0
   -0.1193   16.3874  -11.8831 N   0  0  0  0  0  0  0  0  0  0  0  0
   -1.1206   17.0820  -12.4982 C   0  0  0  0  0  0  0  0  0  0  0  0
   -1.3289   16.5199  -13.7382 C   0  0  0  0  0  0  0  0  0  0  0  0
   -0.4070   15.4720  -13.8139 C   0  0  0  0  0  0  0  0  0  0  0  0
 17 18  1  0  0  0
 18 19  2  0  0  0
 18 23  1  0  0  0
 19 20  1  0  0  0
 19  1  1  0  0  0
 20 21  2  0  0  0
 21 22  1  0  0  0
 21 24  1  0  0  0
 22 23  2  0  0  0
 24 25  1  0  0  0
 24 28  1  0  0  0
 25 26  2  0  0  0
 26 27  1  0  0  0
 27 28  2  0  0  0
  1  2  2  0  0  0
  1  3  1  0  0  0
  3  4  1  0  0  0
  3 15  1  0  0  0
  4  5  1  0  0  0
  5  6  1  0  0  0
  6  7  1  0  0  0
  6 11  1  0  0  0
  6 14  1  0  0  0
  7  8  1  0  0  0
  8  9  2  0  0  0
  8 10  1  0  0  0
 10 11  1  0  0  0
 10 13  1  0  0  0
 11 12  2  0  0  0
 14 15  1  0  0  0
  7 16  1  0  0  0
M  END
> <minimizedAffinity>
-7.37741

$$$$
1624


 32 35  0  0  0  0  0  0  0  0999 V2000
    2.4679    8.1194  -12.8025 C   0  0  0  0  0  0  0  0  0  0  0  0
    3.0784    9.1397  -13.6743 N   0  0  0  0  0  0  0  0  0  0  0  0
    2.5157    9.0081  -14.9730 C   0  0  0  0  0  0  0  0  0  0  0  0
    2.9899    9.4085  -16.0381 O   0  0  0  0  0  0  0  0  0  0  0  0
    1.2330    8.2932  -14.8233 C   0  0  0  0  0  0  0  0  0  0  0  0
    0.4099    7.9639  -15.7367 O   0  0  0  0  0  0  0  0  0  0  0  0
    1.0951    8.0315  -13.3999 C   0  0  0  0  0  0  0  0  0  0  0  0
   -0.0393    7.7453  -12.8109 C   0  0  0  0  0  0  0  0  0  0  0  0
   -0.0157    7.4728  -11.4464 O   0  0  0  0  0  0  0  0  0  0  0  0
    5.4717    2.9389  -13.1598 Cl  0  0  0  0  0  0  0  0  0  0  0  0
    4.6235    4.4577  -13.0730 C   0  0  0  0  0  0  0  0  0  0  0  0
    5.1850    5.6162  -13.5224 C   0  0  0  0  0  0  0  0  0  0  0  0
    4.4665    6.7992  -13.4291 C   0  0  0  0  0  0  0  0  0  0  0  0
    3.2154    6.8726  -12.9058 C   0  0  0  0  0  0  0  0  0  0  0  0
    2.6445    5.6855  -12.4474 C   0  0  0  0  0  0  0  0  0  0  0  0
    3.3376    4.4993  -12.5292 C   0  0  0  0  0  0  0  0  0  0  0  0
   -1.3474    7.6870  -13.4548 C   0  0  0  0  0  0  0  0  0  0  0  0
   -2.0349    8.8911  -13.5564 C   0  0  0  0  0  0  0  0  0  0  0  0
   -3.2550    8.9167  -14.1709 C   0  0  0  0  0  0  0  0  0  0  0  0
   -3.8198    7.7688  -14.6924 C   0  0  0  0  0  0  0  0  0  0  0  0
   -3.1338    6.5776  -14.5891 C   0  0  0  0  0  0  0  0  0  0  0  0
   -1.9018    6.5645  -13.9671 C   0  0  0  0  0  0  0  0  0  0  0  0
   -5.3702    7.8503  -15.4624 Cl  0  0  0  0  0  0  0  0  0  0  0  0
    4.0610   10.0662  -13.1728 C   0  0  0  0  0  0  0  0  0  0  0  0
    3.7245   11.5023  -13.3070 C   0  0  0  0  0  0  0  0  0  0  0  0
    2.8230   12.0836  -12.3831 N   0  0  0  0  0  0  0  0  0  0  0  0
    1.4541   12.1413  -12.8506 C   0  0  0  0  0  0  0  0  0  0  0  0
    0.8642   13.5310  -12.8304 C   0  0  0  0  0  0  0  0  0  0  0  0
    1.0439   14.2160  -11.6567 O   0  0  0  0  0  0  0  0  0  0  0  0
    2.3379   14.1590  -11.1737 C   0  0  0  0  0  0  0  0  0  0  0  0
    3.2178   13.4948  -12.1890 C   0  0  0  0  0  0  0  0  0  0  0  0
    2.8842   11.6793  -11.4344 H   0  0  0  0  0  0  0  0  0  0  0  0
 10 11  1  0  0  0
 11 12  2  0  0  0
 11 16  1  0  0  0
 12 13  1  0  0  0
 13 14  2  0  0  0
 14 15  1  0  0  0
 14  1  1  0  0  0
 15 16  2  0  0  0
  1  2  1  0  0  0
  1  7  1  0  0  0
  2  3  1  0  0  0
  2 24  1  0  0  0
  3  4  2  0  0  0
  3  5  1  0  0  0
  5  6  2  0  0  0
  5  7  1  0  0  0
  7  8  2  0  0  0
  8  9  1  0  0  0
  8 17  1  0  0  0
 17 18  2  0  0  0
 17 22  1  0  0  0
 18 19  1  0  0  0
 19 20  2  0  0  0
 20 21  1  0  0  0
 20 23  1  0  0  0
 21 22  2  0  0  0
 24 25  1  0  0  0
 25 26  1  0  0  0
 26 27  1  0  0  0
 26 31  1  0  0  0
 27 28  1  0  0  0
 28 29  1  0  0  0
 29 30  1  0  0  0
 30 31  1  0  0  0
 26 32  1  0  0  0
M  CHG 1   9  -1
M  CHG 1  26   1
M  END
> <minimizedAffinity>
-8.92896

$$$$
1630


 39 43  0  0  0  0  0  0  0  0999 V2000
    3.3617   14.0093  -11.2887 Cl  0  0  0  0  0  0  0  0  0  0  0  0
    3.1553   12.3820  -11.9543 C   0  0  0  0  0  0  0  0  0  0  0  0
    3.8404   12.0092  -13.0850 C   0  0  0  0  0  0  0  0  0  0  0  0
    3.6809   10.7331  -13.6089 C   0  0  0  0  0  0  0  0  0  0  0  0
    2.8580    9.7914  -13.0532 C   0  0  0  0  0  0  0  0  0  0  0  0
    2.1714   10.1995  -11.8990 C   0  0  0  0  0  0  0  0  0  0  0  0
    2.3222   11.4628  -11.3709 C   0  0  0  0  0  0  0  0  0  0  0  0
    2.9164    8.5707  -13.8404 C   0  0  0  0  0  0  0  0  0  0  0  0
    3.4557    7.5143  -12.9888 N   0  0  0  0  0  0  0  0  0  0  0  0
    2.2916    6.7413  -12.6517 C   0  0  0  0  0  0  0  0  0  0  0  0
    1.5812    6.6487  -13.9829 C   0  0  0  0  0  0  0  0  0  0  0  0
    1.6269    8.0980  -14.4158 C   0  0  0  0  0  0  0  0  0  0  0  0
    0.4081    8.6757  -13.8865 C   0  0  0  0  0  0  0  0  0  0  0  0
    0.1503    9.8928  -13.7575 O   0  0  0  0  0  0  0  0  0  0  0  0
   -0.4822    7.6298  -13.5222 N   0  0  0  0  0  0  0  0  0  0  0  0
    0.1323    6.3729  -13.8118 C   0  0  0  0  0  0  0  0  0  0  0  0
   -0.3821    5.2341  -13.9152 O   0  0  0  0  0  0  0  0  0  0  0  0
    3.8723    8.8638  -14.9346 C   0  0  0  0  0  0  0  0  0  0  0  0
    4.2460    8.0921  -15.8668 O   0  0  0  0  0  0  0  0  0  0  0  0
    4.3136   10.1918  -14.7620 N   0  0  0  0  0  0  0  0  0  0  0  0
    4.7485   12.9992  -13.7277 C   0  0  0  0  0  0  0  0  0  0  0  0
    3.9470    7.9379  -12.1732 H   0  0  0  0  0  0  0  0  0  0  0  0
    5.0005   10.6845  -15.3938 H   0  0  0  0  0  0  0  0  0  0  0  0
   -1.8117    7.7257  -12.9494 C   0  0  0  0  0  0  0  0  0  0  0  0
   -2.8599    7.7932  -13.9832 C   0  0  0  0  0  0  0  0  0  0  0  0
   -3.4815    9.0056  -14.1929 C   0  0  0  0  0  0  0  0  0  0  0  0
   -4.4682    9.0624  -15.1677 C   0  0  0  0  0  0  0  0  0  0  0  0
   -4.8167    7.9614  -15.8980 C   0  0  0  0  0  0  0  0  0  0  0  0
   -4.1725    6.7706  -15.6596 C   0  0  0  0  0  0  0  0  0  0  0  0
   -3.1858    6.6493  -14.7060 C   0  0  0  0  0  0  0  0  0  0  0  0
   -3.1131   10.1033  -13.4439 O   0  0  0  0  0  0  0  0  0  0  0  0
   -2.4104   11.2029  -13.9313 C   0  0  0  0  0  0  0  0  0  0  0  0
    2.6681    5.3796  -12.1120 C   0  0  0  0  0  0  0  0  0  0  0  0
    3.9249    4.9535  -12.8415 C   0  0  0  0  0  0  0  0  0  0  0  0
    4.0201    3.4772  -12.9573 C   0  0  0  0  0  0  0  0  0  0  0  0
    3.5728    2.7515  -12.0244 O   0  0  0  0  0  0  0  0  0  0  0  0
    4.6202    2.9525  -14.1335 N   0  0  0  0  0  0  0  0  0  0  0  0
    4.4423    3.4354  -15.0301 H   0  0  0  0  0  0  0  0  0  0  0  0
    5.2161    2.0935  -14.0231 H   0  0  0  0  0  0  0  0  0  0  0  0
  1  2  1  0  0  0
  2  3  2  0  0  0
  2  7  1  0  0  0
  3  4  1  0  0  0
  3 21  1  0  0  0
  4  5  2  0  0  0
  4 20  1  0  0  0
  5  6  1  0  0  0
  5  8  1  0  0  0
  6  7  2  0  0  0
  8  9  1  0  0  0
  8 12  1  0  0  0
  8 18  1  0  0  0
  9 10  1  0  0  0
 10 11  1  0  0  0
 10 33  1  0  0  0
 11 12  1  0  0  0
 11 16  1  0  0  0
 12 13  1  0  0  0
 13 14  2  0  0  0
 13 15  1  0  0  0
 15 16  1  0  0  0
 15 24  1  0  0  0
 16 17  2  0  0  0
 24 25  1  0  0  0
 25 26  2  0  0  0
 25 30  1  0  0  0
 26 27  1  0  0  0
 26 31  1  0  0  0
 27 28  2  0  0  0
 28 29  1  0  0  0
 29 30  2  0  0  0
 31 32  1  0  0  0
 33 34  1  0  0  0
 34 35  1  0  0  0
 35 36  2  0  0  0
 35 37  1  0  0  0
 18 19  2  0  0  0
 18 20  1  0  0  0
  9 22  1  0  0  0
 37 38  1  0  0  0
 37 39  1  0  0  0
 20 23  1  0  0  0
M  END
> <minimizedAffinity>
-5.90442

$$$$
1631


 29 32  0  0  0  0  0  0  0  0999 V2000
    0.4689   10.5229  -12.9641 C   0  0  0  0  0  0  0  0  0  0  0  0
    0.5073   11.9490  -13.1209 N   0  0  0  0  0  0  0  0  0  0  0  0
   -0.4167   12.3690  -14.1197 C   0  0  0  0  0  0  0  0  0  0  0  0
   -0.4572   13.4891  -14.7068 O   0  0  0  0  0  0  0  0  0  0  0  0
   -1.3485   11.2484  -14.3655 C   0  0  0  0  0  0  0  0  0  0  0  0
   -2.2924   11.2643  -15.1874 O   0  0  0  0  0  0  0  0  0  0  0  0
   -0.9096   10.1897  -13.4658 C   0  0  0  0  0  0  0  0  0  0  0  0
   -1.6210    9.1163  -13.1944 C   0  0  0  0  0  0  0  0  0  0  0  0
   -1.0335    8.1583  -12.3429 O   0  0  0  0  0  0  0  0  0  0  0  0
    3.9192    6.5815  -13.2130 Cl  0  0  0  0  0  0  0  0  0  0  0  0
    3.1382    7.9936  -13.8898 C   0  0  0  0  0  0  0  0  0  0  0  0
    2.1600    8.6853  -13.2155 C   0  0  0  0  0  0  0  0  0  0  0  0
    1.5211    9.8070  -13.7285 C   0  0  0  0  0  0  0  0  0  0  0  0
    1.9152   10.2282  -14.9946 C   0  0  0  0  0  0  0  0  0  0  0  0
    2.8919    9.5540  -15.6920 C   0  0  0  0  0  0  0  0  0  0  0  0
    3.4980    8.4443  -15.1409 C   0  0  0  0  0  0  0  0  0  0  0  0
    1.3413   12.8287  -12.3973 C   0  0  0  0  0  0  0  0  0  0  0  0
    0.7919   14.0248  -12.0577 N   0  0  0  0  0  0  0  0  0  0  0  0
    1.4754   14.9414  -11.3738 C   0  0  0  0  0  0  0  0  0  0  0  0
    2.7694   14.6476  -11.0097 C   0  0  0  0  0  0  0  0  0  0  0  0
    3.3055   13.4276  -11.3640 C   0  0  0  0  0  0  0  0  0  0  0  0
    2.6089   12.5089  -12.0559 N   0  0  0  0  0  0  0  0  0  0  0  0
   -0.2026   14.2576  -12.3303 H   0  0  0  0  0  0  0  0  0  0  0  0
   -2.9602    8.8635  -13.7081 C   0  0  0  0  0  0  0  0  0  0  0  0
   -3.1636    7.8226  -14.6254 C   0  0  0  0  0  0  0  0  0  0  0  0
   -4.4237    7.5420  -15.1060 C   0  0  0  0  0  0  0  0  0  0  0  0
   -5.5370    8.2568  -14.7168 C   0  0  0  0  0  0  0  0  0  0  0  0
   -5.3589    9.2823  -13.8160 C   0  0  0  0  0  0  0  0  0  0  0  0
   -4.0814    9.5655  -13.3307 C   0  0  0  0  0  0  0  0  0  0  0  0
 10 11  1  0  0  0
 11 12  2  0  0  0
 11 16  1  0  0  0
 12 13  1  0  0  0
 13 14  2  0  0  0
 13  1  1  0  0  0
 14 15  1  0  0  0
 15 16  2  0  0  0
  1  2  1  0  0  0
  1  7  1  0  0  0
  2  3  1  0  0  0
  2 17  1  0  0  0
  3  4  2  0  0  0
  3  5  1  0  0  0
  5  6  2  0  0  0
  5  7  1  0  0  0
  7  8  2  0  0  0
  8  9  1  0  0  0
  8 24  1  0  0  0
 24 25  2  0  0  0
 24 29  1  0  0  0
 25 26  1  0  0  0
 26 27  2  0  0  0
 27 28  1  0  0  0
 28 29  2  0  0  0
 17 18  2  0  0  0
 17 22  1  0  0  0
 18 19  1  0  0  0
 19 20  2  0  0  0
 20 21  1  0  0  0
 21 22  2  0  0  0
 18 23  1  0  0  0
M  CHG 1   9  -1
M  END
> <minimizedAffinity>
-7.17327

$$$$
1637


 29 32  0  0  0  0  0  0  0  0999 V2000
    2.2767   12.3591  -12.7489 C   0  0  0  0  0  0  0  0  0  0  0  0
    3.0650   11.6903  -13.5980 N   0  0  0  0  0  0  0  0  0  0  0  0
    2.6665   10.6624  -14.3413 C   0  0  0  0  0  0  0  0  0  0  0  0
    1.3284   10.2581  -14.2078 C   0  0  0  0  0  0  0  0  0  0  0  0
    0.5373   10.9363  -13.3499 C   0  0  0  0  0  0  0  0  0  0  0  0
    1.0157   11.9870  -12.6260 N   0  0  0  0  0  0  0  0  0  0  0  0
   -0.7882   10.5474  -13.2260 O   0  0  0  0  0  0  0  0  0  0  0  0
    0.9760    9.0377  -14.9379 C   0  0  0  0  0  0  0  0  0  0  0  0
    1.9778    8.0780  -14.5891 N   0  0  0  0  0  0  0  0  0  0  0  0
    3.1476    8.4752  -15.4913 C   0  0  0  0  0  0  0  0  0  0  0  0
    3.5329    9.8962  -15.2754 C   0  0  0  0  0  0  0  0  0  0  0  0
   -1.3657   10.2280  -14.0103 H   0  0  0  0  0  0  0  0  0  0  0  0
    3.0003   13.6415  -11.7606 S   0  0  0  0  0  0  0  0  0  0  0  0
    4.2904   13.2650  -11.2270 O   0  0  0  0  0  0  0  0  0  0  0  0
    2.0119   13.9506  -10.6767 O   0  0  0  0  0  0  0  0  0  0  0  0
    3.0800   15.0905  -12.8422 C   0  0  0  0  0  0  0  0  0  0  0  0
    2.6322    8.2316  -13.2396 C   0  0  0  0  0  0  0  0  0  0  0  0
    3.0623    6.7794  -13.0158 C   0  0  0  0  0  0  0  0  0  0  0  0
    4.2752    6.2712  -13.2742 C   0  0  0  0  0  0  0  0  0  0  0  0
    4.6315    4.9141  -13.0475 C   0  0  0  0  0  0  0  0  0  0  0  0
    3.6039    4.1285  -12.5171 C   0  0  0  0  0  0  0  0  0  0  0  0
    3.8874    2.8159  -12.2781 C   0  0  0  0  0  0  0  0  0  0  0  0
    5.1392    2.2129  -12.5319 C   0  0  0  0  0  0  0  0  0  0  0  0
    6.1427    3.0457  -13.0599 C   0  0  0  0  0  0  0  0  0  0  0  0
    5.8400    4.3573  -13.2948 C   0  0  0  0  0  0  0  0  0  0  0  0
    2.4384    4.6109  -12.2545 O   0  0  0  0  0  0  0  0  0  0  0  0
    2.1268    5.8963  -12.4818 C   0  0  0  0  0  0  0  0  0  0  0  0
    0.9511    6.3615  -12.2241 O   0  0  0  0  0  0  0  0  0  0  0  0
    5.5021    7.3403  -13.8643 Cl  0  0  0  0  0  0  0  0  0  0  0  0
 13 14  2  0  0  0
 13 15  2  0  0  0
 13 16  1  0  0  0
 13  1  1  0  0  0
  1  2  2  0  0  0
  1  6  1  0  0  0
  2  3  1  0  0  0
  3  4  2  0  0  0
  3 11  1  0  0  0
  4  5  1  0  0  0
  4  8  1  0  0  0
  5  6  2  0  0  0
  5  7  1  0  0  0
  8  9  1  0  0  0
  9 10  1  0  0  0
  9 17  1  0  0  0
 10 11  1  0  0  0
 17 18  1  0  0  0
 18 19  2  0  0  0
 18 27  1  0  0  0
 19 20  1  0  0  0
 19 29  1  0  0  0
 20 21  2  0  0  0
 20 25  1  0  0  0
 21 22  1  0  0  0
 21 26  1  0  0  0
 22 23  2  0  0  0
 23 24  1  0  0  0
 24 25  2  0  0  0
 26 27  1  0  0  0
 27 28  2  0  0  0
  7 12  1  0  0  0
M  END
> <minimizedAffinity>
-7.13169

$$$$
1638


 38 41  0  0  0  0  0  0  0  0999 V2000
    2.9646    7.1057  -13.2055 C   0  0  0  0  0  0  0  0  0  0  0  0
    3.3365    5.8424  -12.7653 C   0  0  0  0  0  0  0  0  0  0  0  0
    4.6478    5.4808  -12.7854 N   0  0  0  0  0  0  0  0  0  0  0  0
    5.6181    6.2976  -13.2171 C   0  0  0  0  0  0  0  0  0  0  0  0
    5.2645    7.5220  -13.6454 N   0  0  0  0  0  0  0  0  0  0  0  0
    3.9825    7.9251  -13.6441 C   0  0  0  0  0  0  0  0  0  0  0  0
    2.3141    4.9890  -12.3124 N   0  0  0  0  0  0  0  0  0  0  0  0
    2.1166    4.0548  -12.7266 H   0  0  0  0  0  0  0  0  0  0  0  0
    1.7135    5.2952  -11.5194 H   0  0  0  0  0  0  0  0  0  0  0  0
    6.9925    5.9185  -13.2333 N   0  0  0  0  0  0  0  0  0  0  0  0
    7.8150    5.9572  -12.0488 C   0  0  0  0  0  0  0  0  0  0  0  0
    8.5017    4.6585  -11.7287 C   0  0  0  0  0  0  0  0  0  0  0  0
    8.6910    3.7898  -12.9613 C   0  0  0  0  0  0  0  0  0  0  0  0
    8.9184    4.8112  -14.0889 C   0  0  0  0  0  0  0  0  0  0  0  0
    7.6342    5.4754  -14.4579 C   0  0  0  0  0  0  0  0  0  0  0  0
    7.6117    2.9879  -13.2894 N   0  0  0  0  0  0  0  0  0  0  0  0
    6.8766    2.2848  -12.3116 C   0  0  0  0  0  0  0  0  0  0  0  0
    5.4217    2.2062  -12.8045 C   0  0  0  0  0  0  0  0  0  0  0  0
    5.4322    2.3504  -14.3022 C   0  0  0  0  0  0  0  0  0  0  0  0
    6.5839    1.6205  -14.9451 C   0  0  0  0  0  0  0  0  0  0  0  0
    7.9092    2.0538  -14.3405 C   0  0  0  0  0  0  0  0  0  0  0  0
    9.9745    3.0670  -12.8115 C   0  0  0  0  0  0  0  0  0  0  0  0
   10.8578    3.1087  -13.7332 O   0  0  0  0  0  0  0  0  0  0  0  0
   10.3047    2.3080  -11.6833 N   0  0  0  0  0  0  0  0  0  0  0  0
   10.2730    1.2549  -11.7639 H   0  0  0  0  0  0  0  0  0  0  0  0
   10.5921    2.6694  -10.7520 H   0  0  0  0  0  0  0  0  0  0  0  0
    1.2896    7.6176  -13.1963 S   0  0  0  0  0  0  0  0  0  0  0  0
    0.5215    7.0192  -14.3294 O   0  0  0  0  0  0  0  0  0  0  0  0
    0.7081    7.2361  -11.8587 O   0  0  0  0  0  0  0  0  0  0  0  0
    1.2668    9.3841  -13.3056 C   0  0  0  0  0  0  0  0  0  0  0  0
    0.0706   10.0498  -13.4793 C   0  0  0  0  0  0  0  0  0  0  0  0
    0.1004   11.4262  -13.5588 C   0  0  0  0  0  0  0  0  0  0  0  0
    1.2927   12.1372  -13.4690 C   0  0  0  0  0  0  0  0  0  0  0  0
    2.4663   11.4361  -13.2953 C   0  0  0  0  0  0  0  0  0  0  0  0
    2.4693   10.0586  -13.2122 C   0  0  0  0  0  0  0  0  0  0  0  0
    3.9920   12.3237  -13.1791 Cl  0  0  0  0  0  0  0  0  0  0  0  0
   -1.0809    9.3177  -13.5641 O   0  0  0  0  0  0  0  0  0  0  0  0
   -2.3795    9.8409  -13.5427 C   0  0  0  0  0  0  0  0  0  0  0  0
 27 28  2  0  0  0
 27 29  2  0  0  0
 27  1  1  0  0  0
 27 30  1  0  0  0
  1  2  2  0  0  0
  1  6  1  0  0  0
  2  3  1  0  0  0
  2  7  1  0  0  0
  3  4  2  0  0  0
  4  5  1  0  0  0
  4 10  1  0  0  0
  5  6  2  0  0  0
 10 11  1  0  0  0
 10 15  1  0  0  0
 11 12  1  0  0  0
 12 13  1  0  0  0
 13 14  1  0  0  0
 13 16  1  0  0  0
 13 22  1  0  0  0
 14 15  1  0  0  0
 16 17  1  0  0  0
 16 21  1  0  0  0
 17 18  1  0  0  0
 18 19  1  0  0  0
 19 20  1  0  0  0
 20 21  1  0  0  0
 22 23  2  0  0  0
 22 24  1  0  0  0
 30 31  2  0  0  0
 30 35  1  0  0  0
 31 32  1  0  0  0
 31 37  1  0  0  0
 32 33  2  0  0  0
 33 34  1  0  0  0
 34 35  2  0  0  0
 34 36  1  0  0  0
 37 38  1  0  0  0
 24 25  1  0  0  0
 24 26  1  0  0  0
  7  8  1  0  0  0
  7  9  1  0  0  0
M  END
> <minimizedAffinity>
-7.63162

$$$$
1651


 23 26  0  0  0  0  0  0  0  0999 V2000
    2.9776   14.0674  -11.1046 Cl  0  0  0  0  0  0  0  0  0  0  0  0
    3.0427   12.6067  -12.0948 C   0  0  0  0  0  0  0  0  0  0  0  0
    2.1094   11.6072  -11.9691 C   0  0  0  0  0  0  0  0  0  0  0  0
    2.1828   10.4555  -12.7679 C   0  0  0  0  0  0  0  0  0  0  0  0
    3.1766   10.2906  -13.6905 C   0  0  0  0  0  0  0  0  0  0  0  0
    4.1365   11.3102  -13.8255 C   0  0  0  0  0  0  0  0  0  0  0  0
    4.0352   12.4234  -13.0279 C   0  0  0  0  0  0  0  0  0  0  0  0
    3.0629    9.0603  -14.3870 N   0  0  0  0  0  0  0  0  0  0  0  0
    1.9187    8.4085  -13.8641 C   0  0  0  0  0  0  0  0  0  0  0  0
    1.5126    7.2757  -14.2569 O   0  0  0  0  0  0  0  0  0  0  0  0
    1.3083    9.2587  -12.8184 C   0  0  0  0  0  0  0  0  0  0  0  0
    1.3695    8.4720  -11.5261 C   0  0  0  0  0  0  0  0  0  0  0  0
    0.3608    7.3716  -11.6907 C   0  0  0  0  0  0  0  0  0  0  0  0
    0.6329    6.1673  -11.5334 O   0  0  0  0  0  0  0  0  0  0  0  0
   -0.9653    7.7793  -12.0479 N   0  0  0  0  0  0  0  0  0  0  0  0
   -1.1512    8.9676  -12.8058 C   0  0  0  0  0  0  0  0  0  0  0  0
   -2.2586    9.6012  -13.2784 N   0  0  0  0  0  0  0  0  0  0  0  0
   -1.8724   10.6780  -13.9184 N   0  0  0  0  0  0  0  0  0  0  0  0
   -0.5357   10.7984  -13.8972 C   0  0  0  0  0  0  0  0  0  0  0  0
   -0.0514    9.6971  -13.1803 C   0  0  0  0  0  0  0  0  0  0  0  0
    3.9645    8.5769  -15.4376 C   0  0  0  0  0  0  0  0  0  0  0  0
   -1.7973    7.2186  -11.7604 H   0  0  0  0  0  0  0  0  0  0  0  0
   -3.2292    9.2416  -13.1246 H   0  0  0  0  0  0  0  0  0  0  0  0
  1  2  1  0  0  0
  2  3  2  0  0  0
  2  7  1  0  0  0
  3  4  1  0  0  0
  4  5  2  0  0  0
  4 11  1  0  0  0
  5  6  1  0  0  0
  5  8  1  0  0  0
  6  7  2  0  0  0
  8  9  1  0  0  0
  8 21  1  0  0  0
  9 10  2  0  0  0
  9 11  1  0  0  0
 11 12  1  0  0  0
 11 20  1  0  0  0
 12 13  1  0  0  0
 13 14  2  0  0  0
 13 15  1  0  0  0
 15 16  1  0  0  0
 16 17  1  0  0  0
 16 20  2  0  0  0
 17 18  1  0  0  0
 18 19  2  0  0  0
 19 20  1  0  0  0
 15 22  1  0  0  0
 17 23  1  0  0  0
M  END
> <minimizedAffinity>
-6.65866

$$$$
1657


 33 36  0  0  0  0  0  0  0  0999 V2000
    2.9667   15.0670  -12.8543 Cl  0  0  0  0  0  0  0  0  0  0  0  0
    2.8155   13.3077  -12.7626 C   0  0  0  0  0  0  0  0  0  0  0  0
    1.6315   12.6943  -13.1112 C   0  0  0  0  0  0  0  0  0  0  0  0
    1.5198   11.3437  -13.0418 C   0  0  0  0  0  0  0  0  0  0  0  0
    2.6026   10.5632  -12.6147 C   0  0  0  0  0  0  0  0  0  0  0  0
    3.7732   11.1962  -12.2717 C   0  0  0  0  0  0  0  0  0  0  0  0
    3.9049   12.5772  -12.3378 C   0  0  0  0  0  0  0  0  0  0  0  0
    2.4934    9.1456  -12.5401 N   0  0  0  0  0  0  0  0  0  0  0  0
    1.5396    8.4668  -13.4045 C   0  0  0  0  0  0  0  0  0  0  0  0
    0.2938    9.1869  -13.2806 N   0  0  0  0  0  0  0  0  0  0  0  0
    0.3104   10.6010  -13.3882 C   0  0  0  0  0  0  0  0  0  0  0  0
   -0.6809   11.2724  -13.7750 O   0  0  0  0  0  0  0  0  0  0  0  0
    1.3761    7.0652  -12.9200 C   0  0  0  0  0  0  0  0  0  0  0  0
    2.3972    6.1091  -13.4925 C   0  0  0  0  0  0  0  0  0  0  0  0
    3.7432    6.6363  -13.4059 N   0  0  0  0  0  0  0  0  0  0  0  0
    4.1557    7.8597  -14.0639 C   0  0  0  0  0  0  0  0  0  0  0  0
    5.3087    8.2561  -13.7773 O   0  0  0  0  0  0  0  0  0  0  0  0
    3.4296    8.7134  -15.0184 C   0  0  0  0  0  0  0  0  0  0  0  0
    1.9452    8.5720  -14.8609 C   0  0  0  0  0  0  0  0  0  0  0  0
    3.1121    8.6584  -11.8590 H   0  0  0  0  0  0  0  0  0  0  0  0
   -0.6198    8.7205  -13.1163 H   0  0  0  0  0  0  0  0  0  0  0  0
    4.7305    5.9863  -12.6447 C   0  0  0  0  0  0  0  0  0  0  0  0
    5.5003    4.8779  -13.1621 C   0  0  0  0  0  0  0  0  0  0  0  0
    4.8133    4.2081  -14.0885 O   0  0  0  0  0  0  0  0  0  0  0  0
    6.7690    4.4372  -12.8601 N   0  0  0  0  0  0  0  0  0  0  0  0
    7.2938    3.2445  -13.5741 C   0  0  0  0  0  0  0  0  0  0  0  0
    8.7233    3.6472  -13.9698 C   0  0  0  0  0  0  0  0  0  0  0  0
    8.8766    5.0632  -13.9967 N   0  0  0  0  0  0  0  0  0  0  0  0
    8.8099    5.7234  -12.7271 C   0  0  0  0  0  0  0  0  0  0  0  0
    7.6772    5.0030  -11.9421 C   0  0  0  0  0  0  0  0  0  0  0  0
    9.8691    5.5704  -14.8819 C   0  0  0  0  0  0  0  0  0  0  0  0
   10.8595    6.5048  -14.2178 C   0  0  0  0  0  0  0  0  0  0  0  0
   10.6223    4.4977  -15.6205 C   0  0  0  0  0  0  0  0  0  0  0  0
  1  2  1  0  0  0
  2  3  2  0  0  0
  2  7  1  0  0  0
  3  4  1  0  0  0
  4  5  2  0  0  0
  4 11  1  0  0  0
  5  6  1  0  0  0
  5  8  1  0  0  0
  6  7  2  0  0  0
  8  9  1  0  0  0
  9 10  1  0  0  0
  9 13  1  0  0  0
  9 19  1  0  0  0
 10 11  1  0  0  0
 11 12  2  0  0  0
 13 14  1  0  0  0
 14 15  1  0  0  0
 15 16  1  0  0  0
 15 22  1  0  0  0
 16 17  2  0  0  0
 16 18  1  0  0  0
 18 19  1  0  0  0
 22 23  1  0  0  0
 23 24  2  0  0  0
 23 25  1  0  0  0
 25 26  1  0  0  0
 25 30  1  0  0  0
 26 27  1  0  0  0
 27 28  1  0  0  0
 28 29  1  0  0  0
 28 31  1  0  0  0
 29 30  1  0  0  0
 31 32  1  0  0  0
 31 33  1  0  0  0
  8 20  1  0  0  0
 10 21  1  0  0  0
M  END
> <minimizedAffinity>
-8.07124

$$$$
1660


 31 34  0  0  0  0  0  0  0  0999 V2000
    0.3867   15.8335  -12.1425 N   0  0  0  0  0  0  0  0  0  0  0  0
    1.5106   16.1087  -11.5378 N   0  0  0  0  0  0  0  0  0  0  0  0
    2.3948   15.1083  -11.6137 C   0  0  0  0  0  0  0  0  0  0  0  0
    1.7847   14.0911  -12.3353 C   0  0  0  0  0  0  0  0  0  0  0  0
    0.5233   14.5868  -12.6490 C   0  0  0  0  0  0  0  0  0  0  0  0
   -0.2731   13.7757  -13.3505 N   0  0  0  0  0  0  0  0  0  0  0  0
    0.1283   12.5437  -13.7334 C   0  0  0  0  0  0  0  0  0  0  0  0
    1.3382   12.0386  -13.4459 N   0  0  0  0  0  0  0  0  0  0  0  0
    2.1767   12.8341  -12.7324 C   0  0  0  0  0  0  0  0  0  0  0  0
    3.3197   12.4032  -12.4384 O   0  0  0  0  0  0  0  0  0  0  0  0
   -4.2564   19.5872  -12.3836 Cl  0  0  0  0  0  0  0  0  0  0  0  0
   -2.9329   18.4665  -12.3635 C   0  0  0  0  0  0  0  0  0  0  0  0
   -2.6654   17.5731  -13.3757 C   0  0  0  0  0  0  0  0  0  0  0  0
   -1.6030   16.6910  -13.3423 C   0  0  0  0  0  0  0  0  0  0  0  0
   -0.7509   16.6716  -12.2688 C   0  0  0  0  0  0  0  0  0  0  0  0
   -1.0311   17.5744  -11.2569 C   0  0  0  0  0  0  0  0  0  0  0  0
   -2.0849   18.4619  -11.2714 C   0  0  0  0  0  0  0  0  0  0  0  0
    1.7839   10.7082  -13.8714 C   0  0  0  0  0  0  0  0  0  0  0  0
    1.3662    9.6563  -12.9276 C   0  0  0  0  0  0  0  0  0  0  0  0
    2.2888    9.2542  -12.1342 O   0  0  0  0  0  0  0  0  0  0  0  0
    0.1038    9.0783  -12.8185 N   0  0  0  0  0  0  0  0  0  0  0  0
   -0.1518    7.9870  -11.8654 C   0  0  0  0  0  0  0  0  0  0  0  0
   -0.4796    6.7807  -12.7554 C   0  0  0  0  0  0  0  0  0  0  0  0
   -1.5159    7.1188  -13.6950 N   0  0  0  0  0  0  0  0  0  0  0  0
   -2.0971    8.4450  -13.6015 C   0  0  0  0  0  0  0  0  0  0  0  0
   -1.0363    9.5152  -13.5932 C   0  0  0  0  0  0  0  0  0  0  0  0
   -1.9359    6.2065  -14.6876 C   0  0  0  0  0  0  0  0  0  0  0  0
   -1.3322    5.0714  -14.7426 O   0  0  0  0  0  0  0  0  0  0  0  0
   -2.9375    6.4107  -15.6097 O   0  0  0  0  0  0  0  0  0  0  0  0
   -4.3094    6.5464  -15.1914 C   0  0  0  0  0  0  0  0  0  0  0  0
   -4.8201    7.8277  -15.8257 C   0  0  0  0  0  0  0  0  0  0  0  0
 11 12  1  0  0  0
 12 13  2  0  0  0
 12 17  1  0  0  0
 13 14  1  0  0  0
 14 15  2  0  0  0
 15 16  1  0  0  0
 15  1  1  0  0  0
 16 17  2  0  0  0
  1  2  1  0  0  0
  1  5  1  0  0  0
  2  3  2  0  0  0
  3  4  1  0  0  0
  4  5  2  0  0  0
  4  9  1  0  0  0
  5  6  1  0  0  0
  6  7  2  0  0  0
  7  8  1  0  0  0
  8  9  1  0  0  0
  8 18  1  0  0  0
  9 10  2  0  0  0
 18 19  1  0  0  0
 19 20  2  0  0  0
 19 21  1  0  0  0
 21 22  1  0  0  0
 21 26  1  0  0  0
 22 23  1  0  0  0
 23 24  1  0  0  0
 24 25  1  0  0  0
 24 27  1  0  0  0
 25 26  1  0  0  0
 27 28  2  0  0  0
 27 29  1  0  0  0
 29 30  1  0  0  0
 30 31  1  0  0  0
M  END
> <minimizedAffinity>
-9.82635

$$$$
1666


 30 34  0  0  0  0  0  0  0  0999 V2000
    0.1855    7.2499  -12.3802 N   0  0  0  0  0  0  0  0  0  0  0  0
    0.0334    5.8209  -12.4587 C   0  0  0  0  0  0  0  0  0  0  0  0
    1.3071    5.1025  -12.0767 C   0  0  0  0  0  0  0  0  0  0  0  0
    2.4366    5.5982  -12.9028 N   0  0  0  0  0  0  0  0  0  0  0  0
    2.6372    7.0016  -12.5714 C   0  0  0  0  0  0  0  0  0  0  0  0
    1.4579    7.6160  -11.8378 C   0  0  0  0  0  0  0  0  0  0  0  0
   -0.4015    8.1443  -13.6745 S   0  0  0  0  0  0  0  0  0  0  0  0
    0.3218    7.6785  -14.9317 O   0  0  0  0  0  0  0  0  0  0  0  0
   -1.8515    7.7196  -13.9108 O   0  0  0  0  0  0  0  0  0  0  0  0
   -0.3894    9.8551  -13.5250 C   0  0  0  0  0  0  0  0  0  0  0  0
   -1.5569   10.5530  -13.3327 C   0  0  0  0  0  0  0  0  0  0  0  0
   -1.5073   11.9297  -13.2063 C   0  0  0  0  0  0  0  0  0  0  0  0
   -0.3217   12.6392  -13.2669 C   0  0  0  0  0  0  0  0  0  0  0  0
    0.8478   11.9342  -13.4598 C   0  0  0  0  0  0  0  0  0  0  0  0
    0.7970   10.5505  -13.5867 C   0  0  0  0  0  0  0  0  0  0  0  0
   -0.2517   14.5367  -13.0950 Br  0  0  0  0  0  0  0  0  0  0  0  0
    3.5675    4.8249  -12.4367 C   0  0  0  0  0  0  0  0  0  0  0  0
    4.6089    4.4727  -13.4114 C   0  0  0  0  0  0  0  0  0  0  0  0
    5.9582    4.8619  -13.1782 N   0  0  0  0  0  0  0  0  0  0  0  0
    6.5405    6.1515  -13.0267 C   0  0  0  0  0  0  0  0  0  0  0  0
    6.0807    7.2047  -13.4916 O   0  0  0  0  0  0  0  0  0  0  0  0
    7.7815    6.0244  -12.2254 C   0  0  0  0  0  0  0  0  0  0  0  0
    8.2173    4.5928  -12.6130 C   0  0  0  0  0  0  0  0  0  0  0  0
    9.2493    4.7615  -13.6635 C   0  0  0  0  0  0  0  0  0  0  0  0
    8.9100    6.1501  -14.2311 C   0  0  0  0  0  0  0  0  0  0  0  0
    8.8774    6.8159  -12.8441 C   0  0  0  0  0  0  0  0  0  0  0  0
   10.1651    6.2740  -12.2943 C   0  0  0  0  0  0  0  0  0  0  0  0
   10.5208    5.1682  -12.9483 C   0  0  0  0  0  0  0  0  0  0  0  0
    7.0066    3.8835  -13.0011 C   0  0  0  0  0  0  0  0  0  0  0  0
    6.9238    2.6383  -13.1476 O   0  0  0  0  0  0  0  0  0  0  0  0
  7  8  2  0  0  0
  7  9  2  0  0  0
  7  1  1  0  0  0
  7 10  1  0  0  0
  1  2  1  0  0  0
  1  6  1  0  0  0
  2  3  1  0  0  0
  3  4  1  0  0  0
  4  5  1  0  0  0
  4 17  1  0  0  0
  5  6  1  0  0  0
 17 18  1  0  0  0
 18 19  1  0  0  0
 19 20  1  0  0  0
 19 29  1  0  0  0
 20 21  2  0  0  0
 20 22  1  0  0  0
 22 23  1  0  0  0
 22 26  1  0  0  0
 23 24  1  0  0  0
 23 29  1  0  0  0
 24 25  1  0  0  0
 24 28  1  0  0  0
 25 26  1  0  0  0
 26 27  1  0  0  0
 27 28  2  0  0  0
 29 30  2  0  0  0
 10 11  2  0  0  0
 10 15  1  0  0  0
 11 12  1  0  0  0
 12 13  2  0  0  0
 13 14  1  0  0  0
 13 16  1  0  0  0
 14 15  2  0  0  0
M  END
> <minimizedAffinity>
-8.86744

$$$$
1673


 35 38  0  0  0  0  0  0  0  0999 V2000
    1.0552    7.8953  -12.6563 C   0  0  0  0  0  0  0  0  0  0  0  0
    2.4367    8.4925  -12.6647 C   0  0  0  0  0  0  0  0  0  0  0  0
    3.2777    7.5711  -13.2884 N   0  0  0  0  0  0  0  0  0  0  0  0
    2.7729    6.2858  -12.7475 C   0  0  0  0  0  0  0  0  0  0  0  0
    3.4453    5.2481  -12.5029 O   0  0  0  0  0  0  0  0  0  0  0  0
    1.3409    6.4468  -12.5530 C   0  0  0  0  0  0  0  0  0  0  0  0
    0.5184    5.5120  -12.3369 O   0  0  0  0  0  0  0  0  0  0  0  0
    2.5018    9.9281  -12.7732 C   0  0  0  0  0  0  0  0  0  0  0  0
    1.4735   10.7443  -13.1255 C   0  0  0  0  0  0  0  0  0  0  0  0
    1.6343   12.1200  -13.1822 C   0  0  0  0  0  0  0  0  0  0  0  0
    2.8846   12.6755  -12.8709 C   0  0  0  0  0  0  0  0  0  0  0  0
    3.9165   11.8540  -12.5173 C   0  0  0  0  0  0  0  0  0  0  0  0
    3.7569   10.5047  -12.4606 C   0  0  0  0  0  0  0  0  0  0  0  0
    3.0987   14.0388  -12.9125 O   0  0  0  0  0  0  0  0  0  0  0  0
    0.6262   12.9613  -13.5279 O   0  0  0  0  0  0  0  0  0  0  0  0
   -0.1880   13.6248  -12.6163 C   0  0  0  0  0  0  0  0  0  0  0  0
   -0.3302   15.1109  -12.8930 C   0  0  0  0  0  0  0  0  0  0  0  0
    0.2476    8.1931  -13.8391 C   0  0  0  0  0  0  0  0  0  0  0  0
    0.7914    8.1610  -14.9971 O   0  0  0  0  0  0  0  0  0  0  0  0
   -5.7206    9.8192  -13.8935 Br  0  0  0  0  0  0  0  0  0  0  0  0
   -3.8612    9.3113  -13.8662 C   0  0  0  0  0  0  0  0  0  0  0  0
   -3.4558    8.0711  -14.2866 C   0  0  0  0  0  0  0  0  0  0  0  0
   -2.1287    7.6543  -14.2871 C   0  0  0  0  0  0  0  0  0  0  0  0
   -1.1679    8.5340  -13.8428 C   0  0  0  0  0  0  0  0  0  0  0  0
   -1.5903    9.7853  -13.4204 C   0  0  0  0  0  0  0  0  0  0  0  0
   -2.9026   10.1962  -13.4196 C   0  0  0  0  0  0  0  0  0  0  0  0
    4.4472    7.4896  -14.1063 C   0  0  0  0  0  0  0  0  0  0  0  0
    5.7322    7.2000  -13.4277 C   0  0  0  0  0  0  0  0  0  0  0  0
    6.6427    6.2532  -13.9144 N   0  0  0  0  0  0  0  0  0  0  0  0
    7.9565    6.8308  -14.2268 C   0  0  0  0  0  0  0  0  0  0  0  0
    8.6478    7.3784  -13.0236 C   0  0  0  0  0  0  0  0  0  0  0  0
    7.9515    7.0315  -11.8884 O   0  0  0  0  0  0  0  0  0  0  0  0
    7.8171    5.6332  -11.8796 C   0  0  0  0  0  0  0  0  0  0  0  0
    6.8192    5.1770  -12.9229 C   0  0  0  0  0  0  0  0  0  0  0  0
    6.3209    5.7966  -14.7642 H   0  0  0  0  0  0  0  0  0  0  0  0
 20 21  1  0  0  0
 21 22  2  0  0  0
 21 26  1  0  0  0
 22 23  1  0  0  0
 23 24  2  0  0  0
 24 25  1  0  0  0
 24 18  1  0  0  0
 25 26  2  0  0  0
 18 19  2  0  0  0
 18  1  1  0  0  0
  1  2  1  0  0  0
  1  6  1  0  0  0
  2  3  1  0  0  0
  2  8  1  0  0  0
  3  4  1  0  0  0
  3 27  1  0  0  0
  4  5  2  0  0  0
  4  6  1  0  0  0
  6  7  2  0  0  0
 27 28  1  0  0  0
 28 29  1  0  0  0
 29 30  1  0  0  0
 29 34  1  0  0  0
 30 31  1  0  0  0
 31 32  1  0  0  0
 32 33  1  0  0  0
 33 34  1  0  0  0
  8  9  2  0  0  0
  8 13  1  0  0  0
  9 10  1  0  0  0
 10 11  2  0  0  0
 10 15  1  0  0  0
 11 12  1  0  0  0
 11 14  1  0  0  0
 12 13  2  0  0  0
 15 16  1  0  0  0
 16 17  1  0  0  0
 29 35  1  0  0  0
M  CHG 1  14  -1
M  CHG 1  29   1
M  END
> <minimizedAffinity>
-8.43111

$$$$
1676


 25 28  0  0  0  0  0  0  0  0999 V2000
   -4.3942    9.0819  -14.6421 C   0  0  0  0  0  0  0  0  0  0  0  0
   -4.5907    8.0874  -15.3666 O   0  0  0  0  0  0  0  0  0  0  0  0
   -5.4948    9.9089  -14.3031 N   0  0  0  0  0  0  0  0  0  0  0  0
   -5.3460   10.7367  -13.7034 H   0  0  0  0  0  0  0  0  0  0  0  0
   -0.7234   12.6504  -13.1820 Br  0  0  0  0  0  0  0  0  0  0  0  0
   -1.3311   10.8671  -13.5063 C   0  0  0  0  0  0  0  0  0  0  0  0
   -0.4914    9.7929  -13.3043 C   0  0  0  0  0  0  0  0  0  0  0  0
   -0.9090    8.5020  -13.5313 C   0  0  0  0  0  0  0  0  0  0  0  0
   -0.3211    7.2864  -13.4217 N   0  0  0  0  0  0  0  0  0  0  0  0
   -1.2136    6.3811  -13.7790 N   0  0  0  0  0  0  0  0  0  0  0  0
   -2.3468    6.9320  -14.1150 N   0  0  0  0  0  0  0  0  0  0  0  0
   -2.1904    8.2755  -13.9705 C   0  0  0  0  0  0  0  0  0  0  0  0
   -3.0381    9.3501  -14.1762 C   0  0  0  0  0  0  0  0  0  0  0  0
   -2.6111   10.6492  -13.9446 C   0  0  0  0  0  0  0  0  0  0  0  0
   -3.2466    6.5228  -14.4401 H   0  0  0  0  0  0  0  0  0  0  0  0
   -6.8251    9.6193  -14.7791 C   0  0  0  0  0  0  0  0  0  0  0  0
   -7.6787   10.8475  -14.6164 C   0  0  0  0  0  0  0  0  0  0  0  0
   -8.4827   11.4019  -15.5377 N   0  0  0  0  0  0  0  0  0  0  0  0
   -9.0956   12.4969  -15.0390 C   0  0  0  0  0  0  0  0  0  0  0  0
   -8.6596   12.6211  -13.7794 N   0  0  0  0  0  0  0  0  0  0  0  0
   -7.8005   11.6232  -13.5212 N   0  0  0  0  0  0  0  0  0  0  0  0
  -10.0210   13.2128  -15.9596 C   0  0  0  0  0  0  0  0  0  0  0  0
  -10.9988   12.1331  -16.4454 C   0  0  0  0  0  0  0  0  0  0  0  0
  -10.3018   10.9517  -17.0364 C   0  0  0  0  0  0  0  0  0  0  0  0
   -8.7978   11.0562  -16.9059 C   0  0  0  0  0  0  0  0  0  0  0  0
  5  6  1  0  0  0
  6  7  2  0  0  0
  6 14  1  0  0  0
  7  8  1  0  0  0
  8  9  1  0  0  0
  8 12  2  0  0  0
  9 10  2  0  0  0
 10 11  1  0  0  0
 11 12  1  0  0  0
 12 13  1  0  0  0
 13 14  2  0  0  0
 13  1  1  0  0  0
  1  2  2  0  0  0
  1  3  1  0  0  0
  3 16  1  0  0  0
 16 17  1  0  0  0
 17 18  1  0  0  0
 17 21  2  0  0  0
 18 19  1  0  0  0
 18 25  1  0  0  0
 19 20  2  0  0  0
 19 22  1  0  0  0
 20 21  1  0  0  0
 22 23  1  0  0  0
 23 24  1  0  0  0
 24 25  1  0  0  0
 11 15  1  0  0  0
  3  4  1  0  0  0
M  END
> <minimizedAffinity>
-9.62090

$$$$
1687


 27 30  0  0  0  0  0  0  0  0999 V2000
   -0.2476   13.9730  -13.1591 N   0  0  0  0  0  0  0  0  0  0  0  0
    0.8557   14.3454  -12.4719 C   0  0  0  0  0  0  0  0  0  0  0  0
    1.8935   13.4744  -12.2236 C   0  0  0  0  0  0  0  0  0  0  0  0
    1.8136   12.1033  -12.7124 C   0  0  0  0  0  0  0  0  0  0  0  0
    2.9476   11.5008  -12.3272 N   0  0  0  0  0  0  0  0  0  0  0  0
    3.7245   12.3596  -11.6486 N   0  0  0  0  0  0  0  0  0  0  0  0
    3.1082   13.5496  -11.5767 C   0  0  0  0  0  0  0  0  0  0  0  0
    3.5864   14.5542  -11.0029 O   0  0  0  0  0  0  0  0  0  0  0  0
    0.6698   11.7561  -13.4116 C   0  0  0  0  0  0  0  0  0  0  0  0
   -0.2954   12.7068  -13.5973 C   0  0  0  0  0  0  0  0  0  0  0  0
    4.6608   12.0832  -11.2584 H   0  0  0  0  0  0  0  0  0  0  0  0
    0.5541   10.3925  -13.9163 C   0  0  0  0  0  0  0  0  0  0  0  0
   -0.4401    9.6998  -13.5816 O   0  0  0  0  0  0  0  0  0  0  0  0
    1.4999    9.8476  -14.7436 O   0  0  0  0  0  0  0  0  0  0  0  0
    1.9499    8.5123  -14.5808 C   0  0  0  0  0  0  0  0  0  0  0  0
   -1.3282   14.9217  -13.4040 C   0  0  0  0  0  0  0  0  0  0  0  0
   -0.9154   16.2572  -12.8249 C   0  0  0  0  0  0  0  0  0  0  0  0
   -4.0489   21.4566   -9.3084 Cl  0  0  0  0  0  0  0  0  0  0  0  0
   -3.4124   20.1803  -10.3452 C   0  0  0  0  0  0  0  0  0  0  0  0
   -3.9876   19.8680  -11.5589 C   0  0  0  0  0  0  0  0  0  0  0  0
   -3.4465   18.8585  -12.3297 C   0  0  0  0  0  0  0  0  0  0  0  0
   -3.7779   18.3302  -13.5392 N   0  0  0  0  0  0  0  0  0  0  0  0
   -2.9095   17.3487  -13.8400 C   0  0  0  0  0  0  0  0  0  0  0  0
   -2.0022   17.2126  -12.8499 N   0  0  0  0  0  0  0  0  0  0  0  0
   -2.3378   18.1377  -11.9331 C   0  0  0  0  0  0  0  0  0  0  0  0
   -1.7565   18.4422  -10.7244 C   0  0  0  0  0  0  0  0  0  0  0  0
   -2.3034   19.4523   -9.9593 C   0  0  0  0  0  0  0  0  0  0  0  0
 18 19  1  0  0  0
 19 20  2  0  0  0
 19 27  1  0  0  0
 20 21  1  0  0  0
 21 22  1  0  0  0
 21 25  2  0  0  0
 22 23  2  0  0  0
 23 24  1  0  0  0
 24 25  1  0  0  0
 24 17  1  0  0  0
 25 26  1  0  0  0
 26 27  2  0  0  0
 17 16  1  0  0  0
 16  1  1  0  0  0
  1  2  1  0  0  0
  1 10  1  0  0  0
  2  3  2  0  0  0
  3  4  1  0  0  0
  3  7  1  0  0  0
  4  5  2  0  0  0
  4  9  1  0  0  0
  5  6  1  0  0  0
  6  7  1  0  0  0
  7  8  2  0  0  0
  9 10  2  0  0  0
  9 12  1  0  0  0
 12 13  2  0  0  0
 12 14  1  0  0  0
 14 15  1  0  0  0
  6 11  1  0  0  0
M  END
> <minimizedAffinity>
-8.63695

$$$$
1689


 32 35  0  0  0  0  0  0  0  0999 V2000
    2.5000   15.0541  -12.6967 C   0  0  0  0  0  0  0  0  0  0  0  0
    3.0914   15.7934  -13.5212 O   0  0  0  0  0  0  0  0  0  0  0  0
    2.9887   13.7458  -12.4973 N   0  0  0  0  0  0  0  0  0  0  0  0
    2.5170   12.6816  -11.6354 C   0  0  0  0  0  0  0  0  0  0  0  0
    2.6756   11.4819  -12.4576 C   0  0  0  0  0  0  0  0  0  0  0  0
    3.5150   11.8751  -13.6752 C   0  0  0  0  0  0  0  0  0  0  0  0
    4.1384   13.1904  -13.1624 C   0  0  0  0  0  0  0  0  0  0  0  0
    4.4891   10.9571  -13.9784 O   0  0  0  0  0  0  0  0  0  0  0  0
    5.3114   11.2045  -13.4857 H   0  0  0  0  0  0  0  0  0  0  0  0
    1.5710   10.6856  -12.8274 N   0  0  0  0  0  0  0  0  0  0  0  0
    0.4110   11.3261  -13.1358 C   0  0  0  0  0  0  0  0  0  0  0  0
   -0.7215   10.6390  -13.5110 C   0  0  0  0  0  0  0  0  0  0  0  0
   -0.7061    9.2660  -13.5852 C   0  0  0  0  0  0  0  0  0  0  0  0
   -1.7345    8.6086  -13.9279 O   0  0  0  0  0  0  0  0  0  0  0  0
    0.4380    8.6342  -13.2814 N   0  0  0  0  0  0  0  0  0  0  0  0
    1.5043    9.3540  -12.9241 C   0  0  0  0  0  0  0  0  0  0  0  0
    2.5416    8.7147  -12.6550 O   0  0  0  0  0  0  0  0  0  0  0  0
   -1.9925   11.3597  -13.8490 C   0  0  0  0  0  0  0  0  0  0  0  0
    0.4765    7.5693  -13.3287 H   0  0  0  0  0  0  0  0  0  0  0  0
    1.3249   15.5983  -11.9848 C   0  0  0  0  0  0  0  0  0  0  0  0
    0.1159   15.5665  -12.8696 C   0  0  0  0  0  0  0  0  0  0  0  0
   -3.8965   21.1650   -9.5048 Cl  0  0  0  0  0  0  0  0  0  0  0  0
   -3.3924   19.9470  -10.6515 C   0  0  0  0  0  0  0  0  0  0  0  0
   -2.2424   19.2052  -10.4165 C   0  0  0  0  0  0  0  0  0  0  0  0
   -1.8301   18.2347  -11.3140 C   0  0  0  0  0  0  0  0  0  0  0  0
   -0.7981   17.3787  -11.3714 N   0  0  0  0  0  0  0  0  0  0  0  0
   -0.8526   16.6150  -12.4972 C   0  0  0  0  0  0  0  0  0  0  0  0
   -1.9728   17.0388  -13.1409 N   0  0  0  0  0  0  0  0  0  0  0  0
   -2.5754   18.0126  -12.4468 C   0  0  0  0  0  0  0  0  0  0  0  0
   -3.7161   18.7522  -12.6747 C   0  0  0  0  0  0  0  0  0  0  0  0
   -4.1435   19.7279  -11.7858 C   0  0  0  0  0  0  0  0  0  0  0  0
   -0.0703   17.3466  -10.6150 H   0  0  0  0  0  0  0  0  0  0  0  0
 22 23  1  0  0  0
 23 24  2  0  0  0
 23 31  1  0  0  0
 24 25  1  0  0  0
 25 26  1  0  0  0
 25 29  2  0  0  0
 26 27  1  0  0  0
 27 28  2  0  0  0
 27 21  1  0  0  0
 28 29  1  0  0  0
 29 30  1  0  0  0
 30 31  2  0  0  0
 21 20  1  0  0  0
 20  1  1  0  0  0
  1  2  2  0  0  0
  1  3  1  0  0  0
  3  4  1  0  0  0
  3  7  1  0  0  0
  4  5  1  0  0  0
  5  6  1  0  0  0
  5 10  1  0  0  0
  6  7  1  0  0  0
  6  8  1  0  0  0
 10 11  1  0  0  0
 10 16  1  0  0  0
 11 12  2  0  0  0
 12 13  1  0  0  0
 12 18  1  0  0  0
 13 14  2  0  0  0
 13 15  1  0  0  0
 15 16  1  0  0  0
 16 17  2  0  0  0
 26 32  1  0  0  0
  8  9  1  0  0  0
 15 19  1  0  0  0
M  END
> <minimizedAffinity>
-9.97037

$$$$
1690


 34 37  0  0  0  0  0  0  0  0999 V2000
    1.5271   13.3689  -12.2984 C   0  0  0  0  0  0  0  0  0  0  0  0
    2.2484   13.8797  -11.4037 O   0  0  0  0  0  0  0  0  0  0  0  0
    2.0321   12.3388  -13.1468 N   0  0  0  0  0  0  0  0  0  0  0  0
    1.2625   11.7068  -14.1951 C   0  0  0  0  0  0  0  0  0  0  0  0
    1.6082   10.2105  -14.2850 C   0  0  0  0  0  0  0  0  0  0  0  0
    2.0781    9.8055  -12.9300 C   0  0  0  0  0  0  0  0  0  0  0  0
    3.4454   10.3989  -12.6792 C   0  0  0  0  0  0  0  0  0  0  0  0
    3.3942   11.8864  -12.9605 C   0  0  0  0  0  0  0  0  0  0  0  0
    0.4088    9.5791  -14.6466 O   0  0  0  0  0  0  0  0  0  0  0  0
    2.6123   10.0615  -15.3839 C   0  0  0  0  0  0  0  0  0  0  0  0
    0.3536    9.5381  -15.6545 H   0  0  0  0  0  0  0  0  0  0  0  0
    1.9985    8.4199  -12.6283 N   0  0  0  0  0  0  0  0  0  0  0  0
    2.9974    7.5518  -12.8461 C   0  0  0  0  0  0  0  0  0  0  0  0
    2.8834    6.2020  -12.5382 C   0  0  0  0  0  0  0  0  0  0  0  0
    1.7092    5.7384  -11.9920 C   0  0  0  0  0  0  0  0  0  0  0  0
    1.6001    4.5047  -11.7081 O   0  0  0  0  0  0  0  0  0  0  0  0
    0.7122    6.6079  -11.7760 N   0  0  0  0  0  0  0  0  0  0  0  0
    0.8723    7.9049  -12.0907 C   0  0  0  0  0  0  0  0  0  0  0  0
   -0.0834    8.7326  -11.8825 O   0  0  0  0  0  0  0  0  0  0  0  0
    4.0387    5.2773  -12.8042 C   0  0  0  0  0  0  0  0  0  0  0  0
   -0.1813    6.2695  -11.3626 H   0  0  0  0  0  0  0  0  0  0  0  0
    0.1399   13.8231  -12.4967 C   0  0  0  0  0  0  0  0  0  0  0  0
    0.1033   14.8660  -13.5763 C   0  0  0  0  0  0  0  0  0  0  0  0
   -3.2124   20.6364   -9.7524 Cl  0  0  0  0  0  0  0  0  0  0  0  0
   -2.8542   19.4437  -10.9800 C   0  0  0  0  0  0  0  0  0  0  0  0
   -1.8022   18.5521  -10.8624 C   0  0  0  0  0  0  0  0  0  0  0  0
   -1.5285   17.6178  -11.8328 C   0  0  0  0  0  0  0  0  0  0  0  0
   -0.5945   16.6659  -11.9567 N   0  0  0  0  0  0  0  0  0  0  0  0
   -0.7519   15.9911  -13.1284 C   0  0  0  0  0  0  0  0  0  0  0  0
   -1.8002   16.5564  -13.7080 N   0  0  0  0  0  0  0  0  0  0  0  0
   -2.3038   17.5453  -12.9637 C   0  0  0  0  0  0  0  0  0  0  0  0
   -3.3565   18.4220  -13.1044 C   0  0  0  0  0  0  0  0  0  0  0  0
   -3.6316   19.3649  -12.1217 C   0  0  0  0  0  0  0  0  0  0  0  0
    0.1707   16.4424  -11.2630 H   0  0  0  0  0  0  0  0  0  0  0  0
 24 25  1  0  0  0
 25 26  2  0  0  0
 25 33  1  0  0  0
 26 27  1  0  0  0
 27 28  1  0  0  0
 27 31  2  0  0  0
 28 29  1  0  0  0
 29 30  2  0  0  0
 29 23  1  0  0  0
 30 31  1  0  0  0
 31 32  1  0  0  0
 32 33  2  0  0  0
 23 22  1  0  0  0
 22  1  1  0  0  0
  1  2  2  0  0  0
  1  3  1  0  0  0
  3  4  1  0  0  0
  3  8  1  0  0  0
  4  5  1  0  0  0
  5  6  1  0  0  0
  5  9  1  0  0  0
  5 10  1  0  0  0
  6  7  1  0  0  0
  6 12  1  0  0  0
  7  8  1  0  0  0
 12 13  1  0  0  0
 12 18  1  0  0  0
 13 14  2  0  0  0
 14 15  1  0  0  0
 14 20  1  0  0  0
 15 16  2  0  0  0
 15 17  1  0  0  0
 17 18  1  0  0  0
 18 19  2  0  0  0
 28 34  1  0  0  0
 17 21  1  0  0  0
  9 11  1  0  0  0
M  END
> <minimizedAffinity>
-9.70345

$$$$
1691


 35 39  0  0  0  0  0  0  0  0999 V2000
   -1.0074   16.6640  -13.2870 C   0  0  0  0  0  0  0  0  0  0  0  0
   -1.3338   16.6427  -14.4893 O   0  0  0  0  0  0  0  0  0  0  0  0
    0.1669   16.0212  -12.8635 N   0  0  0  0  0  0  0  0  0  0  0  0
    1.1520   15.2732  -13.5781 C   0  0  0  0  0  0  0  0  0  0  0  0
    1.4796   14.0797  -12.6489 C   0  0  0  0  0  0  0  0  0  0  0  0
    1.3414   14.7460  -11.3259 C   0  0  0  0  0  0  0  0  0  0  0  0
    0.6202   16.0414  -11.4861 C   0  0  0  0  0  0  0  0  0  0  0  0
    2.5650   15.0346  -10.7225 O   0  0  0  0  0  0  0  0  0  0  0  0
    3.3294   14.8625  -11.3411 H   0  0  0  0  0  0  0  0  0  0  0  0
    0.5258   13.0350  -12.8913 N   0  0  0  0  0  0  0  0  0  0  0  0
    0.7653   11.7511  -13.2058 C   0  0  0  0  0  0  0  0  0  0  0  0
   -0.4690   11.0855  -13.3510 C   0  0  0  0  0  0  0  0  0  0  0  0
   -1.4167   12.0076  -13.1168 N   0  0  0  0  0  0  0  0  0  0  0  0
   -0.8410   13.1753  -12.8412 C   0  0  0  0  0  0  0  0  0  0  0  0
   -0.5261    9.7486  -13.6748 C   0  0  0  0  0  0  0  0  0  0  0  0
   -1.6446    9.1813  -13.7976 O   0  0  0  0  0  0  0  0  0  0  0  0
    0.6322    9.1008  -13.8451 N   0  0  0  0  0  0  0  0  0  0  0  0
    1.7956    9.7379  -13.7056 C   0  0  0  0  0  0  0  0  0  0  0  0
    2.8770    9.1138  -13.8703 O   0  0  0  0  0  0  0  0  0  0  0  0
    1.9103   11.0632  -13.3862 N   0  0  0  0  0  0  0  0  0  0  0  0
    3.1914   11.6814  -13.2543 C   0  0  0  0  0  0  0  0  0  0  0  0
    0.6044    7.6774  -14.1895 C   0  0  0  0  0  0  0  0  0  0  0  0
   -1.8635   17.3672  -12.3192 C   0  0  0  0  0  0  0  0  0  0  0  0
   -2.9786   18.0985  -13.0325 C   0  0  0  0  0  0  0  0  0  0  0  0
   -7.7506   22.7822   -9.2333 Cl  0  0  0  0  0  0  0  0  0  0  0  0
   -6.3296   21.8614   -9.7119 C   0  0  0  0  0  0  0  0  0  0  0  0
   -6.3331   21.0543  -10.8255 C   0  0  0  0  0  0  0  0  0  0  0  0
   -5.1854   20.3400  -11.1711 C   0  0  0  0  0  0  0  0  0  0  0  0
   -4.8913   19.4952  -12.1733 N   0  0  0  0  0  0  0  0  0  0  0  0
   -3.6247   19.0549  -12.0746 C   0  0  0  0  0  0  0  0  0  0  0  0
   -3.1191   19.6381  -10.9874 N   0  0  0  0  0  0  0  0  0  0  0  0
   -4.0421   20.4325  -10.4070 C   0  0  0  0  0  0  0  0  0  0  0  0
   -4.0397   21.2408   -9.2900 C   0  0  0  0  0  0  0  0  0  0  0  0
   -5.1939   21.9496   -8.9560 C   0  0  0  0  0  0  0  0  0  0  0  0
   -5.5872   19.2327  -12.9220 H   0  0  0  0  0  0  0  0  0  0  0  0
 25 26  1  0  0  0
 26 27  2  0  0  0
 26 34  1  0  0  0
 27 28  1  0  0  0
 28 29  1  0  0  0
 28 32  2  0  0  0
 29 30  1  0  0  0
 30 31  2  0  0  0
 30 24  1  0  0  0
 31 32  1  0  0  0
 32 33  1  0  0  0
 33 34  2  0  0  0
 24 23  1  0  0  0
 23  1  1  0  0  0
  1  2  2  0  0  0
  1  3  1  0  0  0
  3  4  1  0  0  0
  3  7  1  0  0  0
  4  5  1  0  0  0
  5  6  1  0  0  0
  5 10  1  0  0  0
  6  7  1  0  0  0
  6  8  1  0  0  0
 10 11  1  0  0  0
 10 14  1  0  0  0
 11 12  2  0  0  0
 11 20  1  0  0  0
 12 13  1  0  0  0
 12 15  1  0  0  0
 13 14  2  0  0  0
 15 16  2  0  0  0
 15 17  1  0  0  0
 17 18  1  0  0  0
 17 22  1  0  0  0
 18 19  2  0  0  0
 18 20  1  0  0  0
 20 21  1  0  0  0
 29 35  1  0  0  0
  8  9  1  0  0  0
M  END
> <minimizedAffinity>
-11.67510

$$$$
1699


 31 34  0  0  0  0  0  0  0  0999 V2000
    3.0308   13.7136  -10.9373 Cl  0  0  0  0  0  0  0  0  0  0  0  0
    2.9579   12.5410  -12.2121 C   0  0  0  0  0  0  0  0  0  0  0  0
    1.9041   11.6424  -12.2940 C   0  0  0  0  0  0  0  0  0  0  0  0
    1.8323   10.7036  -13.3030 C   0  0  0  0  0  0  0  0  0  0  0  0
    2.8362   10.6800  -14.2305 C   0  0  0  0  0  0  0  0  0  0  0  0
    3.9143   11.5692  -14.1834 C   0  0  0  0  0  0  0  0  0  0  0  0
    3.9543   12.4935  -13.1631 C   0  0  0  0  0  0  0  0  0  0  0  0
    2.5981    9.6398  -15.1695 N   0  0  0  0  0  0  0  0  0  0  0  0
    1.3922    8.9853  -14.8062 C   0  0  0  0  0  0  0  0  0  0  0  0
    0.9586    7.9849  -15.4643 O   0  0  0  0  0  0  0  0  0  0  0  0
    0.8544    9.6706  -13.6382 C   0  0  0  0  0  0  0  0  0  0  0  0
   -0.4718   10.2385  -13.8951 N   0  0  0  0  0  0  0  0  0  0  0  0
   -1.2969    9.0524  -13.8465 C   0  0  0  0  0  0  0  0  0  0  0  0
   -0.7620    8.2138  -12.7314 C   0  0  0  0  0  0  0  0  0  0  0  0
    0.5787    8.8212  -12.4476 C   0  0  0  0  0  0  0  0  0  0  0  0
    1.5437    7.7139  -12.2385 C   0  0  0  0  0  0  0  0  0  0  0  0
    2.7228    7.9368  -11.8586 O   0  0  0  0  0  0  0  0  0  0  0  0
    0.8763    6.4990  -12.5386 N   0  0  0  0  0  0  0  0  0  0  0  0
   -0.3619    6.8391  -13.1733 C   0  0  0  0  0  0  0  0  0  0  0  0
   -1.0269    6.1535  -13.9565 O   0  0  0  0  0  0  0  0  0  0  0  0
    3.2102    9.3918  -16.0023 H   0  0  0  0  0  0  0  0  0  0  0  0
   -0.6935   10.8128  -13.0509 H   0  0  0  0  0  0  0  0  0  0  0  0
   -2.7613    9.3748  -13.6943 C   0  0  0  0  0  0  0  0  0  0  0  0
   -2.9413   10.7052  -14.0515 O   0  0  0  0  0  0  0  0  0  0  0  0
   -3.6408    8.4872  -14.5367 C   0  0  0  0  0  0  0  0  0  0  0  0
   -3.3419   10.8084  -14.9523 H   0  0  0  0  0  0  0  0  0  0  0  0
    1.3357    5.1911  -12.2610 C   0  0  0  0  0  0  0  0  0  0  0  0
    2.7870    4.9502  -12.1196 C   0  0  0  0  0  0  0  0  0  0  0  0
    3.3718    3.7990  -12.8432 C   0  0  0  0  0  0  0  0  0  0  0  0
    4.6611    3.9710  -13.3236 O   0  0  0  0  0  0  0  0  0  0  0  0
    4.9762    5.3461  -13.2028 C   0  0  0  0  0  0  0  0  0  0  0  0
  1  2  1  0  0  0
  2  3  2  0  0  0
  2  7  1  0  0  0
  3  4  1  0  0  0
  4  5  2  0  0  0
  4 11  1  0  0  0
  5  6  1  0  0  0
  5  8  1  0  0  0
  6  7  2  0  0  0
  8  9  1  0  0  0
  9 10  2  0  0  0
  9 11  1  0  0  0
 11 12  1  0  0  0
 11 15  1  0  0  0
 12 13  1  0  0  0
 13 14  1  0  0  0
 13 23  1  0  0  0
 14 15  1  0  0  0
 14 19  1  0  0  0
 15 16  1  0  0  0
 16 17  2  0  0  0
 16 18  1  0  0  0
 18 19  1  0  0  0
 18 27  1  0  0  0
 19 20  2  0  0  0
 27 28  1  0  0  0
 28 29  1  0  0  0
 29 30  1  0  0  0
 30 31  1  0  0  0
 23 24  1  0  0  0
 23 25  1  0  0  0
  8 21  1  0  0  0
 12 22  1  0  0  0
 24 26  1  0  0  0
M  END
> <minimizedAffinity>
-6.53030

$$$$
1706


 25 28  0  0  0  0  0  0  0  0999 V2000
   -2.2666    5.4232  -13.2576 F   0  0  0  0  0  0  0  0  0  0  0  0
   -1.6219    6.6132  -13.5018 C   0  0  0  0  0  0  0  0  0  0  0  0
   -0.2570    6.7097  -13.2028 C   0  0  0  0  0  0  0  0  0  0  0  0
    0.3999    7.8793  -13.4372 C   0  0  0  0  0  0  0  0  0  0  0  0
   -0.2846    8.9786  -13.9739 C   0  0  0  0  0  0  0  0  0  0  0  0
   -1.6171    8.8567  -14.2568 C   0  0  0  0  0  0  0  0  0  0  0  0
   -2.2995    7.6862  -14.0277 C   0  0  0  0  0  0  0  0  0  0  0  0
   -4.0227    7.5343  -14.3958 Cl  0  0  0  0  0  0  0  0  0  0  0  0
    1.8217    7.7132  -13.0368 C   0  0  0  0  0  0  0  0  0  0  0  0
    2.1452    8.6755  -12.0312 N   0  0  0  0  0  0  0  0  0  0  0  0
    2.5848    9.9707  -12.3768 C   0  0  0  0  0  0  0  0  0  0  0  0
    2.5810   10.9953  -11.4851 N   0  0  0  0  0  0  0  0  0  0  0  0
    2.9857   12.2390  -11.7608 C   0  0  0  0  0  0  0  0  0  0  0  0
    3.4487   12.5326  -13.0388 C   0  0  0  0  0  0  0  0  0  0  0  0
    3.4849   11.5577  -13.9959 C   0  0  0  0  0  0  0  0  0  0  0  0
    3.0524   10.2981  -13.6417 C   0  0  0  0  0  0  0  0  0  0  0  0
    3.0513    9.1839  -14.5945 C   0  0  0  0  0  0  0  0  0  0  0  0
    3.4737    9.4397  -15.7733 O   0  0  0  0  0  0  0  0  0  0  0  0
    2.6121    7.8952  -14.2417 N   0  0  0  0  0  0  0  0  0  0  0  0
    1.9069    6.3323  -12.5488 C   0  0  0  0  0  0  0  0  0  0  0  0
    2.9490    5.7328  -12.0923 O   0  0  0  0  0  0  0  0  0  0  0  0
    0.6407    5.7345  -12.6560 N   0  0  0  0  0  0  0  0  0  0  0  0
    2.0656    8.4456  -11.0105 H   0  0  0  0  0  0  0  0  0  0  0  0
    2.8767    7.1057  -14.8749 H   0  0  0  0  0  0  0  0  0  0  0  0
    0.3407    4.7568  -12.3992 H   0  0  0  0  0  0  0  0  0  0  0  0
  1  2  1  0  0  0
  2  3  2  0  0  0
  2  7  1  0  0  0
  3  4  1  0  0  0
  3 22  1  0  0  0
  4  5  2  0  0  0
  4  9  1  0  0  0
  5  6  1  0  0  0
  6  7  2  0  0  0
  7  8  1  0  0  0
  9 10  1  0  0  0
  9 19  1  0  0  0
  9 20  1  0  0  0
 10 11  1  0  0  0
 11 12  2  0  0  0
 11 16  1  0  0  0
 12 13  1  0  0  0
 13 14  2  0  0  0
 14 15  1  0  0  0
 15 16  2  0  0  0
 16 17  1  0  0  0
 17 18  2  0  0  0
 17 19  1  0  0  0
 20 21  2  0  0  0
 20 22  1  0  0  0
 10 23  1  0  0  0
 19 24  1  0  0  0
 22 25  1  0  0  0
M  END
> <minimizedAffinity>
-7.11931

$$$$
1711


 30 33  0  0  0  0  0  0  0  0999 V2000
    2.9418   11.1412  -13.9624 N   0  0  0  0  0  0  0  0  0  0  0  0
    3.8230   10.0274  -13.9205 C   0  0  0  0  0  0  0  0  0  0  0  0
    3.1131    8.6997  -14.0024 C   0  0  0  0  0  0  0  0  0  0  0  0
    1.8136    8.7295  -13.3835 N   0  0  0  0  0  0  0  0  0  0  0  0
    0.8929    9.7874  -13.7243 C   0  0  0  0  0  0  0  0  0  0  0  0
    1.6435   10.8578  -14.4542 C   0  0  0  0  0  0  0  0  0  0  0  0
    1.4000    7.7519  -12.4454 C   0  0  0  0  0  0  0  0  0  0  0  0
    2.1887    6.8347  -12.1454 O   0  0  0  0  0  0  0  0  0  0  0  0
    3.0744   12.2581  -12.7163 S   0  0  0  0  0  0  0  0  0  0  0  0
    3.0586   11.5098  -11.3904 O   0  0  0  0  0  0  0  0  0  0  0  0
    4.4472   12.8993  -12.7893 O   0  0  0  0  0  0  0  0  0  0  0  0
    1.9071   13.5248  -12.7160 C   0  0  0  0  0  0  0  0  0  0  0  0
    0.5629   13.2228  -12.8573 C   0  0  0  0  0  0  0  0  0  0  0  0
   -0.4134   14.1982  -12.8633 C   0  0  0  0  0  0  0  0  0  0  0  0
   -0.0140   15.5146  -12.7209 C   0  0  0  0  0  0  0  0  0  0  0  0
    1.3287   15.8007  -12.5816 C   0  0  0  0  0  0  0  0  0  0  0  0
    2.3149   14.8359  -12.5735 C   0  0  0  0  0  0  0  0  0  0  0  0
   -1.3247   16.9259  -12.7202 Br  0  0  0  0  0  0  0  0  0  0  0  0
    0.0623    7.7889  -11.8134 C   0  0  0  0  0  0  0  0  0  0  0  0
   -0.9785    7.6754  -12.7932 N   0  0  0  0  0  0  0  0  0  0  0  0
   -1.2544    6.6233  -13.7081 C   0  0  0  0  0  0  0  0  0  0  0  0
   -0.5818    5.5726  -13.7942 O   0  0  0  0  0  0  0  0  0  0  0  0
   -2.4229    6.9903  -14.4907 C   0  0  0  0  0  0  0  0  0  0  0  0
   -2.8652    8.2267  -14.0836 C   0  0  0  0  0  0  0  0  0  0  0  0
   -3.9787    8.7877  -14.6946 C   0  0  0  0  0  0  0  0  0  0  0  0
   -4.6499    8.1403  -15.6948 C   0  0  0  0  0  0  0  0  0  0  0  0
   -4.2124    6.8856  -16.1176 C   0  0  0  0  0  0  0  0  0  0  0  0
   -3.0986    6.3430  -15.4940 C   0  0  0  0  0  0  0  0  0  0  0  0
   -1.9763    8.6774  -13.0203 C   0  0  0  0  0  0  0  0  0  0  0  0
   -2.1244    9.7843  -12.4392 O   0  0  0  0  0  0  0  0  0  0  0  0
  9 10  2  0  0  0
  9 11  2  0  0  0
  9  1  1  0  0  0
  9 12  1  0  0  0
  1  2  1  0  0  0
  1  6  1  0  0  0
  2  3  1  0  0  0
  3  4  1  0  0  0
  4  5  1  0  0  0
  4  7  1  0  0  0
  5  6  1  0  0  0
  7  8  2  0  0  0
  7 19  1  0  0  0
 19 20  1  0  0  0
 20 21  1  0  0  0
 20 29  1  0  0  0
 21 22  2  0  0  0
 21 23  1  0  0  0
 23 24  2  0  0  0
 23 28  1  0  0  0
 24 25  1  0  0  0
 24 29  1  0  0  0
 25 26  2  0  0  0
 26 27  1  0  0  0
 27 28  2  0  0  0
 29 30  2  0  0  0
 12 13  2  0  0  0
 12 17  1  0  0  0
 13 14  1  0  0  0
 14 15  2  0  0  0
 15 16  1  0  0  0
 15 18  1  0  0  0
 16 17  2  0  0  0
M  END
> <minimizedAffinity>
-9.09584

$$$$
1718


 34 38  0  0  0  0  0  0  0  0999 V2000
    6.9689    6.1536  -14.3668 Cl  0  0  0  0  0  0  0  0  0  0  0  0
    5.4028    6.1176  -13.5891 C   0  0  0  0  0  0  0  0  0  0  0  0
    4.5104    7.1422  -13.9066 C   0  0  0  0  0  0  0  0  0  0  0  0
    3.2670    7.1490  -13.3149 C   0  0  0  0  0  0  0  0  0  0  0  0
    2.9612    6.1221  -12.4198 C   0  0  0  0  0  0  0  0  0  0  0  0
    3.8495    5.1145  -12.1117 C   0  0  0  0  0  0  0  0  0  0  0  0
    5.0942    5.1080  -12.7056 C   0  0  0  0  0  0  0  0  0  0  0  0
    2.4814    8.2961  -13.7696 C   0  0  0  0  0  0  0  0  0  0  0  0
    1.2175    7.9129  -14.3700 N   0  0  0  0  0  0  0  0  0  0  0  0
    0.3761    9.0984  -14.2768 C   0  0  0  0  0  0  0  0  0  0  0  0
    0.7734    9.7983  -13.0063 C   0  0  0  0  0  0  0  0  0  0  0  0
    2.1370    9.2571  -12.6539 C   0  0  0  0  0  0  0  0  0  0  0  0
    3.0479   10.4292  -12.6400 C   0  0  0  0  0  0  0  0  0  0  0  0
    4.2963   10.2949  -12.5082 O   0  0  0  0  0  0  0  0  0  0  0  0
    2.2920   11.6190  -12.7906 N   0  0  0  0  0  0  0  0  0  0  0  0
    1.0266   11.2477  -13.3162 C   0  0  0  0  0  0  0  0  0  0  0  0
    0.1984   11.9617  -13.9491 O   0  0  0  0  0  0  0  0  0  0  0  0
    3.3629    8.9993  -14.7151 C   0  0  0  0  0  0  0  0  0  0  0  0
    3.1015   10.0682  -15.3789 O   0  0  0  0  0  0  0  0  0  0  0  0
    4.5782    8.2723  -14.7667 N   0  0  0  0  0  0  0  0  0  0  0  0
    0.7839    7.0971  -13.8824 H   0  0  0  0  0  0  0  0  0  0  0  0
    5.4192    8.5231  -15.3542 H   0  0  0  0  0  0  0  0  0  0  0  0
    2.7184   12.9329  -12.4715 C   0  0  0  0  0  0  0  0  0  0  0  0
    1.6718   13.9423  -12.2114 C   0  0  0  0  0  0  0  0  0  0  0  0
    1.3907   14.7906  -13.2714 O   0  0  0  0  0  0  0  0  0  0  0  0
    0.3192   15.5188  -12.7534 C   0  0  0  0  0  0  0  0  0  0  0  0
    0.7502   15.8864  -11.3279 C   0  0  0  0  0  0  0  0  0  0  0  0
    1.8886   14.8815  -11.0830 C   0  0  0  0  0  0  0  0  0  0  0  0
   -1.0634    8.6754  -14.2707 C   0  0  0  0  0  0  0  0  0  0  0  0
   -1.0862    7.1978  -14.0272 C   0  0  0  0  0  0  0  0  0  0  0  0
   -1.3677    6.4693  -15.0131 O   0  0  0  0  0  0  0  0  0  0  0  0
   -0.8083    6.6279  -12.7588 N   0  0  0  0  0  0  0  0  0  0  0  0
    0.1784    6.6167  -12.4339 H   0  0  0  0  0  0  0  0  0  0  0  0
   -1.5295    6.2207  -12.1317 H   0  0  0  0  0  0  0  0  0  0  0  0
  1  2  1  0  0  0
  2  3  2  0  0  0
  2  7  1  0  0  0
  3  4  1  0  0  0
  3 20  1  0  0  0
  4  5  2  0  0  0
  4  8  1  0  0  0
  5  6  1  0  0  0
  6  7  2  0  0  0
  8  9  1  0  0  0
  8 12  1  0  0  0
  8 18  1  0  0  0
  9 10  1  0  0  0
 10 11  1  0  0  0
 10 29  1  0  0  0
 11 12  1  0  0  0
 11 16  1  0  0  0
 12 13  1  0  0  0
 13 14  2  0  0  0
 13 15  1  0  0  0
 15 16  1  0  0  0
 15 23  1  0  0  0
 16 17  2  0  0  0
 23 24  1  0  0  0
 24 25  1  0  0  0
 24 28  1  0  0  0
 25 26  1  0  0  0
 26 27  1  0  0  0
 27 28  1  0  0  0
 29 30  1  0  0  0
 30 31  2  0  0  0
 30 32  1  0  0  0
 18 19  2  0  0  0
 18 20  1  0  0  0
  9 21  1  0  0  0
 32 33  1  0  0  0
 32 34  1  0  0  0
 20 22  1  0  0  0
M  END
> <minimizedAffinity>
-6.82986

$$$$
1721


 28 31  0  0  0  0  0  0  0  0999 V2000
    4.0520    7.7765  -14.7390 C   0  0  0  0  0  0  0  0  0  0  0  0
    3.0429    8.8239  -14.7198 C   0  0  0  0  0  0  0  0  0  0  0  0
    3.0354    9.5490  -15.8595 O   0  0  0  0  0  0  0  0  0  0  0  0
    2.1256    9.1976  -13.7772 N   0  0  0  0  0  0  0  0  0  0  0  0
    1.9675    8.7043  -12.4518 C   0  0  0  0  0  0  0  0  0  0  0  0
    0.6256    7.9998  -12.2651 C   0  0  0  0  0  0  0  0  0  0  0  0
   -0.2823    8.6647  -13.1550 N   0  0  0  0  0  0  0  0  0  0  0  0
   -0.1183   10.0764  -13.3462 C   0  0  0  0  0  0  0  0  0  0  0  0
    1.1364   10.2580  -14.2068 C   0  0  0  0  0  0  0  0  0  0  0  0
   -1.3130    7.9890  -13.8321 C   0  0  0  0  0  0  0  0  0  0  0  0
   -2.5349    8.5612  -14.0382 N   0  0  0  0  0  0  0  0  0  0  0  0
   -3.5440    7.9819  -14.6642 C   0  0  0  0  0  0  0  0  0  0  0  0
   -3.4411    6.7173  -15.1719 C   0  0  0  0  0  0  0  0  0  0  0  0
   -2.2235    6.0761  -14.9969 C   0  0  0  0  0  0  0  0  0  0  0  0
   -1.1786    6.7045  -14.3375 C   0  0  0  0  0  0  0  0  0  0  0  0
    5.0105    7.8117  -13.6995 N   0  0  0  0  0  0  0  0  0  0  0  0
    4.9599    8.5152  -12.9575 H   0  0  0  0  0  0  0  0  0  0  0  0
    9.9825    6.7189  -14.2570 Cl  0  0  0  0  0  0  0  0  0  0  0  0
    8.3302    6.2664  -13.9301 C   0  0  0  0  0  0  0  0  0  0  0  0
    7.9912    5.0133  -13.6579 N   0  0  0  0  0  0  0  0  0  0  0  0
    6.7531    4.5816  -13.3958 C   0  0  0  0  0  0  0  0  0  0  0  0
    6.1918    3.3975  -13.1028 N   0  0  0  0  0  0  0  0  0  0  0  0
    4.8695    3.5649  -12.9331 C   0  0  0  0  0  0  0  0  0  0  0  0
    4.6201    4.8738  -13.1256 N   0  0  0  0  0  0  0  0  0  0  0  0
    5.7462    5.5431  -13.4135 C   0  0  0  0  0  0  0  0  0  0  0  0
    6.0867    6.8446  -13.6937 C   0  0  0  0  0  0  0  0  0  0  0  0
    7.3532    7.2008  -13.9467 N   0  0  0  0  0  0  0  0  0  0  0  0
    3.6866    5.3620  -13.0715 H   0  0  0  0  0  0  0  0  0  0  0  0
 18 19  1  0  0  0
 19 20  2  0  0  0
 19 27  1  0  0  0
 20 21  1  0  0  0
 21 22  1  0  0  0
 21 25  2  0  0  0
 22 23  2  0  0  0
 23 24  1  0  0  0
 24 25  1  0  0  0
 25 26  1  0  0  0
 26 27  2  0  0  0
 26 16  1  0  0  0
 16  1  1  0  0  0
  1  2  1  0  0  0
  2  3  2  0  0  0
  2  4  1  0  0  0
  4  5  1  0  0  0
  4  9  1  0  0  0
  5  6  1  0  0  0
  6  7  1  0  0  0
  7  8  1  0  0  0
  7 10  1  0  0  0
  8  9  1  0  0  0
 10 11  2  0  0  0
 10 15  1  0  0  0
 11 12  1  0  0  0
 12 13  2  0  0  0
 13 14  1  0  0  0
 14 15  2  0  0  0
 24 28  1  0  0  0
 16 17  1  0  0  0
M  END
> <minimizedAffinity>
-8.35169

$$$$
1726


 30 33  0  0  0  0  0  0  0  0999 V2000
    1.5183    7.3502  -13.2125 C   0  0  0  0  0  0  0  0  0  0  0  0
    2.5720    8.1255  -13.8377 N   0  0  0  0  0  0  0  0  0  0  0  0
    2.0304    8.6894  -15.0285 C   0  0  0  0  0  0  0  0  0  0  0  0
    2.2413   10.1613  -15.1932 C   0  0  0  0  0  0  0  0  0  0  0  0
    1.4092   11.0087  -14.2975 C   0  0  0  0  0  0  0  0  0  0  0  0
    2.1420   11.7434  -13.3047 N   0  0  0  0  0  0  0  0  0  0  0  0
    3.3653   11.4081  -12.8534 C   0  0  0  0  0  0  0  0  0  0  0  0
    4.0620   12.1057  -11.9092 C   0  0  0  0  0  0  0  0  0  0  0  0
    3.4893   13.2385  -11.3676 C   0  0  0  0  0  0  0  0  0  0  0  0
    2.2405   13.5882  -11.8231 C   0  0  0  0  0  0  0  0  0  0  0  0
    1.5668   12.8615  -12.7754 C   0  0  0  0  0  0  0  0  0  0  0  0
    0.4237   13.2122  -13.1681 O   0  0  0  0  0  0  0  0  0  0  0  0
    3.9349   10.1582  -13.4855 C   0  0  0  0  0  0  0  0  0  0  0  0
    3.1875    9.0127  -12.9276 C   0  0  0  0  0  0  0  0  0  0  0  0
    3.7422   10.3786  -14.9660 C   0  0  0  0  0  0  0  0  0  0  0  0
    3.3027    7.4080  -14.1317 H   0  0  0  0  0  0  0  0  0  0  0  0
    1.1221    7.8466  -11.8591 C   0  0  0  0  0  0  0  0  0  0  0  0
    1.4534    6.8994  -10.8918 O   0  0  0  0  0  0  0  0  0  0  0  0
    0.7451    6.1965  -10.9433 H   0  0  0  0  0  0  0  0  0  0  0  0
   -0.3860    8.0892  -11.9059 C   0  0  0  0  0  0  0  0  0  0  0  0
   -0.7346    8.1814  -13.2568 O   0  0  0  0  0  0  0  0  0  0  0  0
   -2.0080   10.9088  -13.2754 Br  0  0  0  0  0  0  0  0  0  0  0  0
   -2.7373    9.2669  -13.9086 C   0  0  0  0  0  0  0  0  0  0  0  0
   -1.9734    8.1266  -13.8021 C   0  0  0  0  0  0  0  0  0  0  0  0
   -2.5149    6.9477  -14.2642 C   0  0  0  0  0  0  0  0  0  0  0  0
   -3.7967    6.9137  -14.8222 C   0  0  0  0  0  0  0  0  0  0  0  0
   -4.5383    8.0758  -14.9153 C   0  0  0  0  0  0  0  0  0  0  0  0
   -4.0157    9.2514  -14.4622 C   0  0  0  0  0  0  0  0  0  0  0  0
   -5.9116    8.0663  -15.5084 C   0  0  0  0  0  0  0  0  0  0  0  0
   -1.4849    5.3529  -14.1311 Br  0  0  0  0  0  0  0  0  0  0  0  0
 22 23  1  0  0  0
 23 24  2  0  0  0
 23 28  1  0  0  0
 24 25  1  0  0  0
 24 21  1  0  0  0
 25 26  2  0  0  0
 25 30  1  0  0  0
 26 27  1  0  0  0
 27 28  2  0  0  0
 27 29  1  0  0  0
 21 20  1  0  0  0
 20 17  1  0  0  0
 17 18  1  0  0  0
 17  1  1  0  0  0
  1  2  1  0  0  0
  2  3  1  0  0  0
  2 14  1  0  0  0
  3  4  1  0  0  0
  4  5  1  0  0  0
  4 15  1  0  0  0
  5  6  1  0  0  0
  6  7  1  0  0  0
  6 11  1  0  0  0
  7  8  2  0  0  0
  7 13  1  0  0  0
  8  9  1  0  0  0
  9 10  2  0  0  0
 10 11  1  0  0  0
 11 12  2  0  0  0
 13 14  1  0  0  0
 13 15  1  0  0  0
 18 19  1  0  0  0
  2 16  1  0  0  0
M  CHG 1   2   1
M  END
> <minimizedAffinity>
-8.80923

$$$$
1732


 28 31  0  0  0  0  0  0  0  0999 V2000
    3.7078    9.1222  -14.0187 N   0  0  0  0  0  0  0  0  0  0  0  0
    3.8100    9.8477  -12.9173 N   0  0  0  0  0  0  0  0  0  0  0  0
    2.6122   10.2960  -12.5584 N   0  0  0  0  0  0  0  0  0  0  0  0
    1.7098    9.8464  -13.4556 C   0  0  0  0  0  0  0  0  0  0  0  0
    2.4245    9.1281  -14.3372 N   0  0  0  0  0  0  0  0  0  0  0  0
    0.2754   10.0935  -13.4555 C   0  0  0  0  0  0  0  0  0  0  0  0
   -0.5599    9.0554  -13.1141 C   0  0  0  0  0  0  0  0  0  0  0  0
   -1.9246    9.2913  -13.1149 C   0  0  0  0  0  0  0  0  0  0  0  0
   -2.4550   10.5135  -13.4426 C   0  0  0  0  0  0  0  0  0  0  0  0
   -1.6184   11.5564  -13.7859 C   0  0  0  0  0  0  0  0  0  0  0  0
   -0.2551   11.3188  -13.7840 C   0  0  0  0  0  0  0  0  0  0  0  0
   -0.0835    7.7573  -12.7618 N   0  0  0  0  0  0  0  0  0  0  0  0
    0.4289    7.4504  -11.5768 N   0  0  0  0  0  0  0  0  0  0  0  0
    0.7691    6.1808  -11.5788 N   0  0  0  0  0  0  0  0  0  0  0  0
    0.4715    5.6768  -12.7742 N   0  0  0  0  0  0  0  0  0  0  0  0
   -0.0642    6.6682  -13.5167 C   0  0  0  0  0  0  0  0  0  0  0  0
    4.7963    8.4454  -14.7421 C   0  0  0  0  0  0  0  0  0  0  0  0
    6.5960    6.8735  -13.9560 N   0  0  0  0  0  0  0  0  0  0  0  0
    5.2510    7.2411  -13.9985 C   0  0  0  0  0  0  0  0  0  0  0  0
    4.3726    6.5775  -13.4176 O   0  0  0  0  0  0  0  0  0  0  0  0
    7.2626    7.5098  -14.4872 H   0  0  0  0  0  0  0  0  0  0  0  0
    8.7724    7.7401  -12.0204 Br  0  0  0  0  0  0  0  0  0  0  0  0
    8.2141    5.9662  -12.3754 C   0  0  0  0  0  0  0  0  0  0  0  0
    7.1917    5.7725  -13.3052 C   0  0  0  0  0  0  0  0  0  0  0  0
    6.8360    4.4530  -13.5133 C   0  0  0  0  0  0  0  0  0  0  0  0
    7.4515    3.3906  -12.8471 C   0  0  0  0  0  0  0  0  0  0  0  0
    8.4524    3.6451  -11.9434 C   0  0  0  0  0  0  0  0  0  0  0  0
    8.8392    4.9447  -11.7032 C   0  0  0  0  0  0  0  0  0  0  0  0
 22 23  1  0  0  0
 23 24  2  0  0  0
 23 28  1  0  0  0
 24 25  1  0  0  0
 24 18  1  0  0  0
 25 26  2  0  0  0
 26 27  1  0  0  0
 27 28  2  0  0  0
 18 19  1  0  0  0
 19 20  2  0  0  0
 19 17  1  0  0  0
 17  1  1  0  0  0
  1  2  1  0  0  0
  1  5  1  0  0  0
  2  3  2  0  0  0
  3  4  1  0  0  0
  4  5  2  0  0  0
  4  6  1  0  0  0
  6  7  1  0  0  0
  6 11  2  0  0  0
  7  8  2  0  0  0
  7 12  1  0  0  0
  8  9  1  0  0  0
  9 10  2  0  0  0
 10 11  1  0  0  0
 12 13  1  0  0  0
 12 16  1  0  0  0
 13 14  2  0  0  0
 14 15  1  0  0  0
 15 16  2  0  0  0
 18 21  1  0  0  0
M  END
> <minimizedAffinity>
-8.49072

$$$$
1736


 35 39  0  0  0  0  0  0  0  0999 V2000
    2.1559   13.4753  -10.5393 Cl  0  0  0  0  0  0  0  0  0  0  0  0
    2.8031   12.5488  -11.9029 C   0  0  0  0  0  0  0  0  0  0  0  0
    2.3996   11.2570  -12.1323 C   0  0  0  0  0  0  0  0  0  0  0  0
    2.9049   10.5477  -13.1892 C   0  0  0  0  0  0  0  0  0  0  0  0
    3.8217   11.1409  -14.0200 C   0  0  0  0  0  0  0  0  0  0  0  0
    4.2503   12.4519  -13.8125 C   0  0  0  0  0  0  0  0  0  0  0  0
    3.7236   13.1382  -12.7415 C   0  0  0  0  0  0  0  0  0  0  0  0
    4.2289   10.2566  -15.0473 N   0  0  0  0  0  0  0  0  0  0  0  0
    3.5219    9.0428  -14.8396 C   0  0  0  0  0  0  0  0  0  0  0  0
    3.6181    8.0148  -15.5436 O   0  0  0  0  0  0  0  0  0  0  0  0
    2.6461    9.1676  -13.6590 C   0  0  0  0  0  0  0  0  0  0  0  0
    2.9357    8.1801  -12.6483 N   0  0  0  0  0  0  0  0  0  0  0  0
    1.6966    7.7902  -12.0521 C   0  0  0  0  0  0  0  0  0  0  0  0
    0.6429    7.8787  -13.1314 C   0  0  0  0  0  0  0  0  0  0  0  0
    1.2331    8.9220  -14.0455 C   0  0  0  0  0  0  0  0  0  0  0  0
    0.3539   10.1129  -13.9469 C   0  0  0  0  0  0  0  0  0  0  0  0
    0.6075   11.3103  -14.2326 O   0  0  0  0  0  0  0  0  0  0  0  0
   -0.9073    9.6287  -13.4413 N   0  0  0  0  0  0  0  0  0  0  0  0
   -0.6405    8.4517  -12.6513 C   0  0  0  0  0  0  0  0  0  0  0  0
   -1.3483    7.9791  -11.7244 O   0  0  0  0  0  0  0  0  0  0  0  0
    4.9208   10.4219  -15.8359 H   0  0  0  0  0  0  0  0  0  0  0  0
    3.6024    8.5535  -11.9653 H   0  0  0  0  0  0  0  0  0  0  0  0
    1.7706    6.4012  -11.4550 C   0  0  0  0  0  0  0  0  0  0  0  0
    2.9874    5.8438  -11.8375 O   0  0  0  0  0  0  0  0  0  0  0  0
    0.6863    5.5768  -12.1408 C   0  0  0  0  0  0  0  0  0  0  0  0
    2.9354    5.5506  -12.7752 H   0  0  0  0  0  0  0  0  0  0  0  0
   -2.2153   10.2040  -13.6727 C   0  0  0  0  0  0  0  0  0  0  0  0
   -3.1324    9.1756  -14.2492 C   0  0  0  0  0  0  0  0  0  0  0  0
   -4.4929    9.3929  -14.3024 C   0  0  0  0  0  0  0  0  0  0  0  0
   -5.3218    8.4243  -14.8420 C   0  0  0  0  0  0  0  0  0  0  0  0
   -4.8290    7.2325  -15.3364 C   0  0  0  0  0  0  0  0  0  0  0  0
   -3.4715    7.0051  -15.2878 C   0  0  0  0  0  0  0  0  0  0  0  0
   -2.6584    7.9758  -14.7493 C   0  0  0  0  0  0  0  0  0  0  0  0
   -4.9901   10.6002  -13.8013 O   0  0  0  0  0  0  0  0  0  0  0  0
   -6.4057   10.8119  -13.8222 C   0  0  0  0  0  0  0  0  0  0  0  0
  1  2  1  0  0  0
  2  3  2  0  0  0
  2  7  1  0  0  0
  3  4  1  0  0  0
  4  5  2  0  0  0
  4 11  1  0  0  0
  5  6  1  0  0  0
  5  8  1  0  0  0
  6  7  2  0  0  0
  8  9  1  0  0  0
  9 10  2  0  0  0
  9 11  1  0  0  0
 11 12  1  0  0  0
 11 15  1  0  0  0
 12 13  1  0  0  0
 13 14  1  0  0  0
 13 23  1  0  0  0
 14 15  1  0  0  0
 14 19  1  0  0  0
 15 16  1  0  0  0
 16 17  2  0  0  0
 16 18  1  0  0  0
 18 19  1  0  0  0
 18 27  1  0  0  0
 19 20  2  0  0  0
 27 28  1  0  0  0
 28 29  2  0  0  0
 28 33  1  0  0  0
 29 30  1  0  0  0
 29 34  1  0  0  0
 30 31  2  0  0  0
 31 32  1  0  0  0
 32 33  2  0  0  0
 34 35  1  0  0  0
 23 24  1  0  0  0
 23 25  1  0  0  0
  8 21  1  0  0  0
 12 22  1  0  0  0
 24 26  1  0  0  0
M  END
> <minimizedAffinity>
-7.51355

$$$$
1741


 28 31  0  0  0  0  0  0  0  0999 V2000
    2.0617    9.9658  -12.7709 C   0  0  0  0  0  0  0  0  0  0  0  0
    2.2206   10.0762  -11.5392 O   0  0  0  0  0  0  0  0  0  0  0  0
    2.0911    8.7024  -13.3790 N   0  0  0  0  0  0  0  0  0  0  0  0
    2.2944    7.4718  -12.6468 C   0  0  0  0  0  0  0  0  0  0  0  0
    1.1607    6.5361  -13.0324 C   0  0  0  0  0  0  0  0  0  0  0  0
    0.1991    7.1827  -13.8240 N   0  0  0  0  0  0  0  0  0  0  0  0
    0.5784    7.8099  -15.0228 C   0  0  0  0  0  0  0  0  0  0  0  0
    1.9101    8.5262  -14.8279 C   0  0  0  0  0  0  0  0  0  0  0  0
    1.8397   11.2104  -13.5831 C   0  0  0  0  0  0  0  0  0  0  0  0
   -0.9898   17.5355  -11.9061 Br  0  0  0  0  0  0  0  0  0  0  0  0
   -0.0710   15.8857  -12.2417 C   0  0  0  0  0  0  0  0  0  0  0  0
    1.1769   15.6552  -11.6586 C   0  0  0  0  0  0  0  0  0  0  0  0
    1.8236   14.4506  -11.9162 C   0  0  0  0  0  0  0  0  0  0  0  0
    1.2707   13.4859  -12.7255 C   0  0  0  0  0  0  0  0  0  0  0  0
    2.1019   12.4077  -12.8131 N   0  0  0  0  0  0  0  0  0  0  0  0
    3.1645   12.7114  -12.0579 C   0  0  0  0  0  0  0  0  0  0  0  0
    3.0374   13.9608  -11.4853 C   0  0  0  0  0  0  0  0  0  0  0  0
    0.0417   13.7060  -13.3027 C   0  0  0  0  0  0  0  0  0  0  0  0
   -0.6107   14.9083  -13.0498 C   0  0  0  0  0  0  0  0  0  0  0  0
   -1.1058    7.3512  -13.3345 C   0  0  0  0  0  0  0  0  0  0  0  0
   -2.1755    6.9247  -14.2749 C   0  0  0  0  0  0  0  0  0  0  0  0
   -2.0959    5.7527  -14.7213 O   0  0  0  0  0  0  0  0  0  0  0  0
   -3.2384    7.7484  -14.6756 N   0  0  0  0  0  0  0  0  0  0  0  0
   -4.2359    7.2571  -15.6053 C   0  0  0  0  0  0  0  0  0  0  0  0
   -5.5890    7.4650  -14.9579 C   0  0  0  0  0  0  0  0  0  0  0  0
   -5.7492    8.8554  -14.8649 O   0  0  0  0  0  0  0  0  0  0  0  0
   -4.8638    9.4104  -13.9722 C   0  0  0  0  0  0  0  0  0  0  0  0
   -3.4258    9.1098  -14.2154 C   0  0  0  0  0  0  0  0  0  0  0  0
 10 11  1  0  0  0
 11 12  2  0  0  0
 11 19  1  0  0  0
 12 13  1  0  0  0
 13 14  2  0  0  0
 13 17  1  0  0  0
 14 15  1  0  0  0
 14 18  1  0  0  0
 15 16  1  0  0  0
 15  9  1  0  0  0
 16 17  2  0  0  0
  9  1  1  0  0  0
  1  2  2  0  0  0
  1  3  1  0  0  0
  3  4  1  0  0  0
  3  8  1  0  0  0
  4  5  1  0  0  0
  5  6  1  0  0  0
  6  7  1  0  0  0
  6 20  1  0  0  0
  7  8  1  0  0  0
 20 21  1  0  0  0
 21 22  2  0  0  0
 21 23  1  0  0  0
 23 24  1  0  0  0
 23 28  1  0  0  0
 24 25  1  0  0  0
 25 26  1  0  0  0
 26 27  1  0  0  0
 27 28  1  0  0  0
 18 19  2  0  0  0
M  END
> <minimizedAffinity>
-8.35279

$$$$
1744


 34 37  0  0  0  0  0  0  0  0999 V2000
    1.2717    7.6206  -13.9659 N   0  0  0  0  0  0  0  0  0  0  0  0
    1.8710    6.7740  -12.9864 C   0  0  0  0  0  0  0  0  0  0  0  0
    1.2217    5.9803  -12.2623 O   0  0  0  0  0  0  0  0  0  0  0  0
    3.2863    6.8306  -12.8215 N   0  0  0  0  0  0  0  0  0  0  0  0
    4.0552    7.7284  -13.6366 C   0  0  0  0  0  0  0  0  0  0  0  0
    5.3199    7.5583  -13.6080 O   0  0  0  0  0  0  0  0  0  0  0  0
    3.4360    8.7843  -14.4584 C   0  0  0  0  0  0  0  0  0  0  0  0
    2.0150    8.5122  -14.7863 C   0  0  0  0  0  0  0  0  0  0  0  0
    1.5140    9.0856  -15.7845 O   0  0  0  0  0  0  0  0  0  0  0  0
    3.7933    6.2344  -12.1176 H   0  0  0  0  0  0  0  0  0  0  0  0
   -3.3032    9.8806  -13.1876 Cl  0  0  0  0  0  0  0  0  0  0  0  0
   -2.3218    8.5662  -13.7776 C   0  0  0  0  0  0  0  0  0  0  0  0
   -0.9551    8.5861  -13.6495 C   0  0  0  0  0  0  0  0  0  0  0  0
   -0.1435    7.5598  -14.1012 C   0  0  0  0  0  0  0  0  0  0  0  0
   -0.7368    6.4879  -14.6957 C   0  0  0  0  0  0  0  0  0  0  0  0
   -2.1180    6.4185  -14.8507 C   0  0  0  0  0  0  0  0  0  0  0  0
   -2.8919    7.4631  -14.3874 C   0  0  0  0  0  0  0  0  0  0  0  0
    3.5591   10.1270  -13.7774 C   0  0  0  0  0  0  0  0  0  0  0  0
    3.3068   10.3340  -12.4979 C   0  0  0  0  0  0  0  0  0  0  0  0
    3.5542   11.7768  -12.2813 C   0  0  0  0  0  0  0  0  0  0  0  0
    4.5520   12.0651  -13.2958 N   0  0  0  0  0  0  0  0  0  0  0  0
    3.9828   11.3502  -14.3785 N   0  0  0  0  0  0  0  0  0  0  0  0
    4.7074   13.0581  -13.4874 H   0  0  0  0  0  0  0  0  0  0  0  0
    3.8655   11.5771  -15.3659 H   0  0  0  0  0  0  0  0  0  0  0  0
    2.3145   12.5669  -12.5222 C   0  0  0  0  0  0  0  0  0  0  0  0
    1.1466   12.0618  -13.0183 C   0  0  0  0  0  0  0  0  0  0  0  0
    0.0117   12.8303  -13.1865 C   0  0  0  0  0  0  0  0  0  0  0  0
    0.0209   14.1716  -12.8500 C   0  0  0  0  0  0  0  0  0  0  0  0
    1.2247   14.6850  -12.3407 C   0  0  0  0  0  0  0  0  0  0  0  0
    2.3459   13.9052  -12.1809 C   0  0  0  0  0  0  0  0  0  0  0  0
   -1.1658   12.2616  -13.7033 O   0  0  0  0  0  0  0  0  0  0  0  0
   -1.1534   11.2758  -13.9434 H   0  0  0  0  0  0  0  0  0  0  0  0
   -1.0902   14.9660  -12.9991 O   0  0  0  0  0  0  0  0  0  0  0  0
   -0.9884   16.3566  -13.2248 C   0  0  0  0  0  0  0  0  0  0  0  0
 11 12  1  0  0  0
 12 13  2  0  0  0
 12 17  1  0  0  0
 13 14  1  0  0  0
 14 15  2  0  0  0
 14  1  1  0  0  0
 15 16  1  0  0  0
 16 17  2  0  0  0
  1  2  1  0  0  0
  1  8  1  0  0  0
  2  3  2  0  0  0
  2  4  1  0  0  0
  4  5  1  0  0  0
  5  6  2  0  0  0
  5  7  1  0  0  0
  7  8  1  0  0  0
  7 18  1  0  0  0
  8  9  2  0  0  0
 18 19  2  0  0  0
 18 22  1  0  0  0
 19 20  1  0  0  0
 20 21  1  0  0  0
 20 25  1  0  0  0
 21 22  1  0  0  0
 25 26  2  0  0  0
 25 30  1  0  0  0
 26 27  1  0  0  0
 27 28  2  0  0  0
 27 31  1  0  0  0
 28 29  1  0  0  0
 28 33  1  0  0  0
 29 30  2  0  0  0
 33 34  1  0  0  0
  4 10  1  0  0  0
 21 23  1  0  0  0
 22 24  1  0  0  0
 31 32  1  0  0  0
M  END
> <minimizedAffinity>
-8.78105

$$$$
1745


 34 37  0  0  0  0  0  0  0  0999 V2000
    1.9838   10.8836  -13.6199 N   0  0  0  0  0  0  0  0  0  0  0  0
    2.0354   10.3141  -14.9179 C   0  0  0  0  0  0  0  0  0  0  0  0
    1.3599   10.7688  -15.8510 O   0  0  0  0  0  0  0  0  0  0  0  0
    2.8824    9.1839  -15.1712 N   0  0  0  0  0  0  0  0  0  0  0  0
    3.6835    8.6200  -14.1345 C   0  0  0  0  0  0  0  0  0  0  0  0
    4.7084    7.9578  -14.3720 O   0  0  0  0  0  0  0  0  0  0  0  0
    3.2594    8.8422  -12.7065 C   0  0  0  0  0  0  0  0  0  0  0  0
    2.8184   10.2509  -12.6256 C   0  0  0  0  0  0  0  0  0  0  0  0
    3.1670   10.9957  -11.6400 O   0  0  0  0  0  0  0  0  0  0  0  0
    2.9042    8.7858  -16.1187 H   0  0  0  0  0  0  0  0  0  0  0  0
    2.1710   15.7035  -11.9808 Cl  0  0  0  0  0  0  0  0  0  0  0  0
    1.2347   14.3213  -12.4810 C   0  0  0  0  0  0  0  0  0  0  0  0
    1.8937   13.1718  -12.8572 C   0  0  0  0  0  0  0  0  0  0  0  0
    1.2093   12.0214  -13.2669 C   0  0  0  0  0  0  0  0  0  0  0  0
   -0.1582   12.1022  -13.2733 C   0  0  0  0  0  0  0  0  0  0  0  0
   -0.8257   13.2486  -12.8993 C   0  0  0  0  0  0  0  0  0  0  0  0
   -0.1332   14.3915  -12.4902 C   0  0  0  0  0  0  0  0  0  0  0  0
    2.1819    7.8684  -12.3578 C   0  0  0  0  0  0  0  0  0  0  0  0
    1.1326    8.0350  -11.5792 C   0  0  0  0  0  0  0  0  0  0  0  0
    0.3549    6.7658  -11.5516 C   0  0  0  0  0  0  0  0  0  0  0  0
    1.4161    5.7882  -11.9038 N   0  0  0  0  0  0  0  0  0  0  0  0
    2.1594    6.5184  -12.8401 N   0  0  0  0  0  0  0  0  0  0  0  0
    1.9654    5.5450  -11.0558 H   0  0  0  0  0  0  0  0  0  0  0  0
    2.6016    6.1861  -13.6904 H   0  0  0  0  0  0  0  0  0  0  0  0
   -0.5938    6.7535  -12.6980 C   0  0  0  0  0  0  0  0  0  0  0  0
   -1.2767    7.9208  -13.1018 C   0  0  0  0  0  0  0  0  0  0  0  0
   -2.1260    7.9659  -14.1636 C   0  0  0  0  0  0  0  0  0  0  0  0
   -2.3492    6.8208  -14.9048 C   0  0  0  0  0  0  0  0  0  0  0  0
   -1.7005    5.6638  -14.5391 C   0  0  0  0  0  0  0  0  0  0  0  0
   -0.8434    5.6329  -13.4614 C   0  0  0  0  0  0  0  0  0  0  0  0
   -3.2131    6.8491  -15.9947 O   0  0  0  0  0  0  0  0  0  0  0  0
   -3.6708    7.7186  -16.2350 H   0  0  0  0  0  0  0  0  0  0  0  0
   -2.7828    9.1526  -14.5194 O   0  0  0  0  0  0  0  0  0  0  0  0
   -3.9752    9.5107  -13.8557 C   0  0  0  0  0  0  0  0  0  0  0  0
 11 12  1  0  0  0
 12 13  2  0  0  0
 12 17  1  0  0  0
 13 14  1  0  0  0
 14 15  2  0  0  0
 14  1  1  0  0  0
 15 16  1  0  0  0
 16 17  2  0  0  0
  1  2  1  0  0  0
  1  8  1  0  0  0
  2  3  2  0  0  0
  2  4  1  0  0  0
  4  5  1  0  0  0
  5  6  2  0  0  0
  5  7  1  0  0  0
  7  8  1  0  0  0
  7 18  1  0  0  0
  8  9  2  0  0  0
 18 19  2  0  0  0
 18 22  1  0  0  0
 19 20  1  0  0  0
 20 21  1  0  0  0
 20 25  1  0  0  0
 21 22  1  0  0  0
 25 26  2  0  0  0
 25 30  1  0  0  0
 26 27  1  0  0  0
 27 28  2  0  0  0
 27 33  1  0  0  0
 28 29  1  0  0  0
 28 31  1  0  0  0
 29 30  2  0  0  0
 33 34  1  0  0  0
  4 10  1  0  0  0
 21 23  1  0  0  0
 22 24  1  0  0  0
 31 32  1  0  0  0
M  END
> <minimizedAffinity>
-8.30525

$$$$
1750


 27 30  0  0  0  0  0  0  0  0999 V2000
    3.5426   10.2472  -13.8811 N   0  0  0  0  0  0  0  0  0  0  0  0
    2.7455   10.1783  -15.0674 C   0  0  0  0  0  0  0  0  0  0  0  0
    1.4601    9.3999  -14.8616 C   0  0  0  0  0  0  0  0  0  0  0  0
    1.7657    8.1590  -14.2011 N   0  0  0  0  0  0  0  0  0  0  0  0
    3.1596    7.8268  -13.9838 C   0  0  0  0  0  0  0  0  0  0  0  0
    3.7916    8.9931  -13.2558 C   0  0  0  0  0  0  0  0  0  0  0  0
    0.7615    7.2519  -13.7560 C   0  0  0  0  0  0  0  0  0  0  0  0
    1.0538    6.1775  -13.1817 O   0  0  0  0  0  0  0  0  0  0  0  0
   -0.6574    7.5527  -13.9598 C   0  0  0  0  0  0  0  0  0  0  0  0
   -1.5613    6.7745  -14.6159 N   0  0  0  0  0  0  0  0  0  0  0  0
   -2.7572    7.3832  -14.5955 C   0  0  0  0  0  0  0  0  0  0  0  0
   -2.6039    8.5303  -13.9347 N   0  0  0  0  0  0  0  0  0  0  0  0
   -1.3311    8.6581  -13.5361 C   0  0  0  0  0  0  0  0  0  0  0  0
   -3.6726    9.3348  -13.7757 C   0  0  0  0  0  0  0  0  0  0  0  0
   -4.9223    9.0507  -14.2529 C   0  0  0  0  0  0  0  0  0  0  0  0
   -5.1017    7.8585  -14.9454 C   0  0  0  0  0  0  0  0  0  0  0  0
   -4.0024    7.0446  -15.1018 C   0  0  0  0  0  0  0  0  0  0  0  0
   -6.2971   10.1267  -14.0267 Cl  0  0  0  0  0  0  0  0  0  0  0  0
    3.1755   11.5157  -12.8267 S   0  0  0  0  0  0  0  0  0  0  0  0
    2.9705   10.9880  -11.4439 O   0  0  0  0  0  0  0  0  0  0  0  0
    4.3357   12.4707  -12.8028 O   0  0  0  0  0  0  0  0  0  0  0  0
    1.7821   12.4142  -13.2768 N   0  0  0  0  0  0  0  0  0  0  0  0
    1.7268   13.7100  -12.6261 C   0  0  0  0  0  0  0  0  0  0  0  0
    0.2794   14.1407  -12.6111 C   0  0  0  0  0  0  0  0  0  0  0  0
   -0.4015   13.6970  -13.7398 O   0  0  0  0  0  0  0  0  0  0  0  0
   -0.5499   12.3121  -13.7676 C   0  0  0  0  0  0  0  0  0  0  0  0
    0.5578   11.7227  -12.9176 C   0  0  0  0  0  0  0  0  0  0  0  0
 19 20  2  0  0  0
 19 21  2  0  0  0
 19  1  1  0  0  0
 19 22  1  0  0  0
  1  2  1  0  0  0
  1  6  1  0  0  0
  2  3  1  0  0  0
  3  4  1  0  0  0
  4  5  1  0  0  0
  4  7  1  0  0  0
  5  6  1  0  0  0
  7  8  2  0  0  0
  7  9  1  0  0  0
  9 10  1  0  0  0
  9 13  2  0  0  0
 10 11  2  0  0  0
 11 12  1  0  0  0
 11 17  1  0  0  0
 12 13  1  0  0  0
 12 14  1  0  0  0
 14 15  2  0  0  0
 15 16  1  0  0  0
 15 18  1  0  0  0
 16 17  2  0  0  0
 22 23  1  0  0  0
 22 27  1  0  0  0
 23 24  1  0  0  0
 24 25  1  0  0  0
 25 26  1  0  0  0
 26 27  1  0  0  0
M  END
> <minimizedAffinity>
-7.54610

$$$$
1758


 28 32  0  0  0  0  0  0  0  0999 V2000
    0.6196   14.9578  -12.4119 N   0  0  0  0  0  0  0  0  0  0  0  0
    1.8188   15.0557  -11.8677 N   0  0  0  0  0  0  0  0  0  0  0  0
    2.5242   13.9146  -12.0034 C   0  0  0  0  0  0  0  0  0  0  0  0
    3.7397   13.6380  -11.5949 C   0  0  0  0  0  0  0  0  0  0  0  0
    1.7093   13.0311  -12.6833 C   0  0  0  0  0  0  0  0  0  0  0  0
    2.0205   11.7732  -13.0308 C   0  0  0  0  0  0  0  0  0  0  0  0
    0.5372   13.7161  -12.9189 C   0  0  0  0  0  0  0  0  0  0  0  0
   -0.4667   13.2544  -13.5185 O   0  0  0  0  0  0  0  0  0  0  0  0
    2.1969   15.9049  -11.3850 H   0  0  0  0  0  0  0  0  0  0  0  0
   -3.6976   19.5837  -12.2963 I   0  0  0  0  0  0  0  0  0  0  0  0
   -2.2765   18.0315  -12.3659 C   0  0  0  0  0  0  0  0  0  0  0  0
   -2.2798   17.0906  -13.3754 C   0  0  0  0  0  0  0  0  0  0  0  0
   -1.3396   16.0604  -13.4243 C   0  0  0  0  0  0  0  0  0  0  0  0
   -0.3944   15.9814  -12.4519 C   0  0  0  0  0  0  0  0  0  0  0  0
   -0.4012   16.9300  -11.4451 C   0  0  0  0  0  0  0  0  0  0  0  0
   -1.3205   17.9545  -11.3790 C   0  0  0  0  0  0  0  0  0  0  0  0
    1.0198   11.0447  -13.7301 N   0  0  0  0  0  0  0  0  0  0  0  0
    0.3820   11.4620  -14.4363 H   0  0  0  0  0  0  0  0  0  0  0  0
    0.8675    9.6260  -13.4509 C   0  0  0  0  0  0  0  0  0  0  0  0
    1.6779    9.2499  -12.2197 C   0  0  0  0  0  0  0  0  0  0  0  0
    1.4674    7.8596  -11.9244 N   0  0  0  0  0  0  0  0  0  0  0  0
    1.9302    7.0946  -13.0775 C   0  0  0  0  0  0  0  0  0  0  0  0
    1.1585    7.3908  -14.2517 N   0  0  0  0  0  0  0  0  0  0  0  0
   -0.2488    7.1661  -14.0061 C   0  0  0  0  0  0  0  0  0  0  0  0
   -0.7315    7.9281  -12.8856 N   0  0  0  0  0  0  0  0  0  0  0  0
    0.0573    7.6468  -11.6903 C   0  0  0  0  0  0  0  0  0  0  0  0
   -0.5920    9.3364  -13.1766 C   0  0  0  0  0  0  0  0  0  0  0  0
    1.3514    8.7785  -14.5890 C   0  0  0  0  0  0  0  0  0  0  0  0
 10 11  1  0  0  0
 11 12  2  0  0  0
 11 16  1  0  0  0
 12 13  1  0  0  0
 13 14  2  0  0  0
 14 15  1  0  0  0
 14  1  1  0  0  0
 15 16  2  0  0  0
  1  2  1  0  0  0
  1  7  1  0  0  0
  2  3  1  0  0  0
  3  4  2  0  0  0
  3  5  1  0  0  0
  5  6  2  0  0  0
  5  7  1  0  0  0
  6 17  1  0  0  0
 17 19  1  0  0  0
 19 20  1  0  0  0
 19 27  1  0  0  0
 19 28  1  0  0  0
 20 21  1  0  0  0
 21 22  1  0  0  0
 21 26  1  0  0  0
 22 23  1  0  0  0
 23 24  1  0  0  0
 23 28  1  0  0  0
 24 25  1  0  0  0
 25 26  1  0  0  0
 25 27  1  0  0  0
  7  8  2  0  0  0
  2  9  1  0  0  0
 17 18  1  0  0  0
M  END
> <minimizedAffinity>
-8.40909

$$$$
1764


 34 37  0  0  0  0  0  0  0  0999 V2000
    1.8210   13.4743  -12.8281 N   0  0  0  0  0  0  0  0  0  0  0  0
    0.8024   14.0300  -12.0782 C   0  0  0  0  0  0  0  0  0  0  0  0
    1.4967   14.9167  -11.0350 C   0  0  0  0  0  0  0  0  0  0  0  0
    2.6573   15.4703  -11.8321 C   0  0  0  0  0  0  0  0  0  0  0  0
    2.9524   14.3970  -12.8521 C   0  0  0  0  0  0  0  0  0  0  0  0
   -0.0296   14.9232  -12.9827 C   0  0  0  0  0  0  0  0  0  0  0  0
   -0.3164   14.4487  -14.0898 O   0  0  0  0  0  0  0  0  0  0  0  0
   -0.4185   16.1964  -12.5320 N   0  0  0  0  0  0  0  0  0  0  0  0
   -0.1485   16.5703  -11.5997 H   0  0  0  0  0  0  0  0  0  0  0  0
   -1.2174   17.0526  -13.3743 C   0  0  0  0  0  0  0  0  0  0  0  0
   -2.6122   17.2738  -12.9296 C   0  0  0  0  0  0  0  0  0  0  0  0
   -2.8522   18.4321  -12.1442 N   0  0  0  0  0  0  0  0  0  0  0  0
   -2.8651   18.2317  -10.7317 C   0  0  0  0  0  0  0  0  0  0  0  0
   -2.1813   19.4214  -10.0883 C   0  0  0  0  0  0  0  0  0  0  0  0
   -2.8165   20.6925  -10.6133 C   0  0  0  0  0  0  0  0  0  0  0  0
   -4.3120   20.5332  -10.5564 C   0  0  0  0  0  0  0  0  0  0  0  0
   -4.8928   19.7462  -11.6713 C   0  0  0  0  0  0  0  0  0  0  0  0
   -3.9303   19.2084  -12.6621 C   0  0  0  0  0  0  0  0  0  0  0  0
    2.2542   11.8717  -12.8356 S   0  0  0  0  0  0  0  0  0  0  0  0
    2.9169   11.4339  -11.5308 O   0  0  0  0  0  0  0  0  0  0  0  0
    3.3562   11.6753  -13.8787 O   0  0  0  0  0  0  0  0  0  0  0  0
    0.9782   10.7571  -13.2262 C   0  0  0  0  0  0  0  0  0  0  0  0
   -0.3139   11.2614  -13.4505 C   0  0  0  0  0  0  0  0  0  0  0  0
   -1.4024   10.4766  -13.7037 C   0  0  0  0  0  0  0  0  0  0  0  0
   -1.2001    9.1088  -13.7374 C   0  0  0  0  0  0  0  0  0  0  0  0
    0.0260    8.5521  -13.5299 C   0  0  0  0  0  0  0  0  0  0  0  0
    1.1000    9.3974  -13.2769 C   0  0  0  0  0  0  0  0  0  0  0  0
    2.6573    8.6146  -13.1253 Cl  0  0  0  0  0  0  0  0  0  0  0  0
   -2.3352    8.2721  -14.0084 N   0  0  0  0  0  0  0  0  0  0  0  0
   -3.6107    8.8687  -14.2306 C   0  0  0  0  0  0  0  0  0  0  0  0
   -4.6490    8.2163  -14.0230 O   0  0  0  0  0  0  0  0  0  0  0  0
   -3.6305   10.2728  -14.7112 C   0  0  0  0  0  0  0  0  0  0  0  0
   -2.6751   10.9799  -13.9247 O   0  0  0  0  0  0  0  0  0  0  0  0
   -2.1968    7.2318  -14.0370 H   0  0  0  0  0  0  0  0  0  0  0  0
 19 20  2  0  0  0
 19 21  2  0  0  0
 19  1  1  0  0  0
 19 22  1  0  0  0
  1  2  1  0  0  0
  1  5  1  0  0  0
  2  3  1  0  0  0
  2  6  1  0  0  0
  3  4  1  0  0  0
  4  5  1  0  0  0
  6  7  2  0  0  0
  6  8  1  0  0  0
  8 10  1  0  0  0
 10 11  1  0  0  0
 11 12  1  0  0  0
 12 13  1  0  0  0
 12 18  1  0  0  0
 13 14  1  0  0  0
 14 15  1  0  0  0
 15 16  1  0  0  0
 16 17  1  0  0  0
 17 18  1  0  0  0
 22 23  2  0  0  0
 22 27  1  0  0  0
 23 24  1  0  0  0
 24 25  2  0  0  0
 24 33  1  0  0  0
 25 26  1  0  0  0
 25 29  1  0  0  0
 26 27  2  0  0  0
 27 28  1  0  0  0
 29 30  1  0  0  0
 30 31  2  0  0  0
 30 32  1  0  0  0
 32 33  1  0  0  0
  8  9  1  0  0  0
 29 34  1  0  0  0
M  END
> <minimizedAffinity>
-9.36004

$$$$
1781


 24 27  0  0  0  0  0  0  0  0999 V2000
    2.6181    7.3105  -13.1728 C   0  0  0  0  0  0  0  0  0  0  0  0
    2.0935    6.9063  -12.0429 O   0  0  0  0  0  0  0  0  0  0  0  0
    1.7665    8.0542  -13.9756 N   0  0  0  0  0  0  0  0  0  0  0  0
    1.9433    8.6103  -15.2755 C   0  0  0  0  0  0  0  0  0  0  0  0
    2.2447   10.1030  -15.0324 C   0  0  0  0  0  0  0  0  0  0  0  0
    1.3425   10.5552  -13.9571 N   0  0  0  0  0  0  0  0  0  0  0  0
    0.1119    9.8416  -13.7714 C   0  0  0  0  0  0  0  0  0  0  0  0
    0.4290    8.4072  -13.3919 C   0  0  0  0  0  0  0  0  0  0  0  0
    1.7157   11.6718  -13.1538 C   0  0  0  0  0  0  0  0  0  0  0  0
    0.9599   12.7916  -13.1188 N   0  0  0  0  0  0  0  0  0  0  0  0
    1.2754   13.8460  -12.3882 N   0  0  0  0  0  0  0  0  0  0  0  0
    2.3742   13.8863  -11.6215 C   0  0  0  0  0  0  0  0  0  0  0  0
    2.4568   15.0787  -10.9815 N   0  0  0  0  0  0  0  0  0  0  0  0
    1.4044   15.7857  -11.3497 N   0  0  0  0  0  0  0  0  0  0  0  0
    0.6710   15.0542  -12.2076 C   0  0  0  0  0  0  0  0  0  0  0  0
    3.2007   12.7759  -11.6034 C   0  0  0  0  0  0  0  0  0  0  0  0
    2.8497   11.6917  -12.3732 C   0  0  0  0  0  0  0  0  0  0  0  0
    8.3233    5.3620  -13.7026 Cl  0  0  0  0  0  0  0  0  0  0  0  0
    6.6607    5.9522  -13.5692 C   0  0  0  0  0  0  0  0  0  0  0  0
    5.6621    5.1458  -13.0820 C   0  0  0  0  0  0  0  0  0  0  0  0
    4.3703    5.6078  -12.9806 C   0  0  0  0  0  0  0  0  0  0  0  0
    3.9812    6.8995  -13.3544 C   0  0  0  0  0  0  0  0  0  0  0  0
    5.0020    7.6856  -13.8384 C   0  0  0  0  0  0  0  0  0  0  0  0
    6.3270    7.2261  -13.9479 C   0  0  0  0  0  0  0  0  0  0  0  0
 18 19  1  0  0  0
 19 20  2  0  0  0
 19 24  1  0  0  0
 20 21  1  0  0  0
 21 22  2  0  0  0
 22 23  1  0  0  0
 22  1  1  0  0  0
 23 24  2  0  0  0
  1  2  2  0  0  0
  1  3  1  0  0  0
  3  4  1  0  0  0
  3  8  1  0  0  0
  4  5  1  0  0  0
  5  6  1  0  0  0
  6  7  1  0  0  0
  6  9  1  0  0  0
  7  8  1  0  0  0
  9 10  2  0  0  0
  9 17  1  0  0  0
 10 11  1  0  0  0
 11 12  1  0  0  0
 11 15  1  0  0  0
 12 13  2  0  0  0
 12 16  1  0  0  0
 13 14  1  0  0  0
 14 15  2  0  0  0
 16 17  2  0  0  0
M  END
> <minimizedAffinity>
-8.78414

$$$$
1788


 30 33  0  0  0  0  0  0  0  0999 V2000
    2.8888    6.2115  -12.7275 N   0  0  0  0  0  0  0  0  0  0  0  0
    3.0417    7.4655  -12.9671 N   0  0  0  0  0  0  0  0  0  0  0  0
    1.8738    8.1740  -12.7332 C   0  0  0  0  0  0  0  0  0  0  0  0
    0.9829    7.2854  -12.3355 N   0  0  0  0  0  0  0  0  0  0  0  0
    1.6222    6.0666  -12.3313 C   0  0  0  0  0  0  0  0  0  0  0  0
    1.0605    5.0011  -11.9988 O   0  0  0  0  0  0  0  0  0  0  0  0
    7.1675    2.0351  -13.3363 Cl  0  0  0  0  0  0  0  0  0  0  0  0
    5.9249    3.2592  -13.1578 C   0  0  0  0  0  0  0  0  0  0  0  0
    6.1957    4.6133  -13.2195 C   0  0  0  0  0  0  0  0  0  0  0  0
    5.2072    5.5723  -13.0792 C   0  0  0  0  0  0  0  0  0  0  0  0
    3.8914    5.2103  -12.8688 C   0  0  0  0  0  0  0  0  0  0  0  0
    3.6085    3.8620  -12.8053 C   0  0  0  0  0  0  0  0  0  0  0  0
    4.6033    2.8981  -12.9470 C   0  0  0  0  0  0  0  0  0  0  0  0
    1.8300    9.6152  -12.9717 C   0  0  0  0  0  0  0  0  0  0  0  0
    2.8321   10.4077  -12.3975 C   0  0  0  0  0  0  0  0  0  0  0  0
    2.8749   11.7714  -12.4909 C   0  0  0  0  0  0  0  0  0  0  0  0
    1.8901   12.4615  -13.1853 C   0  0  0  0  0  0  0  0  0  0  0  0
    0.9058   11.6988  -13.7483 C   0  0  0  0  0  0  0  0  0  0  0  0
    0.8670   10.3050  -13.6489 C   0  0  0  0  0  0  0  0  0  0  0  0
   -0.4087    7.4551  -12.0580 C   0  0  0  0  0  0  0  0  0  0  0  0
   -1.3088    7.2995  -13.2164 C   0  0  0  0  0  0  0  0  0  0  0  0
   -1.2569    6.1132  -13.7481 O   0  0  0  0  0  0  0  0  0  0  0  0
   -2.1783    8.1813  -13.8185 N   0  0  0  0  0  0  0  0  0  0  0  0
   -2.3752    9.5546  -13.4385 C   0  0  0  0  0  0  0  0  0  0  0  0
   -3.3812   10.2743  -14.3544 C   0  0  0  0  0  0  0  0  0  0  0  0
   -4.6234    9.4971  -14.4019 N   0  0  0  0  0  0  0  0  0  0  0  0
   -4.4038    8.0854  -14.6139 C   0  0  0  0  0  0  0  0  0  0  0  0
   -5.3537    7.2760  -14.5125 O   0  0  0  0  0  0  0  0  0  0  0  0
   -3.0064    7.7164  -14.9448 C   0  0  0  0  0  0  0  0  0  0  0  0
   -5.5547    9.9078  -14.2957 H   0  0  0  0  0  0  0  0  0  0  0  0
  7  8  1  0  0  0
  8  9  2  0  0  0
  8 13  1  0  0  0
  9 10  1  0  0  0
 10 11  2  0  0  0
 11 12  1  0  0  0
 11  1  1  0  0  0
 12 13  2  0  0  0
  1  2  1  0  0  0
  1  5  1  0  0  0
  2  3  2  0  0  0
  3  4  1  0  0  0
  3 14  1  0  0  0
  4  5  1  0  0  0
  4 20  1  0  0  0
  5  6  2  0  0  0
 20 21  1  0  0  0
 21 22  2  0  0  0
 21 23  1  0  0  0
 23 24  1  0  0  0
 23 29  1  0  0  0
 24 25  1  0  0  0
 25 26  1  0  0  0
 26 27  1  0  0  0
 27 28  2  0  0  0
 27 29  1  0  0  0
 14 15  2  0  0  0
 14 19  1  0  0  0
 15 16  1  0  0  0
 16 17  2  0  0  0
 17 18  1  0  0  0
 18 19  2  0  0  0
 26 30  1  0  0  0
M  END
> <minimizedAffinity>
-9.35927

$$$$
1789


 29 32  0  0  0  0  0  0  0  0999 V2000
    0.7297   15.6493  -12.3765 N   0  0  0  0  0  0  0  0  0  0  0  0
    1.9466   16.0257  -12.0630 N   0  0  0  0  0  0  0  0  0  0  0  0
    2.7058   14.9351  -12.1050 N   0  0  0  0  0  0  0  0  0  0  0  0
    1.9763   13.8559  -12.4468 C   0  0  0  0  0  0  0  0  0  0  0  0
    0.7356   14.3252  -12.6141 C   0  0  0  0  0  0  0  0  0  0  0  0
   -0.0195   13.2153  -12.9655 C   0  0  0  0  0  0  0  0  0  0  0  0
   -1.2468   13.2547  -13.2077 O   0  0  0  0  0  0  0  0  0  0  0  0
    0.7240   12.0999  -13.0157 N   0  0  0  0  0  0  0  0  0  0  0  0
    1.9685   12.4980  -12.6924 C   0  0  0  0  0  0  0  0  0  0  0  0
    2.9817   11.7402  -12.6236 O   0  0  0  0  0  0  0  0  0  0  0  0
    2.2708   17.0086  -11.8206 H   0  0  0  0  0  0  0  0  0  0  0  0
    3.7326   14.9476  -11.8952 H   0  0  0  0  0  0  0  0  0  0  0  0
   -4.0001   19.2683  -12.6145 Cl  0  0  0  0  0  0  0  0  0  0  0  0
   -2.6040   18.1896  -12.5626 C   0  0  0  0  0  0  0  0  0  0  0  0
   -2.2901   17.3399  -13.5850 C   0  0  0  0  0  0  0  0  0  0  0  0
   -1.2089   16.4832  -13.5809 C   0  0  0  0  0  0  0  0  0  0  0  0
   -0.3952   16.4984  -12.4523 C   0  0  0  0  0  0  0  0  0  0  0  0
   -0.7113   17.3670  -11.3996 C   0  0  0  0  0  0  0  0  0  0  0  0
   -1.7952   18.1970  -11.4529 C   0  0  0  0  0  0  0  0  0  0  0  0
    0.3296   10.7689  -13.3353 C   0  0  0  0  0  0  0  0  0  0  0  0
   -0.9919   10.3835  -13.4483 C   0  0  0  0  0  0  0  0  0  0  0  0
   -1.3656    9.0927  -13.7593 C   0  0  0  0  0  0  0  0  0  0  0  0
   -0.4188    8.1124  -13.9723 C   0  0  0  0  0  0  0  0  0  0  0  0
    0.9052    8.4821  -13.8626 C   0  0  0  0  0  0  0  0  0  0  0  0
    1.2699    9.7796  -13.5513 C   0  0  0  0  0  0  0  0  0  0  0  0
   -0.8058    6.8117  -14.2851 O   0  0  0  0  0  0  0  0  0  0  0  0
   -0.7668    5.7531  -13.3782 C   0  0  0  0  0  0  0  0  0  0  0  0
   -2.6970    8.7049  -13.8727 O   0  0  0  0  0  0  0  0  0  0  0  0
   -3.6377    9.7039  -14.2208 C   0  0  0  0  0  0  0  0  0  0  0  0
 13 14  1  0  0  0
 14 15  2  0  0  0
 14 19  1  0  0  0
 15 16  1  0  0  0
 16 17  2  0  0  0
 17 18  1  0  0  0
 17  1  1  0  0  0
 18 19  2  0  0  0
  1  2  1  0  0  0
  1  5  1  0  0  0
  2  3  1  0  0  0
  3  4  1  0  0  0
  4  5  2  0  0  0
  4  9  1  0  0  0
  5  6  1  0  0  0
  6  7  2  0  0  0
  6  8  1  0  0  0
  8  9  1  0  0  0
  8 20  1  0  0  0
  9 10  2  0  0  0
 20 21  2  0  0  0
 20 25  1  0  0  0
 21 22  1  0  0  0
 22 23  2  0  0  0
 22 28  1  0  0  0
 23 24  1  0  0  0
 23 26  1  0  0  0
 24 25  2  0  0  0
 26 27  1  0  0  0
 28 29  1  0  0  0
  2 11  1  0  0  0
  3 12  1  0  0  0
M  END
> <minimizedAffinity>
-9.06117

$$$$
1790


 29 32  0  0  0  0  0  0  0  0999 V2000
    1.0153   15.2058  -12.6387 N   0  0  0  0  0  0  0  0  0  0  0  0
    2.2773   15.5212  -12.4255 N   0  0  0  0  0  0  0  0  0  0  0  0
    2.9481   14.3762  -12.4412 N   0  0  0  0  0  0  0  0  0  0  0  0
    2.1323   13.3310  -12.6612 C   0  0  0  0  0  0  0  0  0  0  0  0
    0.9077   13.8701  -12.7848 C   0  0  0  0  0  0  0  0  0  0  0  0
    0.0711   12.7935  -13.0108 C   0  0  0  0  0  0  0  0  0  0  0  0
   -1.1774   12.9283  -13.1777 O   0  0  0  0  0  0  0  0  0  0  0  0
    0.7436   11.6306  -13.0281 N   0  0  0  0  0  0  0  0  0  0  0  0
    2.0269   11.9639  -12.8110 C   0  0  0  0  0  0  0  0  0  0  0  0
    2.9786   11.1291  -12.7551 O   0  0  0  0  0  0  0  0  0  0  0  0
    2.6513   16.4887  -12.2762 H   0  0  0  0  0  0  0  0  0  0  0  0
    3.9781   14.2936  -12.3003 H   0  0  0  0  0  0  0  0  0  0  0  0
   -3.5537   19.0800  -12.8742 Cl  0  0  0  0  0  0  0  0  0  0  0  0
   -2.2007   17.9449  -12.7815 C   0  0  0  0  0  0  0  0  0  0  0  0
   -1.9234   17.1146  -13.8480 C   0  0  0  0  0  0  0  0  0  0  0  0
   -0.8850   16.2213  -13.8193 C   0  0  0  0  0  0  0  0  0  0  0  0
   -0.0673   16.1182  -12.7043 C   0  0  0  0  0  0  0  0  0  0  0  0
   -0.3603   16.9594  -11.6436 C   0  0  0  0  0  0  0  0  0  0  0  0
   -1.4047   17.8600  -11.6691 C   0  0  0  0  0  0  0  0  0  0  0  0
    0.1652   10.3445  -13.2388 C   0  0  0  0  0  0  0  0  0  0  0  0
    0.9074    9.1829  -13.1703 C   0  0  0  0  0  0  0  0  0  0  0  0
    0.3702    7.9276  -13.3696 C   0  0  0  0  0  0  0  0  0  0  0  0
   -0.9759    7.8297  -13.6526 C   0  0  0  0  0  0  0  0  0  0  0  0
   -1.7663    8.9577  -13.7339 C   0  0  0  0  0  0  0  0  0  0  0  0
   -1.1788   10.2018  -13.5255 C   0  0  0  0  0  0  0  0  0  0  0  0
   -3.1179    8.8192  -14.0212 O   0  0  0  0  0  0  0  0  0  0  0  0
   -3.9614    9.9275  -14.1758 C   0  0  0  0  0  0  0  0  0  0  0  0
    1.1717    6.7725  -13.2885 O   0  0  0  0  0  0  0  0  0  0  0  0
    1.0637    5.9445  -12.1539 C   0  0  0  0  0  0  0  0  0  0  0  0
 13 14  1  0  0  0
 14 15  2  0  0  0
 14 19  1  0  0  0
 15 16  1  0  0  0
 16 17  2  0  0  0
 17 18  1  0  0  0
 17  1  1  0  0  0
 18 19  2  0  0  0
  1  2  1  0  0  0
  1  5  1  0  0  0
  2  3  1  0  0  0
  3  4  1  0  0  0
  4  5  2  0  0  0
  4  9  1  0  0  0
  5  6  1  0  0  0
  6  7  2  0  0  0
  6  8  1  0  0  0
  8  9  1  0  0  0
  8 20  1  0  0  0
  9 10  2  0  0  0
 20 21  2  0  0  0
 20 25  1  0  0  0
 21 22  1  0  0  0
 22 23  2  0  0  0
 22 28  1  0  0  0
 23 24  1  0  0  0
 24 25  2  0  0  0
 24 26  1  0  0  0
 26 27  1  0  0  0
 28 29  1  0  0  0
  2 11  1  0  0  0
  3 12  1  0  0  0
M  END
> <minimizedAffinity>
-9.05769

$$$$
1801


 26 29  0  0  0  0  0  0  0  0999 V2000
   -4.6190    8.3973  -14.4311 Cl  0  0  0  0  0  0  0  0  0  0  0  0
   -3.0557    9.1302  -14.0724 C   0  0  0  0  0  0  0  0  0  0  0  0
   -1.9824    8.3406  -13.6997 C   0  0  0  0  0  0  0  0  0  0  0  0
   -0.7647    8.8964  -13.4194 C   0  0  0  0  0  0  0  0  0  0  0  0
   -0.6638   10.2629  -13.5252 C   0  0  0  0  0  0  0  0  0  0  0  0
   -1.7103   11.0678  -13.8928 C   0  0  0  0  0  0  0  0  0  0  0  0
   -2.9379   10.4917  -14.1740 C   0  0  0  0  0  0  0  0  0  0  0  0
    0.6359   10.8981  -13.2300 C   0  0  0  0  0  0  0  0  0  0  0  0
    1.0369   12.1205  -13.2395 N   0  0  0  0  0  0  0  0  0  0  0  0
    2.4180   12.2411  -12.8709 C   0  0  0  0  0  0  0  0  0  0  0  0
    2.8675   10.8408  -12.6101 C   0  0  0  0  0  0  0  0  0  0  0  0
    1.6950   10.0343  -12.8536 N   0  0  0  0  0  0  0  0  0  0  0  0
    1.5340    8.6118  -12.7587 C   0  0  0  0  0  0  0  0  0  0  0  0
    2.3760    7.6213  -12.4293 N   0  0  0  0  0  0  0  0  0  0  0  0
    1.7530    6.4574  -12.4867 N   0  0  0  0  0  0  0  0  0  0  0  0
    0.4933    6.7399  -12.8608 C   0  0  0  0  0  0  0  0  0  0  0  0
   -0.4000    5.8736  -13.0222 O   0  0  0  0  0  0  0  0  0  0  0  0
    0.3309    8.0787  -13.0368 N   0  0  0  0  0  0  0  0  0  0  0  0
    2.2929    5.1306  -12.2076 C   0  0  0  0  0  0  0  0  0  0  0  0
    3.6293    5.0148  -12.8372 C   0  0  0  0  0  0  0  0  0  0  0  0
    3.9758    3.9030  -13.3267 O   0  0  0  0  0  0  0  0  0  0  0  0
    4.5389    6.1019  -12.9145 N   0  0  0  0  0  0  0  0  0  0  0  0
    4.2369    7.0099  -12.5066 H   0  0  0  0  0  0  0  0  0  0  0  0
    5.8330    5.9403  -13.5382 C   0  0  0  0  0  0  0  0  0  0  0  0
    6.3197    7.2713  -14.1177 C   0  0  0  0  0  0  0  0  0  0  0  0
    6.8124    5.5902  -12.4263 C   0  0  0  0  0  0  0  0  0  0  0  0
  1  2  1  0  0  0
  2  3  2  0  0  0
  2  7  1  0  0  0
  3  4  1  0  0  0
  4  5  2  0  0  0
  4 18  1  0  0  0
  5  6  1  0  0  0
  5  8  1  0  0  0
  6  7  2  0  0  0
  8  9  2  0  0  0
  8 12  1  0  0  0
  9 10  1  0  0  0
 10 11  1  0  0  0
 11 12  1  0  0  0
 12 13  1  0  0  0
 13 14  2  0  0  0
 13 18  1  0  0  0
 14 15  1  0  0  0
 15 16  1  0  0  0
 15 19  1  0  0  0
 16 17  2  0  0  0
 16 18  1  0  0  0
 19 20  1  0  0  0
 20 21  2  0  0  0
 20 22  1  0  0  0
 22 24  1  0  0  0
 24 25  1  0  0  0
 24 26  1  0  0  0
 22 23  1  0  0  0
M  END
> <minimizedAffinity>
-8.17187

$$$$
1802


 27 30  0  0  0  0  0  0  0  0999 V2000
    2.8180    4.9496  -12.2261 Cl  0  0  0  0  0  0  0  0  0  0  0  0
    1.4986    6.0543  -12.6214 C   0  0  0  0  0  0  0  0  0  0  0  0
    1.7841    7.4192  -12.7097 C   0  0  0  0  0  0  0  0  0  0  0  0
    0.8024    8.3373  -13.0228 C   0  0  0  0  0  0  0  0  0  0  0  0
   -0.4662    7.8370  -13.2402 C   0  0  0  0  0  0  0  0  0  0  0  0
   -0.7858    6.5218  -13.1643 C   0  0  0  0  0  0  0  0  0  0  0  0
    0.2199    5.5963  -12.8461 C   0  0  0  0  0  0  0  0  0  0  0  0
   -1.5086    8.8387  -13.5801 C   0  0  0  0  0  0  0  0  0  0  0  0
   -2.7744    8.7065  -13.8376 N   0  0  0  0  0  0  0  0  0  0  0  0
   -3.3729    9.9919  -14.1147 C   0  0  0  0  0  0  0  0  0  0  0  0
   -2.2719   11.0180  -14.0101 C   0  0  0  0  0  0  0  0  0  0  0  0
   -1.1325   10.1895  -13.6508 N   0  0  0  0  0  0  0  0  0  0  0  0
    0.2038   10.6268  -13.4111 C   0  0  0  0  0  0  0  0  0  0  0  0
    0.7696   11.8516  -13.4357 N   0  0  0  0  0  0  0  0  0  0  0  0
    2.0650   11.7379  -13.1501 N   0  0  0  0  0  0  0  0  0  0  0  0
    2.2698   10.4371  -12.9560 C   0  0  0  0  0  0  0  0  0  0  0  0
    3.3820    9.9156  -12.6640 O   0  0  0  0  0  0  0  0  0  0  0  0
    1.1248    9.7157  -13.1104 N   0  0  0  0  0  0  0  0  0  0  0  0
    3.0429   12.8276  -13.0864 C   0  0  0  0  0  0  0  0  0  0  0  0
    2.5055   13.6989  -11.9090 C   0  0  0  0  0  0  0  0  0  0  0  0
    2.9947   13.2320  -10.8207 O   0  0  0  0  0  0  0  0  0  0  0  0
    1.6748   14.7249  -12.1383 N   0  0  0  0  0  0  0  0  0  0  0  0
    1.7111   15.0517  -10.8211 H   0  0  0  0  0  0  0  0  0  0  0  0
    0.8206   15.7796  -12.3738 C   0  0  0  0  0  0  0  0  0  0  0  0
   -0.3808   15.3804  -13.2390 C   0  0  0  0  0  0  0  0  0  0  0  0
   -1.0048   16.4825  -13.7730 O   0  0  0  0  0  0  0  0  0  0  0  0
   -1.8640   17.1344  -12.9366 C   0  0  0  0  0  0  0  0  0  0  0  0
  1  2  1  0  0  0
  2  3  2  0  0  0
  2  7  1  0  0  0
  3  4  1  0  0  0
  4  5  2  0  0  0
  4 18  1  0  0  0
  5  6  1  0  0  0
  5  8  1  0  0  0
  6  7  2  0  0  0
  8  9  2  0  0  0
  8 12  1  0  0  0
  9 10  1  0  0  0
 10 11  1  0  0  0
 11 12  1  0  0  0
 12 13  1  0  0  0
 13 14  2  0  0  0
 13 18  1  0  0  0
 14 15  1  0  0  0
 15 16  1  0  0  0
 15 19  1  0  0  0
 16 17  2  0  0  0
 16 18  1  0  0  0
 19 20  1  0  0  0
 20 21  2  0  0  0
 20 22  1  0  0  0
 22 24  1  0  0  0
 24 25  1  0  0  0
 25 26  1  0  0  0
 26 27  1  0  0  0
 22 23  1  0  0  0
M  END
> <minimizedAffinity>
-8.17827

$$$$
1804


 26 30  0  0  0  0  0  0  0  0999 V2000
   -4.4795    7.0601  -14.6722 Cl  0  0  0  0  0  0  0  0  0  0  0  0
   -3.2963    8.2935  -14.2954 C   0  0  0  0  0  0  0  0  0  0  0  0
   -1.9601    8.0108  -14.0654 C   0  0  0  0  0  0  0  0  0  0  0  0
   -1.0400    8.9895  -13.7708 C   0  0  0  0  0  0  0  0  0  0  0  0
   -1.5093   10.2794  -13.7133 C   0  0  0  0  0  0  0  0  0  0  0  0
   -2.8238   10.6176  -13.9326 C   0  0  0  0  0  0  0  0  0  0  0  0
   -3.7334    9.5998  -14.2296 C   0  0  0  0  0  0  0  0  0  0  0  0
   -0.5508   11.3563  -13.3986 C   0  0  0  0  0  0  0  0  0  0  0  0
   -0.7040   12.6248  -13.2814 N   0  0  0  0  0  0  0  0  0  0  0  0
    0.5294   13.2921  -12.9615 C   0  0  0  0  0  0  0  0  0  0  0  0
    1.5394   12.1916  -12.8906 C   0  0  0  0  0  0  0  0  0  0  0  0
    0.7959   10.9928  -13.1758 N   0  0  0  0  0  0  0  0  0  0  0  0
    1.2319    9.6197  -13.2500 C   0  0  0  0  0  0  0  0  0  0  0  0
    2.4373    9.0431  -13.0791 N   0  0  0  0  0  0  0  0  0  0  0  0
    2.3266    7.7371  -13.2529 N   0  0  0  0  0  0  0  0  0  0  0  0
    1.0311    7.5199  -13.5334 C   0  0  0  0  0  0  0  0  0  0  0  0
    0.5642    6.3672  -13.7589 O   0  0  0  0  0  0  0  0  0  0  0  0
    0.3255    8.6713  -13.5381 N   0  0  0  0  0  0  0  0  0  0  0  0
    3.3897    6.7254  -13.1604 C   0  0  0  0  0  0  0  0  0  0  0  0
    4.5665    7.2219  -13.9210 C   0  0  0  0  0  0  0  0  0  0  0  0
    4.3354    8.0434  -14.8437 O   0  0  0  0  0  0  0  0  0  0  0  0
    5.8889    6.7932  -13.6278 N   0  0  0  0  0  0  0  0  0  0  0  0
    7.0741    7.2403  -14.3345 C   0  0  0  0  0  0  0  0  0  0  0  0
    8.2129    6.3952  -13.8302 C   0  0  0  0  0  0  0  0  0  0  0  0
    7.4865    5.1855  -13.2792 C   0  0  0  0  0  0  0  0  0  0  0  0
    6.2906    5.8616  -12.6002 C   0  0  0  0  0  0  0  0  0  0  0  0
  1  2  1  0  0  0
  2  3  2  0  0  0
  2  7  1  0  0  0
  3  4  1  0  0  0
  4  5  2  0  0  0
  4 18  1  0  0  0
  5  6  1  0  0  0
  5  8  1  0  0  0
  6  7  2  0  0  0
  8  9  2  0  0  0
  8 12  1  0  0  0
  9 10  1  0  0  0
 10 11  1  0  0  0
 11 12  1  0  0  0
 12 13  1  0  0  0
 13 14  2  0  0  0
 13 18  1  0  0  0
 14 15  1  0  0  0
 15 16  1  0  0  0
 15 19  1  0  0  0
 16 17  2  0  0  0
 16 18  1  0  0  0
 19 20  1  0  0  0
 20 21  2  0  0  0
 20 22  1  0  0  0
 22 23  1  0  0  0
 22 26  1  0  0  0
 23 24  1  0  0  0
 24 25  1  0  0  0
 25 26  1  0  0  0
M  END
> <minimizedAffinity>
-8.85841

$$$$
1806


 32 35  0  0  0  0  0  0  0  0999 V2000
    1.1746   15.5511  -12.4810 N   0  0  0  0  0  0  0  0  0  0  0  0
    1.1650   15.1751  -11.0823 C   0  0  0  0  0  0  0  0  0  0  0  0
    2.1285   13.9877  -10.9245 C   0  0  0  0  0  0  0  0  0  0  0  0
    2.5960   13.5080  -12.1796 N   0  0  0  0  0  0  0  0  0  0  0  0
    3.3687   14.4822  -12.9486 C   0  0  0  0  0  0  0  0  0  0  0  0
    2.4634   15.6764  -13.1336 C   0  0  0  0  0  0  0  0  0  0  0  0
   -5.3374   21.2014  -10.2219 Cl  0  0  0  0  0  0  0  0  0  0  0  0
   -4.0724   20.0739  -10.7073 C   0  0  0  0  0  0  0  0  0  0  0  0
   -4.1300   19.3618  -11.8656 C   0  0  0  0  0  0  0  0  0  0  0  0
   -3.1148   18.4892  -12.2051 C   0  0  0  0  0  0  0  0  0  0  0  0
   -2.0302   18.3251  -11.3819 C   0  0  0  0  0  0  0  0  0  0  0  0
   -1.9745   19.0432  -10.2155 C   0  0  0  0  0  0  0  0  0  0  0  0
   -2.9896   19.9185   -9.8722 C   0  0  0  0  0  0  0  0  0  0  0  0
   -0.9496   17.4201  -11.7040 N   0  0  0  0  0  0  0  0  0  0  0  0
   -0.9659   16.6597  -12.8963 C   0  0  0  0  0  0  0  0  0  0  0  0
   -0.0046   15.8287  -13.2239 C   0  0  0  0  0  0  0  0  0  0  0  0
   -2.0996   16.8176  -13.7788 N   0  0  0  0  0  0  0  0  0  0  0  0
   -3.1433   17.7110  -13.4352 C   0  0  0  0  0  0  0  0  0  0  0  0
   -4.1561   17.8673  -14.1998 O   0  0  0  0  0  0  0  0  0  0  0  0
   -0.1560   17.3373  -11.0451 H   0  0  0  0  0  0  0  0  0  0  0  0
   -2.1454   16.2742  -14.6634 H   0  0  0  0  0  0  0  0  0  0  0  0
    2.4012   12.2406  -12.7829 C   0  0  0  0  0  0  0  0  0  0  0  0
    3.4830   11.3794  -12.8523 N   0  0  0  0  0  0  0  0  0  0  0  0
    3.4349   10.1691  -13.4054 C   0  0  0  0  0  0  0  0  0  0  0  0
    2.2476    9.7490  -13.9369 C   0  0  0  0  0  0  0  0  0  0  0  0
    1.1579   10.5717  -13.8860 C   0  0  0  0  0  0  0  0  0  0  0  0
    1.2018   11.8532  -13.3012 C   0  0  0  0  0  0  0  0  0  0  0  0
    0.0328   12.6765  -13.2374 C   0  0  0  0  0  0  0  0  0  0  0  0
   -0.6628   12.8601  -12.2410 O   0  0  0  0  0  0  0  0  0  0  0  0
   -0.3836   13.3533  -14.4169 N   0  0  0  0  0  0  0  0  0  0  0  0
    0.1885   14.1309  -14.8165 H   0  0  0  0  0  0  0  0  0  0  0  0
   -1.2580   13.1213  -14.9377 H   0  0  0  0  0  0  0  0  0  0  0  0
  7  8  1  0  0  0
  8  9  2  0  0  0
  8 13  1  0  0  0
  9 10  1  0  0  0
 10 11  2  0  0  0
 10 18  1  0  0  0
 11 12  1  0  0  0
 11 14  1  0  0  0
 12 13  2  0  0  0
 14 15  1  0  0  0
 15 16  2  0  0  0
 15 17  1  0  0  0
 16  1  1  0  0  0
  1  2  1  0  0  0
  1  6  1  0  0  0
  2  3  1  0  0  0
  3  4  1  0  0  0
  4  5  1  0  0  0
  4 22  1  0  0  0
  5  6  1  0  0  0
 22 23  2  0  0  0
 22 27  1  0  0  0
 23 24  1  0  0  0
 24 25  2  0  0  0
 25 26  1  0  0  0
 26 27  2  0  0  0
 27 28  1  0  0  0
 28 29  2  0  0  0
 28 30  1  0  0  0
 17 18  1  0  0  0
 18 19  2  0  0  0
 14 20  1  0  0  0
 30 31  1  0  0  0
 30 32  1  0  0  0
 17 21  1  0  0  0
M  END
> <minimizedAffinity>
-10.10685

$$$$
1808


 24 28  0  0  0  0  0  0  0  0999 V2000
    2.8611    7.3874  -12.6785 N   0  0  0  0  0  0  0  0  0  0  0  0
    1.6494    7.5404  -11.9560 C   0  0  0  0  0  0  0  0  0  0  0  0
    1.1999    6.6934  -11.1470 O   0  0  0  0  0  0  0  0  0  0  0  0
    1.0286    8.8429  -12.3177 C   0  0  0  0  0  0  0  0  0  0  0  0
    0.0193    8.7035  -13.4153 C   0  0  0  0  0  0  0  0  0  0  0  0
    0.1594    9.9568  -14.0516 O   0  0  0  0  0  0  0  0  0  0  0  0
    1.5304    9.8248  -14.3875 C   0  0  0  0  0  0  0  0  0  0  0  0
    2.1351    9.6101  -13.0429 C   0  0  0  0  0  0  0  0  0  0  0  0
    3.2849    8.6708  -13.1373 C   0  0  0  0  0  0  0  0  0  0  0  0
    4.4087    8.9731  -13.5470 O   0  0  0  0  0  0  0  0  0  0  0  0
    1.4810    8.5193  -15.0959 C   0  0  0  0  0  0  0  0  0  0  0  0
    0.5753    7.8025  -14.4371 C   0  0  0  0  0  0  0  0  0  0  0  0
    5.5889    2.0033  -13.5107 Br  0  0  0  0  0  0  0  0  0  0  0  0
    4.7310    3.6747  -13.2494 C   0  0  0  0  0  0  0  0  0  0  0  0
    3.4510    3.7082  -12.7514 C   0  0  0  0  0  0  0  0  0  0  0  0
    2.8529    4.9357  -12.5706 C   0  0  0  0  0  0  0  0  0  0  0  0
    3.4941    6.1165  -12.8736 C   0  0  0  0  0  0  0  0  0  0  0  0
    4.7877    6.0843  -13.3762 C   0  0  0  0  0  0  0  0  0  0  0  0
    5.3911    4.8380  -13.5570 C   0  0  0  0  0  0  0  0  0  0  0  0
   -1.3570    8.4321  -12.9820 C   0  0  0  0  0  0  0  0  0  0  0  0
   -2.0342    7.5604  -13.7900 O   0  0  0  0  0  0  0  0  0  0  0  0
   -3.0163    8.2487  -14.4572 C   0  0  0  0  0  0  0  0  0  0  0  0
   -2.9246    9.6668  -13.9983 C   0  0  0  0  0  0  0  0  0  0  0  0
   -2.1033    9.5921  -12.8789 O   0  0  0  0  0  0  0  0  0  0  0  0
 13 14  1  0  0  0
 14 15  2  0  0  0
 14 19  1  0  0  0
 15 16  1  0  0  0
 16 17  2  0  0  0
 17 18  1  0  0  0
 17  1  1  0  0  0
 18 19  2  0  0  0
  1  2  1  0  0  0
  1  9  1  0  0  0
  2  3  2  0  0  0
  2  4  1  0  0  0
  4  5  1  0  0  0
  4  8  1  0  0  0
  5  6  1  0  0  0
  5 12  1  0  0  0
  5 20  1  0  0  0
  6  7  1  0  0  0
  7  8  1  0  0  0
  7 11  1  0  0  0
  8  9  1  0  0  0
  9 10  2  0  0  0
 11 12  2  0  0  0
 20 21  1  0  0  0
 20 24  1  0  0  0
 21 22  1  0  0  0
 22 23  1  0  0  0
 23 24  1  0  0  0
M  END
> <minimizedAffinity>
-7.73134

$$$$
1810


 32 35  0  0  0  0  0  0  0  0999 V2000
    1.0322    9.4893  -12.9992 N   0  0  0  0  0  0  0  0  0  0  0  0
    1.1905    9.9342  -14.3609 C   0  0  0  0  0  0  0  0  0  0  0  0
    1.7241   11.3471  -14.3251 C   0  0  0  0  0  0  0  0  0  0  0  0
    2.1549   11.6618  -12.9873 N   0  0  0  0  0  0  0  0  0  0  0  0
    2.8885   10.6995  -12.1733 C   0  0  0  0  0  0  0  0  0  0  0  0
    2.3557    9.2906  -12.4440 C   0  0  0  0  0  0  0  0  0  0  0  0
    1.8587   12.9211  -12.4354 C   0  0  0  0  0  0  0  0  0  0  0  0
    2.2842   13.1986  -11.2607 O   0  0  0  0  0  0  0  0  0  0  0  0
    1.0598   13.9151  -13.2026 C   0  0  0  0  0  0  0  0  0  0  0  0
   -0.0080   14.5676  -12.3727 C   0  0  0  0  0  0  0  0  0  0  0  0
    0.4996   15.9001  -12.0611 N   0  0  0  0  0  0  0  0  0  0  0  0
    1.8075   16.0469  -12.5820 C   0  0  0  0  0  0  0  0  0  0  0  0
    2.6540   16.8703  -12.1589 O   0  0  0  0  0  0  0  0  0  0  0  0
    1.9166   15.0570  -13.6750 C   0  0  0  0  0  0  0  0  0  0  0  0
   -0.2325   16.9055  -11.3253 C   0  0  0  0  0  0  0  0  0  0  0  0
   -1.4149   17.3878  -12.0776 C   0  0  0  0  0  0  0  0  0  0  0  0
   -2.2191   18.3690  -11.5169 C   0  0  0  0  0  0  0  0  0  0  0  0
   -3.3399   18.8676  -12.1590 C   0  0  0  0  0  0  0  0  0  0  0  0
   -3.6394   18.3460  -13.4010 C   0  0  0  0  0  0  0  0  0  0  0  0
   -2.8584   17.3666  -13.9897 C   0  0  0  0  0  0  0  0  0  0  0  0
   -1.7352   16.8833  -13.3199 C   0  0  0  0  0  0  0  0  0  0  0  0
   -1.7881   18.9866   -9.9455 Cl  0  0  0  0  0  0  0  0  0  0  0  0
    0.0737    8.0649  -12.9132 S   0  0  0  0  0  0  0  0  0  0  0  0
   -0.0007    7.5307  -11.5111 O   0  0  0  0  0  0  0  0  0  0  0  0
    0.7946    7.0063  -13.7206 O   0  0  0  0  0  0  0  0  0  0  0  0
   -1.5049    8.3115  -13.5958 C   0  0  0  0  0  0  0  0  0  0  0  0
   -2.2869    9.4421  -13.6722 C   0  0  0  0  0  0  0  0  0  0  0  0
   -3.4515    9.0968  -14.3019 N   0  0  0  0  0  0  0  0  0  0  0  0
   -3.3840    7.8514  -14.5875 O   0  0  0  0  0  0  0  0  0  0  0  0
   -2.2521    7.3165  -14.1966 C   0  0  0  0  0  0  0  0  0  0  0  0
   -1.9081    5.8922  -14.4000 C   0  0  0  0  0  0  0  0  0  0  0  0
   -1.9083   10.7751  -13.1659 C   0  0  0  0  0  0  0  0  0  0  0  0
 23 24  2  0  0  0
 23 25  2  0  0  0
 23  1  1  0  0  0
 23 26  1  0  0  0
  1  2  1  0  0  0
  1  6  1  0  0  0
  2  3  1  0  0  0
  3  4  1  0  0  0
  4  5  1  0  0  0
  4  7  1  0  0  0
  5  6  1  0  0  0
  7  8  2  0  0  0
  7  9  1  0  0  0
  9 10  1  0  0  0
  9 14  1  0  0  0
 10 11  1  0  0  0
 11 12  1  0  0  0
 11 15  1  0  0  0
 12 13  2  0  0  0
 12 14  1  0  0  0
 15 16  1  0  0  0
 16 17  2  0  0  0
 16 21  1  0  0  0
 17 18  1  0  0  0
 17 22  1  0  0  0
 18 19  2  0  0  0
 19 20  1  0  0  0
 20 21  2  0  0  0
 26 27  1  0  0  0
 26 30  2  0  0  0
 27 28  2  0  0  0
 27 32  1  0  0  0
 28 29  1  0  0  0
 29 30  1  0  0  0
 30 31  1  0  0  0
M  END
> <minimizedAffinity>
-7.76254

$$$$
1816


 36 39  0  0  0  0  0  0  0  0999 V2000
   -2.7700    9.5364  -13.9787 C   0  0  0  0  0  0  0  0  0  0  0  0
   -2.4142    8.8811  -15.0181 O   0  0  0  0  0  0  0  0  0  0  0  0
   -4.0864    9.4237  -13.5679 N   0  0  0  0  0  0  0  0  0  0  0  0
   -5.0550    8.6190  -14.2450 C   0  0  0  0  0  0  0  0  0  0  0  0
   -6.1927    9.5361  -14.6987 C   0  0  0  0  0  0  0  0  0  0  0  0
   -6.7089   10.2423  -13.5754 N   0  0  0  0  0  0  0  0  0  0  0  0
   -6.0535    9.9855  -12.2751 C   0  0  0  0  0  0  0  0  0  0  0  0
   -4.5538   10.1355  -12.4006 C   0  0  0  0  0  0  0  0  0  0  0  0
   -7.7784   11.1621  -13.6022 C   0  0  0  0  0  0  0  0  0  0  0  0
   -8.0659   11.6717  -12.4089 O   0  0  0  0  0  0  0  0  0  0  0  0
   -8.6016   11.6410  -14.6713 C   0  0  0  0  0  0  0  0  0  0  0  0
   -9.3105   12.8586  -14.5110 C   0  0  0  0  0  0  0  0  0  0  0  0
  -10.1123   13.3479  -15.5073 C   0  0  0  0  0  0  0  0  0  0  0  0
  -10.7311   14.4316  -15.3392 O   0  0  0  0  0  0  0  0  0  0  0  0
  -10.2770   12.7180  -16.6779 N   0  0  0  0  0  0  0  0  0  0  0  0
   -9.6107   11.5727  -16.8291 C   0  0  0  0  0  0  0  0  0  0  0  0
   -9.7339   10.9341  -17.9252 O   0  0  0  0  0  0  0  0  0  0  0  0
   -8.7951   11.0526  -15.8464 N   0  0  0  0  0  0  0  0  0  0  0  0
  -11.1295   13.2493  -17.7162 C   0  0  0  0  0  0  0  0  0  0  0  0
   -8.3175   10.1565  -16.0655 H   0  0  0  0  0  0  0  0  0  0  0  0
   -1.7313   10.3634  -13.3045 C   0  0  0  0  0  0  0  0  0  0  0  0
    3.2600    4.5527  -12.3946 Cl  0  0  0  0  0  0  0  0  0  0  0  0
    2.8309    6.1736  -12.8916 C   0  0  0  0  0  0  0  0  0  0  0  0
    1.5400    6.6733  -12.7502 C   0  0  0  0  0  0  0  0  0  0  0  0
    1.2052    7.9465  -13.1434 C   0  0  0  0  0  0  0  0  0  0  0  0
    2.1825    8.7446  -13.6912 C   0  0  0  0  0  0  0  0  0  0  0  0
    3.4814    8.2380  -13.8311 C   0  0  0  0  0  0  0  0  0  0  0  0
    3.8166    6.9625  -13.4385 C   0  0  0  0  0  0  0  0  0  0  0  0
    1.8774    9.9621  -14.0699 O   0  0  0  0  0  0  0  0  0  0  0  0
    0.6713   10.4617  -13.9521 C   0  0  0  0  0  0  0  0  0  0  0  0
    0.4132   11.6525  -14.3325 O   0  0  0  0  0  0  0  0  0  0  0  0
   -0.3923    9.7409  -13.4116 C   0  0  0  0  0  0  0  0  0  0  0  0
   -0.0881    8.4607  -13.0075 C   0  0  0  0  0  0  0  0  0  0  0  0
   -1.1173    7.6076  -12.4216 C   0  0  0  0  0  0  0  0  0  0  0  0
    5.1238    6.4621  -13.5837 O   0  0  0  0  0  0  0  0  0  0  0  0
    6.2095    7.2977  -13.9004 C   0  0  0  0  0  0  0  0  0  0  0  0
 22 23  1  0  0  0
 23 24  2  0  0  0
 23 28  1  0  0  0
 24 25  1  0  0  0
 25 26  2  0  0  0
 25 33  1  0  0  0
 26 27  1  0  0  0
 26 29  1  0  0  0
 27 28  2  0  0  0
 28 35  1  0  0  0
 35 36  1  0  0  0
 29 30  1  0  0  0
 30 31  2  0  0  0
 30 32  1  0  0  0
 32 33  2  0  0  0
 32 21  1  0  0  0
 33 34  1  0  0  0
 21  1  1  0  0  0
  1  2  2  0  0  0
  1  3  1  0  0  0
  3  4  1  0  0  0
  3  8  1  0  0  0
  4  5  1  0  0  0
  5  6  1  0  0  0
  6  7  1  0  0  0
  6  9  1  0  0  0
  7  8  1  0  0  0
  9 10  2  0  0  0
  9 11  1  0  0  0
 11 12  2  0  0  0
 11 18  1  0  0  0
 12 13  1  0  0  0
 13 14  2  0  0  0
 13 15  1  0  0  0
 15 16  1  0  0  0
 15 19  1  0  0  0
 16 17  2  0  0  0
 16 18  1  0  0  0
 18 20  1  0  0  0
M  END
> <minimizedAffinity>
-8.02689

$$$$
1822


 24 27  0  0  0  0  0  0  0  0999 V2000
   -2.0255   18.6059  -11.2617 Cl  0  0  0  0  0  0  0  0  0  0  0  0
   -3.4952   19.5363  -10.9896 C   0  0  0  0  0  0  0  0  0  0  0  0
   -4.5192   19.4247  -11.9032 C   0  0  0  0  0  0  0  0  0  0  0  0
   -5.6353   20.1381  -11.6859 N   0  0  0  0  0  0  0  0  0  0  0  0
   -5.7873   20.9540  -10.6101 C   0  0  0  0  0  0  0  0  0  0  0  0
   -4.7950   21.0700   -9.7117 N   0  0  0  0  0  0  0  0  0  0  0  0
   -5.1768   21.9173   -8.7607 N   0  0  0  0  0  0  0  0  0  0  0  0
   -6.4208   22.3705   -9.0151 C   0  0  0  0  0  0  0  0  0  0  0  0
   -6.7750   21.7546  -10.1710 N   0  0  0  0  0  0  0  0  0  0  0  0
   -3.6530   20.3643   -9.9003 C   0  0  0  0  0  0  0  0  0  0  0  0
   -2.7125   20.4723   -9.0510 O   0  0  0  0  0  0  0  0  0  0  0  0
   -4.3672   18.5272  -13.0980 C   0  0  0  0  0  0  0  0  0  0  0  0
   -6.4177   20.0581  -12.3778 H   0  0  0  0  0  0  0  0  0  0  0  0
   -7.1916   23.2902   -8.2465 N   0  0  0  0  0  0  0  0  0  0  0  0
   -6.8843   23.7429   -6.9352 C   0  0  0  0  0  0  0  0  0  0  0  0
   -5.7749   23.7170   -6.3421 O   0  0  0  0  0  0  0  0  0  0  0  0
   -8.1300   24.2940   -6.3010 C   0  0  0  0  0  0  0  0  0  0  0  0
   -9.1164   24.4264   -7.4057 C   0  0  0  0  0  0  0  0  0  0  0  0
   -9.5337   25.8548   -7.7076 C   0  0  0  0  0  0  0  0  0  0  0  0
   -8.2691   26.6484   -7.8332 C   0  0  0  0  0  0  0  0  0  0  0  0
   -7.4262   26.5298   -6.8233 C   0  0  0  0  0  0  0  0  0  0  0  0
   -7.8127   25.6455   -5.6980 C   0  0  0  0  0  0  0  0  0  0  0  0
   -8.4013   23.9419   -8.6014 C   0  0  0  0  0  0  0  0  0  0  0  0
   -8.8026   24.0806   -9.8026 O   0  0  0  0  0  0  0  0  0  0  0  0
  1  2  1  0  0  0
  2  3  2  0  0  0
  2 10  1  0  0  0
  3  4  1  0  0  0
  3 12  1  0  0  0
  4  5  1  0  0  0
  5  6  1  0  0  0
  5  9  2  0  0  0
  6  7  1  0  0  0
  6 10  1  0  0  0
  7  8  2  0  0  0
  8  9  1  0  0  0
  8 14  1  0  0  0
 14 15  1  0  0  0
 14 23  1  0  0  0
 15 16  2  0  0  0
 15 17  1  0  0  0
 17 18  1  0  0  0
 17 22  1  0  0  0
 18 19  1  0  0  0
 18 23  1  0  0  0
 19 20  1  0  0  0
 20 21  2  0  0  0
 21 22  1  0  0  0
 23 24  2  0  0  0
 10 11  2  0  0  0
  4 13  1  0  0  0
M  END
> <minimizedAffinity>
-8.16498

$$$$
1825


 29 32  0  0  0  0  0  0  0  0999 V2000
    0.9754   13.6781  -12.7636 N   0  0  0  0  0  0  0  0  0  0  0  0
    1.9531   12.7291  -12.8673 C   0  0  0  0  0  0  0  0  0  0  0  0
    1.3884   11.5460  -13.1606 N   0  0  0  0  0  0  0  0  0  0  0  0
    0.0593   11.6754  -13.2589 C   0  0  0  0  0  0  0  0  0  0  0  0
   -0.1696   13.0354  -13.0027 C   0  0  0  0  0  0  0  0  0  0  0  0
    2.4424   10.5365  -13.2594 C   0  0  0  0  0  0  0  0  0  0  0  0
    3.6549   11.1627  -12.5970 C   0  0  0  0  0  0  0  0  0  0  0  0
    3.4309   12.6227  -12.7700 C   0  0  0  0  0  0  0  0  0  0  0  0
   -1.0000   10.7216  -13.5452 C   0  0  0  0  0  0  0  0  0  0  0  0
   -2.2359   11.1009  -13.9911 C   0  0  0  0  0  0  0  0  0  0  0  0
   -3.2462   10.2042  -14.2862 C   0  0  0  0  0  0  0  0  0  0  0  0
   -3.0485    8.8400  -14.1376 C   0  0  0  0  0  0  0  0  0  0  0  0
   -1.8071    8.4569  -13.6905 C   0  0  0  0  0  0  0  0  0  0  0  0
   -0.7979    9.3524  -13.3956 C   0  0  0  0  0  0  0  0  0  0  0  0
   -4.0368    7.9129  -14.4225 O   0  0  0  0  0  0  0  0  0  0  0  0
   -4.4304    7.5923  -15.7441 C   0  0  0  0  0  0  0  0  0  0  0  0
    1.2091   15.0911  -12.4319 C   0  0  0  0  0  0  0  0  0  0  0  0
   -0.7713   16.6280  -12.0638 N   0  0  0  0  0  0  0  0  0  0  0  0
    0.0278   15.8984  -12.9293 C   0  0  0  0  0  0  0  0  0  0  0  0
   -0.1608   15.8483  -14.1495 O   0  0  0  0  0  0  0  0  0  0  0  0
   -0.5048   16.5955  -11.0329 H   0  0  0  0  0  0  0  0  0  0  0  0
   -3.9423   20.4616  -10.7202 Cl  0  0  0  0  0  0  0  0  0  0  0  0
   -3.4102   19.1995  -11.8108 C   0  0  0  0  0  0  0  0  0  0  0  0
   -2.3174   18.4114  -11.5297 C   0  0  0  0  0  0  0  0  0  0  0  0
   -1.8952   17.3995  -12.4192 C   0  0  0  0  0  0  0  0  0  0  0  0
   -2.6341   17.2568  -13.5571 C   0  0  0  0  0  0  0  0  0  0  0  0
   -3.7541   18.0612  -13.8484 C   0  0  0  0  0  0  0  0  0  0  0  0
   -4.1392   19.0374  -12.9658 C   0  0  0  0  0  0  0  0  0  0  0  0
   -1.5791   18.6313  -10.2738 C   0  0  0  0  0  0  0  0  0  0  0  0
 22 23  1  0  0  0
 23 24  2  0  0  0
 23 28  1  0  0  0
 24 25  1  0  0  0
 24 29  1  0  0  0
 25 26  2  0  0  0
 25 18  1  0  0  0
 26 27  1  0  0  0
 27 28  2  0  0  0
 18 19  1  0  0  0
 19 20  2  0  0  0
 19 17  1  0  0  0
 17  1  1  0  0  0
  1  2  1  0  0  0
  1  5  1  0  0  0
  2  3  2  0  0  0
  2  8  1  0  0  0
  3  4  1  0  0  0
  3  6  1  0  0  0
  4  5  2  0  0  0
  4  9  1  0  0  0
  9 10  2  0  0  0
  9 14  1  0  0  0
 10 11  1  0  0  0
 11 12  2  0  0  0
 12 13  1  0  0  0
 12 15  1  0  0  0
 13 14  2  0  0  0
 15 16  1  0  0  0
  6  7  1  0  0  0
  7  8  1  0  0  0
 18 21  1  0  0  0
M  END
> <minimizedAffinity>
-11.20251

$$$$
1835


 36 39  0  0  0  0  0  0  0  0999 V2000
    1.9941    8.6144  -14.3230 C   0  0  0  0  0  0  0  0  0  0  0  0
    1.2889    7.7022  -13.6359 N   0  0  0  0  0  0  0  0  0  0  0  0
    2.1783    6.7871  -13.2132 C   0  0  0  0  0  0  0  0  0  0  0  0
    2.0571    5.6511  -12.4844 N   0  0  0  0  0  0  0  0  0  0  0  0
    3.1225    4.8836  -12.1826 C   0  0  0  0  0  0  0  0  0  0  0  0
    4.3543    5.2378  -12.6083 N   0  0  0  0  0  0  0  0  0  0  0  0
    4.5558    6.3516  -13.3372 C   0  0  0  0  0  0  0  0  0  0  0  0
    3.4480    7.1218  -13.6331 C   0  0  0  0  0  0  0  0  0  0  0  0
    3.3046    8.2738  -14.3290 N   0  0  0  0  0  0  0  0  0  0  0  0
    5.8573    6.6954  -13.7688 N   0  0  0  0  0  0  0  0  0  0  0  0
    6.6205    6.8944  -13.0992 H   0  0  0  0  0  0  0  0  0  0  0  0
    6.0523    6.7510  -14.7842 H   0  0  0  0  0  0  0  0  0  0  0  0
   -0.1165    7.6346  -13.3595 C   0  0  0  0  0  0  0  0  0  0  0  0
   -0.7797    8.8230  -13.6543 O   0  0  0  0  0  0  0  0  0  0  0  0
   -2.1108    8.4082  -13.6291 C   0  0  0  0  0  0  0  0  0  0  0  0
   -2.0716    7.2548  -14.6204 C   0  0  0  0  0  0  0  0  0  0  0  0
   -0.7909    6.5640  -14.1992 C   0  0  0  0  0  0  0  0  0  0  0  0
   -1.1572    5.4628  -13.4221 O   0  0  0  0  0  0  0  0  0  0  0  0
   -3.1758    6.4242  -14.4905 O   0  0  0  0  0  0  0  0  0  0  0  0
   -1.0804    5.6454  -12.4642 H   0  0  0  0  0  0  0  0  0  0  0  0
   -3.6538    6.6934  -13.6604 H   0  0  0  0  0  0  0  0  0  0  0  0
   -3.0639    9.4883  -14.0641 C   0  0  0  0  0  0  0  0  0  0  0  0
   -3.9088    9.0893  -15.0701 O   0  0  0  0  0  0  0  0  0  0  0  0
   -3.5711    8.2986  -15.5445 H   0  0  0  0  0  0  0  0  0  0  0  0
    1.4583    9.7686  -14.9540 N   0  0  0  0  0  0  0  0  0  0  0  0
    0.8605    9.6907  -15.8109 H   0  0  0  0  0  0  0  0  0  0  0  0
    1.4408   11.3140  -13.2452 C   0  0  0  0  0  0  0  0  0  0  0  0
    1.6971   11.0588  -14.4754 N   0  0  0  0  0  0  0  0  0  0  0  0
    4.2219   11.8865  -12.3445 Cl  0  0  0  0  0  0  0  0  0  0  0  0
    2.9029   13.0255  -12.2052 C   0  0  0  0  0  0  0  0  0  0  0  0
    1.6604   12.6397  -12.6598 C   0  0  0  0  0  0  0  0  0  0  0  0
    0.6237   13.5407  -12.5475 C   0  0  0  0  0  0  0  0  0  0  0  0
    0.8111   14.8011  -11.9972 C   0  0  0  0  0  0  0  0  0  0  0  0
    2.0516   15.1953  -11.5392 C   0  0  0  0  0  0  0  0  0  0  0  0
    3.0883   14.2942  -11.6515 C   0  0  0  0  0  0  0  0  0  0  0  0
   -0.9652   13.0535  -13.1266 Cl  0  0  0  0  0  0  0  0  0  0  0  0
 29 30  1  0  0  0
 30 31  2  0  0  0
 30 35  1  0  0  0
 31 32  1  0  0  0
 31 27  1  0  0  0
 32 33  2  0  0  0
 32 36  1  0  0  0
 33 34  1  0  0  0
 34 35  2  0  0  0
 27 28  2  0  0  0
 28 25  1  0  0  0
 25  1  1  0  0  0
  1  2  1  0  0  0
  1  9  2  0  0  0
  2  3  1  0  0  0
  2 13  1  0  0  0
  3  4  2  0  0  0
  3  8  1  0  0  0
  4  5  1  0  0  0
  5  6  2  0  0  0
  6  7  1  0  0  0
  7  8  2  0  0  0
  7 10  1  0  0  0
  8  9  1  0  0  0
 13 14  1  0  0  0
 13 17  1  0  0  0
 14 15  1  0  0  0
 15 16  1  0  0  0
 15 22  1  0  0  0
 16 17  1  0  0  0
 16 19  1  0  0  0
 17 18  1  0  0  0
 22 23  1  0  0  0
 25 26  1  0  0  0
 10 11  1  0  0  0
 10 12  1  0  0  0
 18 20  1  0  0  0
 19 21  1  0  0  0
 23 24  1  0  0  0
M  END
> <minimizedAffinity>
-8.37120

$$$$
1837


 29 32  0  0  0  0  0  0  0  0999 V2000
    1.6790    8.0388  -13.7150 N   0  0  0  0  0  0  0  0  0  0  0  0
    3.0562    7.5581  -13.4777 C   0  0  0  0  0  0  0  0  0  0  0  0
    3.7799    8.8480  -13.0389 C   0  0  0  0  0  0  0  0  0  0  0  0
    3.1431    9.8815  -13.8693 N   0  0  0  0  0  0  0  0  0  0  0  0
    2.8573    9.4849  -15.2119 C   0  0  0  0  0  0  0  0  0  0  0  0
    1.6770    8.5040  -15.1225 C   0  0  0  0  0  0  0  0  0  0  0  0
    2.8595   11.1283  -13.2937 C   0  0  0  0  0  0  0  0  0  0  0  0
    3.8173   11.7924  -12.5769 N   0  0  0  0  0  0  0  0  0  0  0  0
    3.6207   12.9723  -11.9899 C   0  0  0  0  0  0  0  0  0  0  0  0
    2.4264   13.5659  -12.0897 N   0  0  0  0  0  0  0  0  0  0  0  0
    1.4170   13.0205  -12.7604 C   0  0  0  0  0  0  0  0  0  0  0  0
    0.1450   13.3915  -13.0083 N   0  0  0  0  0  0  0  0  0  0  0  0
   -0.3873   12.4388  -13.7311 N   0  0  0  0  0  0  0  0  0  0  0  0
    0.4931   11.4751  -13.9535 N   0  0  0  0  0  0  0  0  0  0  0  0
    1.6370   11.7817  -13.3709 C   0  0  0  0  0  0  0  0  0  0  0  0
   -0.5464   14.5932  -12.5818 C   0  0  0  0  0  0  0  0  0  0  0  0
   -0.3524   15.7213  -13.5713 C   0  0  0  0  0  0  0  0  0  0  0  0
    0.7280    6.9499  -13.5840 C   0  0  0  0  0  0  0  0  0  0  0  0
   -1.5732    7.6715  -14.3943 N   0  0  0  0  0  0  0  0  0  0  0  0
   -0.6245    7.5893  -13.3709 C   0  0  0  0  0  0  0  0  0  0  0  0
   -0.8864    8.0586  -12.2343 O   0  0  0  0  0  0  0  0  0  0  0  0
   -1.2714    7.2910  -15.3455 H   0  0  0  0  0  0  0  0  0  0  0  0
   -7.0212   10.1462  -14.1687 Cl  0  0  0  0  0  0  0  0  0  0  0  0
   -5.4271    9.4246  -14.2300 C   0  0  0  0  0  0  0  0  0  0  0  0
   -4.2883   10.1595  -13.9332 C   0  0  0  0  0  0  0  0  0  0  0  0
   -3.0520    9.5701  -13.9897 C   0  0  0  0  0  0  0  0  0  0  0  0
   -2.8701    8.2243  -14.3420 C   0  0  0  0  0  0  0  0  0  0  0  0
   -4.0061    7.5216  -14.6313 C   0  0  0  0  0  0  0  0  0  0  0  0
   -5.2657    8.1057  -14.5774 C   0  0  0  0  0  0  0  0  0  0  0  0
 23 24  1  0  0  0
 24 25  2  0  0  0
 24 29  1  0  0  0
 25 26  1  0  0  0
 26 27  2  0  0  0
 27 28  1  0  0  0
 27 19  1  0  0  0
 28 29  2  0  0  0
 19 20  1  0  0  0
 20 21  2  0  0  0
 20 18  1  0  0  0
 18  1  1  0  0  0
  1  2  1  0  0  0
  1  6  1  0  0  0
  2  3  1  0  0  0
  3  4  1  0  0  0
  4  5  1  0  0  0
  4  7  1  0  0  0
  5  6  1  0  0  0
  7  8  2  0  0  0
  7 15  1  0  0  0
  8  9  1  0  0  0
  9 10  2  0  0  0
 10 11  1  0  0  0
 11 12  1  0  0  0
 11 15  2  0  0  0
 12 13  1  0  0  0
 12 16  1  0  0  0
 13 14  2  0  0  0
 14 15  1  0  0  0
 16 17  1  0  0  0
 19 22  1  0  0  0
M  END
> <minimizedAffinity>
-8.12462

$$$$
1846


 31 34  0  0  0  0  0  0  0  0999 V2000
    0.6396   14.4670  -12.7118 N   0  0  0  0  0  0  0  0  0  0  0  0
   -0.5424   13.9270  -13.0820 C   0  0  0  0  0  0  0  0  0  0  0  0
   -0.6488   12.6000  -13.3038 N   0  0  0  0  0  0  0  0  0  0  0  0
    0.3820   11.7568  -13.1736 C   0  0  0  0  0  0  0  0  0  0  0  0
    0.2863   10.4349  -13.3917 N   0  0  0  0  0  0  0  0  0  0  0  0
    1.3049    9.5671  -13.2686 C   0  0  0  0  0  0  0  0  0  0  0  0
    2.5043   10.0911  -12.8960 N   0  0  0  0  0  0  0  0  0  0  0  0
    2.6441   11.4066  -12.6678 C   0  0  0  0  0  0  0  0  0  0  0  0
    1.5916   12.2883  -12.7972 C   0  0  0  0  0  0  0  0  0  0  0  0
    1.7150   13.6433  -12.5675 C   0  0  0  0  0  0  0  0  0  0  0  0
    2.8462   14.0688  -12.2262 O   0  0  0  0  0  0  0  0  0  0  0  0
    1.1628    8.1799  -13.5089 N   0  0  0  0  0  0  0  0  0  0  0  0
    2.0900    7.2723  -12.8743 C   0  0  0  0  0  0  0  0  0  0  0  0
    1.3270    6.0320  -12.4129 C   0  0  0  0  0  0  0  0  0  0  0  0
    0.5193    5.5169  -13.4244 O   0  0  0  0  0  0  0  0  0  0  0  0
   -0.5031    6.4438  -13.6288 C   0  0  0  0  0  0  0  0  0  0  0  0
    0.1345    7.6261  -14.3591 C   0  0  0  0  0  0  0  0  0  0  0  0
    0.8370   15.8592  -12.4587 C   0  0  0  0  0  0  0  0  0  0  0  0
   -0.9980   17.3482  -11.5471 N   0  0  0  0  0  0  0  0  0  0  0  0
   -0.4250   16.6586  -12.6275 C   0  0  0  0  0  0  0  0  0  0  0  0
   -0.9162   16.6675  -13.7670 O   0  0  0  0  0  0  0  0  0  0  0  0
   -0.5096   17.2893  -10.5910 H   0  0  0  0  0  0  0  0  0  0  0  0
   -3.7876   21.0407   -9.3775 Cl  0  0  0  0  0  0  0  0  0  0  0  0
   -3.5653   19.8767  -10.6670 C   0  0  0  0  0  0  0  0  0  0  0  0
   -4.4956   19.7695  -11.6725 C   0  0  0  0  0  0  0  0  0  0  0  0
   -4.2461   18.8315  -12.6435 C   0  0  0  0  0  0  0  0  0  0  0  0
   -3.1165   18.0104  -12.6452 C   0  0  0  0  0  0  0  0  0  0  0  0
   -2.1826   18.1098  -11.6465 C   0  0  0  0  0  0  0  0  0  0  0  0
   -2.4518   19.0749  -10.6581 C   0  0  0  0  0  0  0  0  0  0  0  0
   -5.6415   20.5761  -11.7044 O   0  0  0  0  0  0  0  0  0  0  0  0
   -6.1550   21.1137  -10.5074 C   0  0  0  0  0  0  0  0  0  0  0  0
 23 24  1  0  0  0
 24 25  2  0  0  0
 24 29  1  0  0  0
 25 26  1  0  0  0
 25 30  1  0  0  0
 26 27  2  0  0  0
 27 28  1  0  0  0
 28 29  2  0  0  0
 28 19  1  0  0  0
 19 20  1  0  0  0
 20 21  2  0  0  0
 20 18  1  0  0  0
 18  1  1  0  0  0
  1  2  1  0  0  0
  1 10  1  0  0  0
  2  3  2  0  0  0
  3  4  1  0  0  0
  4  5  2  0  0  0
  4  9  1  0  0  0
  5  6  1  0  0  0
  6  7  2  0  0  0
  6 12  1  0  0  0
  7  8  1  0  0  0
  8  9  2  0  0  0
  9 10  1  0  0  0
 10 11  2  0  0  0
 12 13  1  0  0  0
 12 17  1  0  0  0
 13 14  1  0  0  0
 14 15  1  0  0  0
 15 16  1  0  0  0
 16 17  1  0  0  0
 30 31  1  0  0  0
 19 22  1  0  0  0
M  END
> <minimizedAffinity>
-10.08797

$$$$
1850


 24 27  0  0  0  0  0  0  0  0999 V2000
    0.1299    5.6455  -12.4204 Cl  0  0  0  0  0  0  0  0  0  0  0  0
   -0.2937    7.2954  -12.8557 C   0  0  0  0  0  0  0  0  0  0  0  0
   -1.4341    7.5552  -13.5892 C   0  0  0  0  0  0  0  0  0  0  0  0
   -1.7643    8.8371  -13.9280 C   0  0  0  0  0  0  0  0  0  0  0  0
   -0.9332    9.8561  -13.5211 C   0  0  0  0  0  0  0  0  0  0  0  0
    0.2098    9.6191  -12.7892 C   0  0  0  0  0  0  0  0  0  0  0  0
    0.5340    8.3206  -12.4517 C   0  0  0  0  0  0  0  0  0  0  0  0
   -2.9702    9.1962  -14.7118 C   0  0  0  0  0  0  0  0  0  0  0  0
   -3.7634    7.9988  -14.8460 N   0  0  0  0  0  0  0  0  0  0  0  0
   -3.0617    6.7926  -15.2175 C   0  0  0  0  0  0  0  0  0  0  0  0
   -2.2612    6.3765  -13.9777 C   0  0  0  0  0  0  0  0  0  0  0  0
   -5.1610    7.9775  -14.6291 C   0  0  0  0  0  0  0  0  0  0  0  0
   -5.7950    6.8979  -14.7625 O   0  0  0  0  0  0  0  0  0  0  0  0
   -5.9437    9.1761  -14.2464 C   0  0  0  0  0  0  0  0  0  0  0  0
   -6.9162    9.4954  -15.1926 O   0  0  0  0  0  0  0  0  0  0  0  0
   -7.7769   10.5803  -15.0899 C   0  0  0  0  0  0  0  0  0  0  0  0
   -8.5852   10.8787  -16.1251 N   0  0  0  0  0  0  0  0  0  0  0  0
   -9.4317   11.9045  -16.0892 N   0  0  0  0  0  0  0  0  0  0  0  0
   -9.5381   12.7082  -15.0229 C   0  0  0  0  0  0  0  0  0  0  0  0
  -10.4676   13.6514  -15.2713 N   0  0  0  0  0  0  0  0  0  0  0  0
  -10.9233   13.4242  -16.4792 N   0  0  0  0  0  0  0  0  0  0  0  0
  -10.3051   12.3552  -17.0080 C   0  0  0  0  0  0  0  0  0  0  0  0
   -8.7186   12.4303  -13.9345 C   0  0  0  0  0  0  0  0  0  0  0  0
   -7.8440   11.3713  -13.9700 C   0  0  0  0  0  0  0  0  0  0  0  0
  1  2  1  0  0  0
  2  3  2  0  0  0
  2  7  1  0  0  0
  3  4  1  0  0  0
  3 11  1  0  0  0
  4  5  2  0  0  0
  4  8  1  0  0  0
  5  6  1  0  0  0
  6  7  2  0  0  0
  8  9  1  0  0  0
  9 10  1  0  0  0
  9 12  1  0  0  0
 10 11  1  0  0  0
 12 13  2  0  0  0
 12 14  1  0  0  0
 14 15  1  0  0  0
 15 16  1  0  0  0
 16 17  2  0  0  0
 16 24  1  0  0  0
 17 18  1  0  0  0
 18 19  1  0  0  0
 18 22  1  0  0  0
 19 20  2  0  0  0
 19 23  1  0  0  0
 20 21  1  0  0  0
 21 22  2  0  0  0
 23 24  2  0  0  0
M  END
> <minimizedAffinity>
-9.36164

$$$$
1852


 26 29  0  0  0  0  0  0  0  0999 V2000
    1.1303    6.7140  -12.1524 S   0  0  0  0  0  0  0  0  0  0  0  0
    0.7275    7.0132  -10.7482 O   0  0  0  0  0  0  0  0  0  0  0  0
    1.7807    5.3561  -12.1918 O   0  0  0  0  0  0  0  0  0  0  0  0
   -0.2826    6.6917  -13.1817 C   0  0  0  0  0  0  0  0  0  0  0  0
   -1.1153    7.7908  -13.2502 C   0  0  0  0  0  0  0  0  0  0  0  0
   -2.2459    7.8242  -14.0484 C   0  0  0  0  0  0  0  0  0  0  0  0
   -2.5753    6.7242  -14.8191 C   0  0  0  0  0  0  0  0  0  0  0  0
   -1.7431    5.6367  -14.7463 C   0  0  0  0  0  0  0  0  0  0  0  0
   -0.6168    5.5998  -13.9529 C   0  0  0  0  0  0  0  0  0  0  0  0
   -3.7144    6.8008  -15.6047 O   0  0  0  0  0  0  0  0  0  0  0  0
   -4.8059    7.6565  -15.3156 C   0  0  0  0  0  0  0  0  0  0  0  0
   -4.3980    8.9149  -14.5966 C   0  0  0  0  0  0  0  0  0  0  0  0
   -3.0826    8.9134  -14.1248 O   0  0  0  0  0  0  0  0  0  0  0  0
    2.2941    7.8621  -12.6918 N   0  0  0  0  0  0  0  0  0  0  0  0
    1.8862    9.2110  -12.4553 C   0  0  0  0  0  0  0  0  0  0  0  0
    2.0765    9.9817  -13.7504 C   0  0  0  0  0  0  0  0  0  0  0  0
    1.9241    8.8865  -14.7857 C   0  0  0  0  0  0  0  0  0  0  0  0
    2.6222    7.7211  -14.0750 C   0  0  0  0  0  0  0  0  0  0  0  0
    0.9831   10.8741  -13.8837 O   0  0  0  0  0  0  0  0  0  0  0  0
    0.9966   12.1418  -13.3247 C   0  0  0  0  0  0  0  0  0  0  0  0
   -0.1781   12.8331  -13.3882 N   0  0  0  0  0  0  0  0  0  0  0  0
   -0.1956   14.0651  -12.8536 C   0  0  0  0  0  0  0  0  0  0  0  0
    0.9138   14.6328  -12.2598 C   0  0  0  0  0  0  0  0  0  0  0  0
    2.0759   13.8860  -12.2247 C   0  0  0  0  0  0  0  0  0  0  0  0
    2.0926   12.6470  -12.7614 N   0  0  0  0  0  0  0  0  0  0  0  0
    0.8766   16.2414  -11.5676 Cl  0  0  0  0  0  0  0  0  0  0  0  0
  1  2  2  0  0  0
  1  3  2  0  0  0
  1 14  1  0  0  0
  1  4  1  0  0  0
 14 15  1  0  0  0
 14 18  1  0  0  0
 15 16  1  0  0  0
 16 17  1  0  0  0
 16 19  1  0  0  0
 17 18  1  0  0  0
 19 20  1  0  0  0
 20 21  2  0  0  0
 20 25  1  0  0  0
 21 22  1  0  0  0
 22 23  2  0  0  0
 23 24  1  0  0  0
 23 26  1  0  0  0
 24 25  2  0  0  0
  4  5  2  0  0  0
  4  9  1  0  0  0
  5  6  1  0  0  0
  6  7  2  0  0  0
  6 13  1  0  0  0
  7  8  1  0  0  0
  7 10  1  0  0  0
  8  9  2  0  0  0
 10 11  1  0  0  0
 11 12  1  0  0  0
 12 13  1  0  0  0
M  END
> <minimizedAffinity>
-8.81776

$$$$
1856


 31 34  0  0  0  0  0  0  0  0999 V2000
   -1.6704   10.3512  -13.2547 C   0  0  0  0  0  0  0  0  0  0  0  0
   -0.6610    9.5916  -13.7074 N   0  0  0  0  0  0  0  0  0  0  0  0
    0.5910   10.0611  -13.9510 C   0  0  0  0  0  0  0  0  0  0  0  0
    0.7660   11.3860  -13.7015 N   0  0  0  0  0  0  0  0  0  0  0  0
   -0.2045   12.1950  -13.2492 C   0  0  0  0  0  0  0  0  0  0  0  0
   -1.4001   11.6611  -13.0351 N   0  0  0  0  0  0  0  0  0  0  0  0
    0.0487   13.5659  -13.0111 N   0  0  0  0  0  0  0  0  0  0  0  0
   -0.6150   14.6319  -13.7335 C   0  0  0  0  0  0  0  0  0  0  0  0
   -0.7326   15.8537  -12.8484 C   0  0  0  0  0  0  0  0  0  0  0  0
    0.4667   16.2977  -12.3593 O   0  0  0  0  0  0  0  0  0  0  0  0
    1.4970   15.3738  -12.4778 C   0  0  0  0  0  0  0  0  0  0  0  0
    1.0155   14.0066  -12.0006 C   0  0  0  0  0  0  0  0  0  0  0  0
    1.6283    9.2363  -14.4254 N   0  0  0  0  0  0  0  0  0  0  0  0
    2.5607    9.7243  -15.3969 C   0  0  0  0  0  0  0  0  0  0  0  0
    3.9538    9.4928  -14.8360 C   0  0  0  0  0  0  0  0  0  0  0  0
    4.0745    8.1142  -14.6041 O   0  0  0  0  0  0  0  0  0  0  0  0
    3.2479    7.7299  -13.5480 C   0  0  0  0  0  0  0  0  0  0  0  0
    1.7774    7.8936  -13.9517 C   0  0  0  0  0  0  0  0  0  0  0  0
   -2.9625    9.8128  -13.0154 N   0  0  0  0  0  0  0  0  0  0  0  0
   -3.1478    9.2032  -12.1946 H   0  0  0  0  0  0  0  0  0  0  0  0
   -5.2438    9.8405  -13.4305 C   0  0  0  0  0  0  0  0  0  0  0  0
   -4.0291   10.0832  -13.8729 N   0  0  0  0  0  0  0  0  0  0  0  0
   -9.4180   12.9639  -14.4410 Br  0  0  0  0  0  0  0  0  0  0  0  0
   -8.2878   11.4727  -14.8117 C   0  0  0  0  0  0  0  0  0  0  0  0
   -7.2138   11.2066  -14.0159 C   0  0  0  0  0  0  0  0  0  0  0  0
   -6.3851   10.1080  -14.2915 C   0  0  0  0  0  0  0  0  0  0  0  0
   -6.6788    9.3188  -15.3702 C   0  0  0  0  0  0  0  0  0  0  0  0
   -7.7868    9.5990  -16.1864 C   0  0  0  0  0  0  0  0  0  0  0  0
   -8.5826   10.6779  -15.8970 C   0  0  0  0  0  0  0  0  0  0  0  0
   -5.8985    8.2251  -15.6891 O   0  0  0  0  0  0  0  0  0  0  0  0
   -5.0896    7.9354  -15.1789 H   0  0  0  0  0  0  0  0  0  0  0  0
 23 24  1  0  0  0
 24 25  2  0  0  0
 24 29  1  0  0  0
 25 26  1  0  0  0
 26 27  2  0  0  0
 26 21  1  0  0  0
 27 28  1  0  0  0
 27 30  1  0  0  0
 28 29  2  0  0  0
 21 22  2  0  0  0
 22 19  1  0  0  0
 19  1  1  0  0  0
  1  2  2  0  0  0
  1  6  1  0  0  0
  2  3  1  0  0  0
  3  4  2  0  0  0
  3 13  1  0  0  0
  4  5  1  0  0  0
  5  6  2  0  0  0
  5  7  1  0  0  0
  7  8  1  0  0  0
  7 12  1  0  0  0
  8  9  1  0  0  0
  9 10  1  0  0  0
 10 11  1  0  0  0
 11 12  1  0  0  0
 13 14  1  0  0  0
 13 18  1  0  0  0
 14 15  1  0  0  0
 15 16  1  0  0  0
 16 17  1  0  0  0
 17 18  1  0  0  0
 30 31  1  0  0  0
 19 20  1  0  0  0
M  END
> <minimizedAffinity>
-8.54708

$$$$
1863


 33 36  0  0  0  0  0  0  0  0999 V2000
    2.3736    6.9164  -12.7249 N   0  0  0  0  0  0  0  0  0  0  0  0
    2.9985    5.7105  -12.6323 C   0  0  0  0  0  0  0  0  0  0  0  0
    4.2406    5.8433  -13.1948 C   0  0  0  0  0  0  0  0  0  0  0  0
    4.3271    7.1081  -13.6048 N   0  0  0  0  0  0  0  0  0  0  0  0
    3.1843    7.7905  -13.3266 C   0  0  0  0  0  0  0  0  0  0  0  0
    5.0443    4.7665  -13.2335 N   0  0  0  0  0  0  0  0  0  0  0  0
    4.6513    3.5640  -12.7336 C   0  0  0  0  0  0  0  0  0  0  0  0
    5.4042    2.5401  -12.7659 O   0  0  0  0  0  0  0  0  0  0  0  0
    3.4388    3.4031  -12.1773 N   0  0  0  0  0  0  0  0  0  0  0  0
    2.6245    4.4664  -12.1291 C   0  0  0  0  0  0  0  0  0  0  0  0
    1.5024    4.2833  -11.6068 O   0  0  0  0  0  0  0  0  0  0  0  0
    6.3567    4.8542  -13.8182 C   0  0  0  0  0  0  0  0  0  0  0  0
    3.1353    2.4605  -11.7865 H   0  0  0  0  0  0  0  0  0  0  0  0
    2.9511    9.1688  -13.6840 N   0  0  0  0  0  0  0  0  0  0  0  0
    2.0751    9.3728  -14.8146 C   0  0  0  0  0  0  0  0  0  0  0  0
    1.7868   10.8237  -15.1041 C   0  0  0  0  0  0  0  0  0  0  0  0
    1.4634   11.4573  -13.8781 N   0  0  0  0  0  0  0  0  0  0  0  0
    2.5648   11.4782  -12.9745 C   0  0  0  0  0  0  0  0  0  0  0  0
    3.5018   10.3080  -13.0335 C   0  0  0  0  0  0  0  0  0  0  0  0
    0.2579   10.9222  -13.3281 C   0  0  0  0  0  0  0  0  0  0  0  0
   -0.9158   11.8382  -13.4296 C   0  0  0  0  0  0  0  0  0  0  0  0
   -1.9874   11.5423  -13.9814 O   0  0  0  0  0  0  0  0  0  0  0  0
   -0.7300   13.1297  -12.8333 N   0  0  0  0  0  0  0  0  0  0  0  0
   -0.2427   13.9037  -13.3386 H   0  0  0  0  0  0  0  0  0  0  0  0
   -1.0851   13.2879  -11.8927 H   0  0  0  0  0  0  0  0  0  0  0  0
    1.0661    7.1601  -12.2141 C   0  0  0  0  0  0  0  0  0  0  0  0
   -3.4403    8.8526  -14.2528 Cl  0  0  0  0  0  0  0  0  0  0  0  0
   -2.1569    7.6574  -14.0874 C   0  0  0  0  0  0  0  0  0  0  0  0
   -1.0765    7.8219  -13.2673 C   0  0  0  0  0  0  0  0  0  0  0  0
   -0.0543    6.8682  -13.1466 C   0  0  0  0  0  0  0  0  0  0  0  0
   -0.1679    5.7329  -13.8898 C   0  0  0  0  0  0  0  0  0  0  0  0
   -1.2633    5.5609  -14.7233 C   0  0  0  0  0  0  0  0  0  0  0  0
   -2.2640    6.5049  -14.8356 C   0  0  0  0  0  0  0  0  0  0  0  0
 27 28  1  0  0  0
 28 29  2  0  0  0
 28 33  1  0  0  0
 29 30  1  0  0  0
 30 31  2  0  0  0
 30 26  1  0  0  0
 31 32  1  0  0  0
 32 33  2  0  0  0
 26  1  1  0  0  0
  1  2  1  0  0  0
  1  5  1  0  0  0
  2  3  2  0  0  0
  2 10  1  0  0  0
  3  4  1  0  0  0
  3  6  1  0  0  0
  4  5  2  0  0  0
  5 14  1  0  0  0
 14 15  1  0  0  0
 14 19  1  0  0  0
 15 16  1  0  0  0
 16 17  1  0  0  0
 17 18  1  0  0  0
 17 20  1  0  0  0
 18 19  1  0  0  0
 20 21  1  0  0  0
 21 22  2  0  0  0
 21 23  1  0  0  0
  6  7  1  0  0  0
  6 12  1  0  0  0
  7  8  2  0  0  0
  7  9  1  0  0  0
  9 10  1  0  0  0
 10 11  2  0  0  0
 23 24  1  0  0  0
 23 25  1  0  0  0
  9 13  1  0  0  0
M  END
> <minimizedAffinity>
-7.12786

$$$$
1865


 29 32  0  0  0  0  0  0  0  0999 V2000
    0.3947    9.5726  -13.9348 N   0  0  0  0  0  0  0  0  0  0  0  0
   -0.7652    9.7168  -13.1012 C   0  0  0  0  0  0  0  0  0  0  0  0
   -1.3203   10.8286  -12.8147 O   0  0  0  0  0  0  0  0  0  0  0  0
   -1.1828    8.4280  -12.6588 N   0  0  0  0  0  0  0  0  0  0  0  0
   -0.0224    7.5757  -12.7931 C   0  0  0  0  0  0  0  0  0  0  0  0
    0.8701    7.8532  -11.5979 C   0  0  0  0  0  0  0  0  0  0  0  0
    2.2464    7.3089  -11.9631 C   0  0  0  0  0  0  0  0  0  0  0  0
    2.1242    5.9636  -12.4915 N   0  0  0  0  0  0  0  0  0  0  0  0
    0.8455    5.3037  -12.4741 C   0  0  0  0  0  0  0  0  0  0  0  0
   -0.3130    6.1408  -12.9076 C   0  0  0  0  0  0  0  0  0  0  0  0
    3.2668    5.3059  -13.0166 C   0  0  0  0  0  0  0  0  0  0  0  0
    3.1521    4.1274  -13.4831 O   0  0  0  0  0  0  0  0  0  0  0  0
    0.6513    8.1714  -13.9737 C   0  0  0  0  0  0  0  0  0  0  0  0
    1.3344    7.6189  -14.8775 O   0  0  0  0  0  0  0  0  0  0  0  0
   -2.1208    8.1540  -12.3113 H   0  0  0  0  0  0  0  0  0  0  0  0
    4.5899    5.9046  -13.0558 C   0  0  0  0  0  0  0  0  0  0  0  0
    5.6467    5.3763  -12.4078 N   0  0  0  0  0  0  0  0  0  0  0  0
    6.8436    5.9836  -12.4874 C   0  0  0  0  0  0  0  0  0  0  0  0
    7.0403    7.1390  -13.2131 C   0  0  0  0  0  0  0  0  0  0  0  0
    5.9906    7.6682  -13.8595 N   0  0  0  0  0  0  0  0  0  0  0  0
    4.7774    7.0572  -13.7823 C   0  0  0  0  0  0  0  0  0  0  0  0
    1.1510   10.6082  -14.5993 C   0  0  0  0  0  0  0  0  0  0  0  0
    1.9981   14.6471  -11.3704 Cl  0  0  0  0  0  0  0  0  0  0  0  0
    2.4993   13.1788  -12.1851 C   0  0  0  0  0  0  0  0  0  0  0  0
    1.6758   12.4801  -13.0432 C   0  0  0  0  0  0  0  0  0  0  0  0
    2.0642   11.3268  -13.6855 C   0  0  0  0  0  0  0  0  0  0  0  0
    3.3292   10.8274  -13.4768 C   0  0  0  0  0  0  0  0  0  0  0  0
    4.1693   11.5149  -12.6184 C   0  0  0  0  0  0  0  0  0  0  0  0
    3.7667   12.6704  -11.9809 C   0  0  0  0  0  0  0  0  0  0  0  0
 23 24  1  0  0  0
 24 25  2  0  0  0
 24 29  1  0  0  0
 25 26  1  0  0  0
 26 27  2  0  0  0
 26 22  1  0  0  0
 27 28  1  0  0  0
 28 29  2  0  0  0
 22  1  1  0  0  0
  1  2  1  0  0  0
  1 13  1  0  0  0
  2  3  2  0  0  0
  2  4  1  0  0  0
  4  5  1  0  0  0
  5  6  1  0  0  0
  5 10  1  0  0  0
  5 13  1  0  0  0
  6  7  1  0  0  0
  7  8  1  0  0  0
  8  9  1  0  0  0
  8 11  1  0  0  0
  9 10  1  0  0  0
 11 12  2  0  0  0
 11 16  1  0  0  0
 16 17  2  0  0  0
 16 21  1  0  0  0
 17 18  1  0  0  0
 18 19  2  0  0  0
 19 20  1  0  0  0
 20 21  2  0  0  0
 13 14  2  0  0  0
  4 15  1  0  0  0
M  END
> <minimizedAffinity>
-7.18776

$$$$
1871


 28 31  0  0  0  0  0  0  0  0999 V2000
    2.0066    8.8481  -14.7049 C   0  0  0  0  0  0  0  0  0  0  0  0
    0.9238    8.0295  -14.3209 N   0  0  0  0  0  0  0  0  0  0  0  0
    1.3741    6.9354  -13.5692 C   0  0  0  0  0  0  0  0  0  0  0  0
    0.9494    5.8227  -13.0228 C   0  0  0  0  0  0  0  0  0  0  0  0
    1.8513    4.9371  -12.2777 C   0  0  0  0  0  0  0  0  0  0  0  0
    3.1482    5.4214  -11.8215 C   0  0  0  0  0  0  0  0  0  0  0  0
    3.5210    6.8076  -12.2853 C   0  0  0  0  0  0  0  0  0  0  0  0
    2.8064    7.1702  -13.4567 N   0  0  0  0  0  0  0  0  0  0  0  0
    3.1192    7.7862  -14.7399 C   0  0  0  0  0  0  0  0  0  0  0  0
    4.4965    8.3027  -14.7568 C   0  0  0  0  0  0  0  0  0  0  0  0
    1.8488    9.2543  -16.0101 O   0  0  0  0  0  0  0  0  0  0  0  0
    0.6922    7.5094  -15.2836 H   0  0  0  0  0  0  0  0  0  0  0  0
    2.2454   10.1093  -16.2586 H   0  0  0  0  0  0  0  0  0  0  0  0
    3.7172   13.3208  -11.1010 Cl  0  0  0  0  0  0  0  0  0  0  0  0
    3.2221   12.0374  -12.1886 C   0  0  0  0  0  0  0  0  0  0  0  0
    3.3662   12.1480  -13.5645 C   0  0  0  0  0  0  0  0  0  0  0  0
    2.9499   11.0829  -14.3609 C   0  0  0  0  0  0  0  0  0  0  0  0
    2.4079    9.9439  -13.8259 C   0  0  0  0  0  0  0  0  0  0  0  0
    2.2614    9.8290  -12.4543 C   0  0  0  0  0  0  0  0  0  0  0  0
    2.6733   10.8834  -11.6645 C   0  0  0  0  0  0  0  0  0  0  0  0
   -0.3038    8.6389  -14.0827 C   0  0  0  0  0  0  0  0  0  0  0  0
   -1.4407    7.8838  -14.3201 C   0  0  0  0  0  0  0  0  0  0  0  0
   -2.7120    8.3709  -14.1357 C   0  0  0  0  0  0  0  0  0  0  0  0
   -2.9447    9.6760  -13.6898 C   0  0  0  0  0  0  0  0  0  0  0  0
   -1.8013   10.4015  -13.4639 C   0  0  0  0  0  0  0  0  0  0  0  0
   -0.5339    9.9076  -13.6503 C   0  0  0  0  0  0  0  0  0  0  0  0
   -4.2275   10.1538  -13.5040 O   0  0  0  0  0  0  0  0  0  0  0  0
   -5.3245    9.3654  -13.8915 C   0  0  0  0  0  0  0  0  0  0  0  0
 14 15  1  0  0  0
 15 16  2  0  0  0
 15 20  1  0  0  0
 16 17  1  0  0  0
 17 18  2  0  0  0
 18 19  1  0  0  0
 18  1  1  0  0  0
 19 20  2  0  0  0
  1  2  1  0  0  0
  1  9  1  0  0  0
  1 11  1  0  0  0
  2  3  1  0  0  0
  2 21  1  0  0  0
  3  4  2  0  0  0
  3  8  1  0  0  0
  4  5  1  0  0  0
  5  6  1  0  0  0
  6  7  1  0  0  0
  7  8  1  0  0  0
  8  9  1  0  0  0
  9 10  1  0  0  0
 21 22  2  0  0  0
 21 26  1  0  0  0
 22 23  1  0  0  0
 23 24  2  0  0  0
 24 25  1  0  0  0
 24 27  1  0  0  0
 25 26  2  0  0  0
 27 28  1  0  0  0
  2 12  1  0  0  0
 11 13  1  0  0  0
M  CHG 1   2   1
M  END
> <minimizedAffinity>
-6.10903

$$$$
1893


 28 31  0  0  0  0  0  0  0  0999 V2000
   -3.0240   18.8009  -11.9265 N   0  0  0  0  0  0  0  0  0  0  0  0
   -1.9316   18.1422  -11.4730 C   0  0  0  0  0  0  0  0  0  0  0  0
   -1.4887   18.2409  -10.2988 O   0  0  0  0  0  0  0  0  0  0  0  0
   -1.3778   17.3559  -12.4693 C   0  0  0  0  0  0  0  0  0  0  0  0
   -2.1360   17.5356  -13.5391 C   0  0  0  0  0  0  0  0  0  0  0  0
   -1.5934   16.7680  -14.5079 N   0  0  0  0  0  0  0  0  0  0  0  0
   -0.5192   16.1400  -14.0108 N   0  0  0  0  0  0  0  0  0  0  0  0
   -0.3780   16.4993  -12.7453 N   0  0  0  0  0  0  0  0  0  0  0  0
   -3.1432   18.4186  -13.2095 C   0  0  0  0  0  0  0  0  0  0  0  0
   -4.0275   18.7910  -14.0120 O   0  0  0  0  0  0  0  0  0  0  0  0
   -1.9544   16.6850  -15.4761 H   0  0  0  0  0  0  0  0  0  0  0  0
    0.1217   15.4772  -14.4963 H   0  0  0  0  0  0  0  0  0  0  0  0
   -6.5187   22.5418   -8.8717 Cl  0  0  0  0  0  0  0  0  0  0  0  0
   -5.4579   21.4395   -9.7569 C   0  0  0  0  0  0  0  0  0  0  0  0
   -4.1529   21.2396   -9.3578 C   0  0  0  0  0  0  0  0  0  0  0  0
   -3.3712   20.3650  -10.0902 C   0  0  0  0  0  0  0  0  0  0  0  0
   -3.8422   19.6892  -11.1964 C   0  0  0  0  0  0  0  0  0  0  0  0
   -5.1536   19.9152  -11.5640 C   0  0  0  0  0  0  0  0  0  0  0  0
   -5.9766   20.7868  -10.8566 C   0  0  0  0  0  0  0  0  0  0  0  0
    0.6504   16.0580  -11.8271 C   0  0  0  0  0  0  0  0  0  0  0  0
    1.2131   14.7308  -12.1794 C   0  0  0  0  0  0  0  0  0  0  0  0
    0.4654   13.6742  -12.6490 C   0  0  0  0  0  0  0  0  0  0  0  0
    0.9932   12.4412  -12.9767 C   0  0  0  0  0  0  0  0  0  0  0  0
    2.3444   12.2404  -12.8300 C   0  0  0  0  0  0  0  0  0  0  0  0
    3.1297   13.2687  -12.3641 C   0  0  0  0  0  0  0  0  0  0  0  0
    2.5739   14.4960  -12.0426 C   0  0  0  0  0  0  0  0  0  0  0  0
    0.1419   11.4330  -13.4459 O   0  0  0  0  0  0  0  0  0  0  0  0
   -1.2636   11.5736  -13.4015 C   0  0  0  0  0  0  0  0  0  0  0  0
 13 14  1  0  0  0
 14 15  2  0  0  0
 14 19  1  0  0  0
 15 16  1  0  0  0
 16 17  2  0  0  0
 17 18  1  0  0  0
 17  1  1  0  0  0
 18 19  2  0  0  0
  1  2  1  0  0  0
  1  9  1  0  0  0
  2  3  2  0  0  0
  2  4  1  0  0  0
  4  5  2  0  0  0
  4  8  1  0  0  0
  5  6  1  0  0  0
  5  9  1  0  0  0
  6  7  1  0  0  0
  7  8  1  0  0  0
  8 20  1  0  0  0
 20 21  1  0  0  0
 21 22  2  0  0  0
 21 26  1  0  0  0
 22 23  1  0  0  0
 23 24  2  0  0  0
 23 27  1  0  0  0
 24 25  1  0  0  0
 25 26  2  0  0  0
 27 28  1  0  0  0
  9 10  2  0  0  0
  6 11  1  0  0  0
  7 12  1  0  0  0
M  END
> <minimizedAffinity>
-10.66808

$$$$
1894


 26 29  0  0  0  0  0  0  0  0999 V2000
   -3.0154   18.8105  -11.8807 N   0  0  0  0  0  0  0  0  0  0  0  0
   -1.9397   18.1404  -11.4097 C   0  0  0  0  0  0  0  0  0  0  0  0
   -1.5277   18.2167  -10.2332 O   0  0  0  0  0  0  0  0  0  0  0  0
   -1.3640   17.3659  -12.4027 C   0  0  0  0  0  0  0  0  0  0  0  0
   -2.1062   17.5693  -13.5008 C   0  0  0  0  0  0  0  0  0  0  0  0
   -1.5405   16.8118  -14.4571 N   0  0  0  0  0  0  0  0  0  0  0  0
   -0.4967   16.1748  -13.9586 N   0  0  0  0  0  0  0  0  0  0  0  0
   -0.3735   16.5059  -12.6912 N   0  0  0  0  0  0  0  0  0  0  0  0
   -3.1106   18.4530  -13.1674 C   0  0  0  0  0  0  0  0  0  0  0  0
   -3.9955   18.8668  -13.9656 O   0  0  0  0  0  0  0  0  0  0  0  0
   -1.8500   16.7176  -15.4464 H   0  0  0  0  0  0  0  0  0  0  0  0
    0.1415   15.5067  -14.4836 H   0  0  0  0  0  0  0  0  0  0  0  0
   -6.6141   22.5697   -8.8731 Cl  0  0  0  0  0  0  0  0  0  0  0  0
   -5.5544   21.4693   -9.7503 C   0  0  0  0  0  0  0  0  0  0  0  0
   -5.9985   20.7879  -10.8636 C   0  0  0  0  0  0  0  0  0  0  0  0
   -5.1687   19.9241  -11.5532 C   0  0  0  0  0  0  0  0  0  0  0  0
   -3.8647   19.7040  -11.1633 C   0  0  0  0  0  0  0  0  0  0  0  0
   -3.4282   20.3925  -10.0461 C   0  0  0  0  0  0  0  0  0  0  0  0
   -4.2508   21.2574   -9.3506 C   0  0  0  0  0  0  0  0  0  0  0  0
    0.6347   16.0467  -11.7649 C   0  0  0  0  0  0  0  0  0  0  0  0
    1.2513   14.7578  -12.1460 C   0  0  0  0  0  0  0  0  0  0  0  0
    0.4514   13.7034  -12.5126 C   0  0  0  0  0  0  0  0  0  0  0  0
    1.0456   12.5122  -12.8600 C   0  0  0  0  0  0  0  0  0  0  0  0
    2.4204   12.3598  -12.8468 C   0  0  0  0  0  0  0  0  0  0  0  0
    3.2231   13.4157  -12.4790 C   0  0  0  0  0  0  0  0  0  0  0  0
    2.6170   14.5928  -12.1370 C   0  0  0  0  0  0  0  0  0  0  0  0
 13 14  1  0  0  0
 14 15  2  0  0  0
 14 19  1  0  0  0
 15 16  1  0  0  0
 16 17  2  0  0  0
 17 18  1  0  0  0
 17  1  1  0  0  0
 18 19  2  0  0  0
  1  2  1  0  0  0
  1  9  1  0  0  0
  2  3  2  0  0  0
  2  4  1  0  0  0
  4  5  2  0  0  0
  4  8  1  0  0  0
  5  6  1  0  0  0
  5  9  1  0  0  0
  6  7  1  0  0  0
  7  8  1  0  0  0
  8 20  1  0  0  0
 20 21  1  0  0  0
 21 22  2  0  0  0
 21 26  1  0  0  0
 22 23  1  0  0  0
 23 24  2  0  0  0
 24 25  1  0  0  0
 25 26  2  0  0  0
  9 10  2  0  0  0
  6 11  1  0  0  0
  7 12  1  0  0  0
M  END
> <minimizedAffinity>
-10.59908

$$$$
1895


 32 35  0  0  0  0  0  0  0  0999 V2000
   -1.5371    6.8357  -13.4234 N   0  0  0  0  0  0  0  0  0  0  0  0
   -0.8016    8.0288  -13.5868 C   0  0  0  0  0  0  0  0  0  0  0  0
    0.1762    8.1324  -12.3977 C   0  0  0  0  0  0  0  0  0  0  0  0
    1.1206    7.0745  -12.6514 N   0  0  0  0  0  0  0  0  0  0  0  0
    0.5030    5.7346  -12.5429 C   0  0  0  0  0  0  0  0  0  0  0  0
   -0.8625    5.6523  -13.0899 C   0  0  0  0  0  0  0  0  0  0  0  0
    2.4748    7.1534  -12.9703 C   0  0  0  0  0  0  0  0  0  0  0  0
    3.0312    5.9703  -13.1454 O   0  0  0  0  0  0  0  0  0  0  0  0
   -2.8534    6.6524  -14.4954 S   0  0  0  0  0  0  0  0  0  0  0  0
   -2.4696    6.4404  -15.9064 O   0  0  0  0  0  0  0  0  0  0  0  0
   -3.6710    5.4696  -14.0342 O   0  0  0  0  0  0  0  0  0  0  0  0
   -3.8519    8.1097  -14.3550 C   0  0  0  0  0  0  0  0  0  0  0  0
   -5.5381    8.2961  -14.5037 S   0  0  0  0  0  0  0  0  0  0  0  0
   -5.6536    9.9726  -14.2325 C   0  0  0  0  0  0  0  0  0  0  0  0
   -4.3511   10.3474  -14.0299 C   0  0  0  0  0  0  0  0  0  0  0  0
   -3.4221    9.3774  -14.0948 C   0  0  0  0  0  0  0  0  0  0  0  0
   -7.1043   10.9873  -14.2162 Cl  0  0  0  0  0  0  0  0  0  0  0  0
    3.4109    8.2318  -13.1567 C   0  0  0  0  0  0  0  0  0  0  0  0
    2.9133    9.4970  -13.6040 N   0  0  0  0  0  0  0  0  0  0  0  0
    2.5250    9.8129  -14.9420 C   0  0  0  0  0  0  0  0  0  0  0  0
    2.5986    8.9856  -15.9130 O   0  0  0  0  0  0  0  0  0  0  0  0
    2.0703   11.1491  -14.9653 N   0  0  0  0  0  0  0  0  0  0  0  0
    1.7919   11.5575  -13.5971 C   0  0  0  0  0  0  0  0  0  0  0  0
    2.1385   12.9741  -13.2994 C   0  0  0  0  0  0  0  0  0  0  0  0
    1.1295   13.4897  -12.2676 C   0  0  0  0  0  0  0  0  0  0  0  0
   -0.1751   13.6790  -13.0175 C   0  0  0  0  0  0  0  0  0  0  0  0
   -0.4631   12.4409  -13.8309 C   0  0  0  0  0  0  0  0  0  0  0  0
    0.3361   11.2450  -13.3341 C   0  0  0  0  0  0  0  0  0  0  0  0
    3.5038   13.1589  -12.6786 C   0  0  0  0  0  0  0  0  0  0  0  0
    2.6900   10.6627  -12.8074 C   0  0  0  0  0  0  0  0  0  0  0  0
    3.1563   10.8836  -11.6731 O   0  0  0  0  0  0  0  0  0  0  0  0
    1.9478   11.7516  -15.7934 H   0  0  0  0  0  0  0  0  0  0  0  0
  9 10  2  0  0  0
  9 11  2  0  0  0
  9  1  1  0  0  0
  9 12  1  0  0  0
  1  2  1  0  0  0
  1  6  1  0  0  0
  2  3  1  0  0  0
  3  4  1  0  0  0
  4  5  1  0  0  0
  4  7  1  0  0  0
  5  6  1  0  0  0
  7  8  2  0  0  0
  7 18  1  0  0  0
 18 19  1  0  0  0
 19 20  1  0  0  0
 19 30  1  0  0  0
 20 21  2  0  0  0
 20 22  1  0  0  0
 22 23  1  0  0  0
 23 24  1  0  0  0
 23 28  1  0  0  0
 23 30  1  0  0  0
 24 25  1  0  0  0
 24 29  1  0  0  0
 25 26  1  0  0  0
 26 27  1  0  0  0
 27 28  1  0  0  0
 30 31  2  0  0  0
 12 13  1  0  0  0
 12 16  2  0  0  0
 13 14  1  0  0  0
 14 15  2  0  0  0
 14 17  1  0  0  0
 15 16  1  0  0  0
 22 32  1  0  0  0
M  END
> <minimizedAffinity>
-8.35574

$$$$
1906


 33 36  0  0  0  0  0  0  0  0999 V2000
    2.1797    9.2403  -13.2382 C   0  0  0  0  0  0  0  0  0  0  0  0
    3.0456   10.0921  -12.5372 O   0  0  0  0  0  0  0  0  0  0  0  0
    3.3973   11.2281  -13.2132 C   0  0  0  0  0  0  0  0  0  0  0  0
    2.2716   12.2309  -13.3661 C   0  0  0  0  0  0  0  0  0  0  0  0
    1.0760   11.3868  -13.6216 N   0  0  0  0  0  0  0  0  0  0  0  0
    1.3576   10.1264  -14.1921 C   0  0  0  0  0  0  0  0  0  0  0  0
   -0.1623   11.8957  -13.2894 C   0  0  0  0  0  0  0  0  0  0  0  0
   -0.2647   13.0830  -12.7699 O   0  0  0  0  0  0  0  0  0  0  0  0
   -1.4070   11.2128  -13.4692 C   0  0  0  0  0  0  0  0  0  0  0  0
   -2.1172   11.2500  -14.5968 N   0  0  0  0  0  0  0  0  0  0  0  0
   -3.2896   10.6092  -14.7735 C   0  0  0  0  0  0  0  0  0  0  0  0
   -3.8152    9.8559  -13.7359 C   0  0  0  0  0  0  0  0  0  0  0  0
   -3.1375    9.7949  -12.6013 N   0  0  0  0  0  0  0  0  0  0  0  0
   -1.9706   10.4420  -12.4467 C   0  0  0  0  0  0  0  0  0  0  0  0
   -5.1081    9.1722  -13.9859 C   0  0  0  0  0  0  0  0  0  0  0  0
    3.0581    8.3991  -14.1198 C   0  0  0  0  0  0  0  0  0  0  0  0
    4.2465    8.0057  -13.7215 O   0  0  0  0  0  0  0  0  0  0  0  0
    9.1499    6.6763  -13.9518 Cl  0  0  0  0  0  0  0  0  0  0  0  0
    7.4377    6.3360  -13.7006 C   0  0  0  0  0  0  0  0  0  0  0  0
    6.5259    7.3494  -13.8195 C   0  0  0  0  0  0  0  0  0  0  0  0
    5.1885    7.1135  -13.6291 C   0  0  0  0  0  0  0  0  0  0  0  0
    4.8005    5.7980  -13.3073 C   0  0  0  0  0  0  0  0  0  0  0  0
    5.7180    4.8066  -13.1937 C   0  0  0  0  0  0  0  0  0  0  0  0
    7.0536    5.0459  -13.3860 C   0  0  0  0  0  0  0  0  0  0  0  0
    1.3440    8.5348  -12.2710 C   0  0  0  0  0  0  0  0  0  0  0  0
    1.1222    7.0989  -12.4514 C   0  0  0  0  0  0  0  0  0  0  0  0
    1.7295    6.2637  -11.7550 O   0  0  0  0  0  0  0  0  0  0  0  0
    0.2080    6.6058  -13.4260 N   0  0  0  0  0  0  0  0  0  0  0  0
   -0.5467    7.5087  -14.2883 C   0  0  0  0  0  0  0  0  0  0  0  0
   -1.9885    7.0475  -14.2607 C   0  0  0  0  0  0  0  0  0  0  0  0
   -2.0449    5.7175  -14.6887 O   0  0  0  0  0  0  0  0  0  0  0  0
   -1.4802    4.9096  -13.7025 C   0  0  0  0  0  0  0  0  0  0  0  0
   -0.0148    5.1870  -13.6103 C   0  0  0  0  0  0  0  0  0  0  0  0
 18 19  1  0  0  0
 19 20  2  0  0  0
 19 24  1  0  0  0
 20 21  1  0  0  0
 21 22  2  0  0  0
 21 17  1  0  0  0
 22 23  1  0  0  0
 23 24  2  0  0  0
 17 16  1  0  0  0
 16  1  1  0  0  0
  1  2  1  0  0  0
  1  6  1  0  0  0
  1 25  1  0  0  0
  2  3  1  0  0  0
  3  4  1  0  0  0
  4  5  1  0  0  0
  5  6  1  0  0  0
  5  7  1  0  0  0
  7  8  2  0  0  0
  7  9  1  0  0  0
  9 10  2  0  0  0
  9 14  1  0  0  0
 10 11  1  0  0  0
 11 12  2  0  0  0
 12 13  1  0  0  0
 12 15  1  0  0  0
 13 14  2  0  0  0
 25 26  1  0  0  0
 26 27  2  0  0  0
 26 28  1  0  0  0
 28 29  1  0  0  0
 28 33  1  0  0  0
 29 30  1  0  0  0
 30 31  1  0  0  0
 31 32  1  0  0  0
 32 33  1  0  0  0
M  END
> <minimizedAffinity>
-7.07372

$$$$
1913


 29 32  0  0  0  0  0  0  0  0999 V2000
    3.4540    8.9804  -13.9100 N   0  0  0  0  0  0  0  0  0  0  0  0
    2.6219    9.0716  -15.0877 C   0  0  0  0  0  0  0  0  0  0  0  0
    2.1780   10.4757  -15.3984 C   0  0  0  0  0  0  0  0  0  0  0  0
    1.7149   11.1388  -14.1479 C   0  0  0  0  0  0  0  0  0  0  0  0
    2.8529   11.2738  -13.1957 C   0  0  0  0  0  0  0  0  0  0  0  0
    3.7354   10.0887  -13.0505 C   0  0  0  0  0  0  0  0  0  0  0  0
    7.5451    5.9717  -13.8380 Cl  0  0  0  0  0  0  0  0  0  0  0  0
    5.8634    6.2657  -13.5391 C   0  0  0  0  0  0  0  0  0  0  0  0
    5.0976    5.2983  -13.0308 N   0  0  0  0  0  0  0  0  0  0  0  0
    3.7964    5.4710  -12.7817 C   0  0  0  0  0  0  0  0  0  0  0  0
    2.8606    4.6731  -12.2827 N   0  0  0  0  0  0  0  0  0  0  0  0
    1.7408    5.4076  -12.2612 C   0  0  0  0  0  0  0  0  0  0  0  0
    1.9444    6.6453  -12.7306 N   0  0  0  0  0  0  0  0  0  0  0  0
    3.2402    6.7247  -13.0736 C   0  0  0  0  0  0  0  0  0  0  0  0
    4.0156    7.7257  -13.5955 C   0  0  0  0  0  0  0  0  0  0  0  0
    5.3366    7.4613  -13.8190 N   0  0  0  0  0  0  0  0  0  0  0  0
    1.2599    7.4319  -12.8254 H   0  0  0  0  0  0  0  0  0  0  0  0
    0.5120   10.5195  -13.5890 C   0  0  0  0  0  0  0  0  0  0  0  0
    0.6416    9.4869  -12.8871 O   0  0  0  0  0  0  0  0  0  0  0  0
   -0.7869   11.0257  -13.8011 N   0  0  0  0  0  0  0  0  0  0  0  0
   -0.8970   11.8993  -14.3938 H   0  0  0  0  0  0  0  0  0  0  0  0
   -1.9823   10.4250  -13.2562 C   0  0  0  0  0  0  0  0  0  0  0  0
   -3.0085   10.0747  -14.2950 C   0  0  0  0  0  0  0  0  0  0  0  0
   -3.4042    8.6817  -14.1891 N   0  0  0  0  0  0  0  0  0  0  0  0
   -2.3148    7.8127  -13.8959 C   0  0  0  0  0  0  0  0  0  0  0  0
   -1.9752    6.9623  -15.1034 C   0  0  0  0  0  0  0  0  0  0  0  0
   -3.0579    6.1624  -15.3711 O   0  0  0  0  0  0  0  0  0  0  0  0
   -4.2576    6.8029  -15.5329 C   0  0  0  0  0  0  0  0  0  0  0  0
   -4.2703    8.2612  -15.2312 C   0  0  0  0  0  0  0  0  0  0  0  0
  7  8  1  0  0  0
  8  9  2  0  0  0
  8 16  1  0  0  0
  9 10  1  0  0  0
 10 11  1  0  0  0
 10 14  2  0  0  0
 11 12  2  0  0  0
 12 13  1  0  0  0
 13 14  1  0  0  0
 14 15  1  0  0  0
 15 16  2  0  0  0
 15  1  1  0  0  0
  1  2  1  0  0  0
  1  6  1  0  0  0
  2  3  1  0  0  0
  3  4  1  0  0  0
  4  5  1  0  0  0
  4 18  1  0  0  0
  5  6  1  0  0  0
 18 19  2  0  0  0
 18 20  1  0  0  0
 20 22  1  0  0  0
 22 23  1  0  0  0
 23 24  1  0  0  0
 24 25  1  0  0  0
 24 29  1  0  0  0
 25 26  1  0  0  0
 26 27  1  0  0  0
 27 28  1  0  0  0
 28 29  1  0  0  0
 13 17  1  0  0  0
 20 21  1  0  0  0
M  END
> <minimizedAffinity>
-7.46426

$$$$
1927


 36 39  0  0  0  0  0  0  0  0999 V2000
   -3.7049    9.1809  -14.1000 C   0  0  0  0  0  0  0  0  0  0  0  0
    1.1894    8.0018  -12.6964 C   0  0  0  0  0  0  0  0  0  0  0  0
   -0.1129    7.2527  -12.9691 C   0  0  0  0  0  0  0  0  0  0  0  0
   -1.1803    8.1646  -12.4000 C   0  0  0  0  0  0  0  0  0  0  0  0
   -1.2764    9.3531  -13.1721 N   0  0  0  0  0  0  0  0  0  0  0  0
   -0.0270   10.1490  -13.2939 C   0  0  0  0  0  0  0  0  0  0  0  0
    1.2105    9.3213  -13.3731 C   0  0  0  0  0  0  0  0  0  0  0  0
   -2.4100    9.8210  -13.8235 C   0  0  0  0  0  0  0  0  0  0  0  0
   -2.3455   11.0477  -14.2734 O   0  0  0  0  0  0  0  0  0  0  0  0
    1.1256    8.2630  -11.2904 O   0  0  0  0  0  0  0  0  0  0  0  0
    1.5207    9.1601  -11.1571 H   0  0  0  0  0  0  0  0  0  0  0  0
    5.8235    4.1302  -13.3535 Cl  0  0  0  0  0  0  0  0  0  0  0  0
    4.4716    5.2813  -13.1905 C   0  0  0  0  0  0  0  0  0  0  0  0
    3.2998    4.9140  -12.5742 C   0  0  0  0  0  0  0  0  0  0  0  0
    2.2470    5.8190  -12.4412 C   0  0  0  0  0  0  0  0  0  0  0  0
    2.3303    7.1326  -12.9214 C   0  0  0  0  0  0  0  0  0  0  0  0
    3.5168    7.4636  -13.5307 C   0  0  0  0  0  0  0  0  0  0  0  0
    4.5675    6.5773  -13.6701 C   0  0  0  0  0  0  0  0  0  0  0  0
   -4.7842   10.0028  -14.4322 N   0  0  0  0  0  0  0  0  0  0  0  0
   -5.9575   10.1787  -13.6361 C   0  0  0  0  0  0  0  0  0  0  0  0
   -5.9846    9.5028  -12.5738 O   0  0  0  0  0  0  0  0  0  0  0  0
   -4.7619   10.6192  -15.2882 H   0  0  0  0  0  0  0  0  0  0  0  0
   -7.0075   11.0715  -14.0434 C   0  0  0  0  0  0  0  0  0  0  0  0
   -7.8254   11.0227  -15.0425 C   0  0  0  0  0  0  0  0  0  0  0  0
   -7.8177    9.9734  -16.0132 N   0  0  0  0  0  0  0  0  0  0  0  0
   -8.7377    9.9333  -17.0817 N   0  0  0  0  0  0  0  0  0  0  0  0
   -9.7144   10.9374  -17.2368 C   0  0  0  0  0  0  0  0  0  0  0  0
  -10.5223   10.8619  -18.2081 O   0  0  0  0  0  0  0  0  0  0  0  0
   -9.7587   12.0205  -16.2739 C   0  0  0  0  0  0  0  0  0  0  0  0
   -8.8646   12.0667  -15.2290 C   0  0  0  0  0  0  0  0  0  0  0  0
   -8.9886   13.1036  -14.3493 C   0  0  0  0  0  0  0  0  0  0  0  0
   -9.9716   14.0925  -14.4737 C   0  0  0  0  0  0  0  0  0  0  0  0
  -10.8366   14.0019  -15.5294 C   0  0  0  0  0  0  0  0  0  0  0  0
  -10.7496   12.9638  -16.4535 C   0  0  0  0  0  0  0  0  0  0  0  0
   -7.1182    9.1948  -15.9587 H   0  0  0  0  0  0  0  0  0  0  0  0
   -8.7094    9.1483  -17.7735 H   0  0  0  0  0  0  0  0  0  0  0  0
 12 13  1  0  0  0
 13 14  2  0  0  0
 13 18  1  0  0  0
 14 15  1  0  0  0
 15 16  2  0  0  0
 16 17  1  0  0  0
 16  2  1  0  0  0
 17 18  2  0  0  0
  2  3  1  0  0  0
  2  7  1  0  0  0
  2 10  1  0  0  0
  3  4  1  0  0  0
  4  5  1  0  0  0
  5  6  1  0  0  0
  5  8  1  0  0  0
  6  7  1  0  0  0
  8  9  2  0  0  0
  8  1  1  0  0  0
  1 19  1  0  0  0
 19 20  1  0  0  0
 20 21  2  0  0  0
 20 23  1  0  0  0
 23 24  2  0  0  0
 24 25  1  0  0  0
 24 30  1  0  0  0
 25 26  1  0  0  0
 26 27  1  0  0  0
 27 28  2  0  0  0
 27 29  1  0  0  0
 29 30  2  0  0  0
 29 34  1  0  0  0
 30 31  1  0  0  0
 31 32  2  0  0  0
 32 33  1  0  0  0
 33 34  2  0  0  0
 19 22  1  0  0  0
 25 35  1  0  0  0
 26 36  1  0  0  0
 10 11  1  0  0  0
M  END
> <minimizedAffinity>
-11.58524

$$$$
1928


 28 31  0  0  0  0  0  0  0  0999 V2000
   -3.6622    8.0320  -14.4427 N   0  0  0  0  0  0  0  0  0  0  0  0
   -3.3016    9.3234  -14.2927 C   0  0  0  0  0  0  0  0  0  0  0  0
   -2.0426    9.6567  -13.8619 C   0  0  0  0  0  0  0  0  0  0  0  0
   -1.0818    8.5889  -13.5632 C   0  0  0  0  0  0  0  0  0  0  0  0
    0.0568    9.1980  -13.1675 N   0  0  0  0  0  0  0  0  0  0  0  0
   -0.1142   10.5040  -13.1947 N   0  0  0  0  0  0  0  0  0  0  0  0
   -1.3479   10.8366  -13.6020 C   0  0  0  0  0  0  0  0  0  0  0  0
   -1.8296   11.9869  -13.7374 O   0  0  0  0  0  0  0  0  0  0  0  0
   -1.4957    7.2845  -13.7320 C   0  0  0  0  0  0  0  0  0  0  0  0
   -2.7755    7.0780  -14.1662 C   0  0  0  0  0  0  0  0  0  0  0  0
    0.6185   11.1892  -12.9339 H   0  0  0  0  0  0  0  0  0  0  0  0
   -0.5656    6.1931  -13.4440 C   0  0  0  0  0  0  0  0  0  0  0  0
   -0.3267    5.3234  -14.2932 O   0  0  0  0  0  0  0  0  0  0  0  0
    0.0706    6.1019  -12.2174 O   0  0  0  0  0  0  0  0  0  0  0  0
    1.4697    6.1139  -12.0605 C   0  0  0  0  0  0  0  0  0  0  0  0
   -5.0193    7.7352  -14.9049 C   0  0  0  0  0  0  0  0  0  0  0  0
   -7.4013   10.4700  -14.7606 C   0  0  0  0  0  0  0  0  0  0  0  0
   -6.8415   10.4547  -13.5416 N   0  0  0  0  0  0  0  0  0  0  0  0
   -5.9583    9.5049  -13.4650 O   0  0  0  0  0  0  0  0  0  0  0  0
   -5.9094    8.8761  -14.6138 C   0  0  0  0  0  0  0  0  0  0  0  0
   -6.8121    9.4735  -15.4367 N   0  0  0  0  0  0  0  0  0  0  0  0
  -11.6621   14.3147  -16.5976 Cl  0  0  0  0  0  0  0  0  0  0  0  0
  -10.4206   13.1920  -16.0686 C   0  0  0  0  0  0  0  0  0  0  0  0
   -9.9514   12.1955  -16.9051 C   0  0  0  0  0  0  0  0  0  0  0  0
   -8.9737   11.3210  -16.4699 C   0  0  0  0  0  0  0  0  0  0  0  0
   -8.4310   11.3971  -15.2086 C   0  0  0  0  0  0  0  0  0  0  0  0
   -8.8958   12.3889  -14.3693 C   0  0  0  0  0  0  0  0  0  0  0  0
   -9.8755   13.2718  -14.7951 C   0  0  0  0  0  0  0  0  0  0  0  0
 22 23  1  0  0  0
 23 24  2  0  0  0
 23 28  1  0  0  0
 24 25  1  0  0  0
 25 26  2  0  0  0
 26 27  1  0  0  0
 26 17  1  0  0  0
 27 28  2  0  0  0
 17 18  2  0  0  0
 17 21  1  0  0  0
 18 19  1  0  0  0
 19 20  1  0  0  0
 20 21  2  0  0  0
 20 16  1  0  0  0
 16  1  1  0  0  0
  1  2  1  0  0  0
  1 10  1  0  0  0
  2  3  2  0  0  0
  3  4  1  0  0  0
  3  7  1  0  0  0
  4  5  2  0  0  0
  4  9  1  0  0  0
  5  6  1  0  0  0
  6  7  1  0  0  0
  7  8  2  0  0  0
  9 10  2  0  0  0
  9 12  1  0  0  0
 12 13  2  0  0  0
 12 14  1  0  0  0
 14 15  1  0  0  0
  6 11  1  0  0  0
M  END
> <minimizedAffinity>
-9.48470

$$$$
1930


 34 37  0  0  0  0  0  0  0  0999 V2000
   -0.0231   13.1542  -12.6674 C   0  0  0  0  0  0  0  0  0  0  0  0
   -1.2297   13.0139  -12.3411 O   0  0  0  0  0  0  0  0  0  0  0  0
    0.6358   12.1193  -13.3561 N   0  0  0  0  0  0  0  0  0  0  0  0
   -0.0298   10.8670  -13.7165 C   0  0  0  0  0  0  0  0  0  0  0  0
    0.6853    9.7901  -12.9250 C   0  0  0  0  0  0  0  0  0  0  0  0
    2.1703    9.8131  -13.2018 C   0  0  0  0  0  0  0  0  0  0  0  0
    2.4970   10.8590  -14.2742 C   0  0  0  0  0  0  0  0  0  0  0  0
    2.0265   12.2112  -13.7654 C   0  0  0  0  0  0  0  0  0  0  0  0
    2.9149   10.2310  -12.0719 O   0  0  0  0  0  0  0  0  0  0  0  0
    2.7326    8.4818  -13.5989 C   0  0  0  0  0  0  0  0  0  0  0  0
    3.8605   10.0402  -12.2880 H   0  0  0  0  0  0  0  0  0  0  0  0
    0.0869    8.5044  -13.0028 N   0  0  0  0  0  0  0  0  0  0  0  0
   -0.6968    8.1428  -14.0609 C   0  0  0  0  0  0  0  0  0  0  0  0
   -1.2793    6.8955  -14.1377 C   0  0  0  0  0  0  0  0  0  0  0  0
   -1.0698    5.9855  -13.1255 C   0  0  0  0  0  0  0  0  0  0  0  0
   -1.5916    4.8195  -13.1591 O   0  0  0  0  0  0  0  0  0  0  0  0
   -0.2974    6.3490  -12.0869 N   0  0  0  0  0  0  0  0  0  0  0  0
    0.2577    7.5950  -12.0549 C   0  0  0  0  0  0  0  0  0  0  0  0
    0.9673    7.8768  -11.0634 O   0  0  0  0  0  0  0  0  0  0  0  0
   -2.1355    6.4707  -15.2732 C   0  0  0  0  0  0  0  0  0  0  0  0
   -0.1365    5.6668  -11.3228 H   0  0  0  0  0  0  0  0  0  0  0  0
    0.6734   14.4145  -12.3126 C   0  0  0  0  0  0  0  0  0  0  0  0
    0.3986   15.5370  -13.2593 C   0  0  0  0  0  0  0  0  0  0  0  0
   -3.6912   20.8458   -9.4328 Cl  0  0  0  0  0  0  0  0  0  0  0  0
   -3.1089   19.7166  -10.6466 C   0  0  0  0  0  0  0  0  0  0  0  0
   -1.9887   18.9446  -10.4713 C   0  0  0  0  0  0  0  0  0  0  0  0
   -1.5360   18.0560  -11.4343 C   0  0  0  0  0  0  0  0  0  0  0  0
   -0.5076   17.1983  -11.5424 N   0  0  0  0  0  0  0  0  0  0  0  0
   -0.5342   16.5595  -12.7245 C   0  0  0  0  0  0  0  0  0  0  0  0
   -1.6320   17.0524  -13.3676 N   0  0  0  0  0  0  0  0  0  0  0  0
   -2.2555   17.9598  -12.6071 C   0  0  0  0  0  0  0  0  0  0  0  0
   -3.3872   18.7171  -12.8242 C   0  0  0  0  0  0  0  0  0  0  0  0
   -3.8048   19.5963  -11.8309 C   0  0  0  0  0  0  0  0  0  0  0  0
   -2.0118   16.6008  -14.7049 C   0  0  0  0  0  0  0  0  0  0  0  0
 24 25  1  0  0  0
 25 26  2  0  0  0
 25 33  1  0  0  0
 26 27  1  0  0  0
 27 28  1  0  0  0
 27 31  2  0  0  0
 28 29  2  0  0  0
 29 30  1  0  0  0
 29 23  1  0  0  0
 30 31  1  0  0  0
 30 34  1  0  0  0
 31 32  1  0  0  0
 32 33  2  0  0  0
 23 22  1  0  0  0
 22  1  1  0  0  0
  1  2  2  0  0  0
  1  3  1  0  0  0
  3  4  1  0  0  0
  3  8  1  0  0  0
  4  5  1  0  0  0
  5  6  1  0  0  0
  5 12  1  0  0  0
  6  7  1  0  0  0
  6  9  1  0  0  0
  6 10  1  0  0  0
  7  8  1  0  0  0
 12 13  1  0  0  0
 12 18  1  0  0  0
 13 14  2  0  0  0
 14 15  1  0  0  0
 14 20  1  0  0  0
 15 16  2  0  0  0
 15 17  1  0  0  0
 17 18  1  0  0  0
 18 19  2  0  0  0
  9 11  1  0  0  0
 17 21  1  0  0  0
M  END
> <minimizedAffinity>
-9.75708

$$$$
1936


 25 28  0  0  0  0  0  0  0  0999 V2000
    0.0455   15.8237  -13.5163 N   0  0  0  0  0  0  0  0  0  0  0  0
    0.1864   14.5920  -12.8488 C   0  0  0  0  0  0  0  0  0  0  0  0
   -0.8275   13.8843  -12.7232 O   0  0  0  0  0  0  0  0  0  0  0  0
    0.8866   16.4358  -13.6325 H   0  0  0  0  0  0  0  0  0  0  0  0
    1.4706   14.1197  -12.3029 C   0  0  0  0  0  0  0  0  0  0  0  0
    2.5469   15.1283  -12.1969 C   0  0  0  0  0  0  0  0  0  0  0  0
    1.8696   14.7683  -10.9340 C   0  0  0  0  0  0  0  0  0  0  0  0
    1.7789   12.7211  -12.3208 N   0  0  0  0  0  0  0  0  0  0  0  0
    3.0951   12.3637  -11.9653 C   0  0  0  0  0  0  0  0  0  0  0  0
    3.8867   12.1699  -13.2529 C   0  0  0  0  0  0  0  0  0  0  0  0
    3.4420   11.0505  -13.9155 O   0  0  0  0  0  0  0  0  0  0  0  0
    2.1136   10.7566  -13.7329 C   0  0  0  0  0  0  0  0  0  0  0  0
    1.2824   11.9809  -13.4069 C   0  0  0  0  0  0  0  0  0  0  0  0
   -1.2219   16.2866  -14.0510 C   0  0  0  0  0  0  0  0  0  0  0  0
   -5.6601   21.2884  -10.1677 Cl  0  0  0  0  0  0  0  0  0  0  0  0
   -4.3223   20.2320  -10.6146 C   0  0  0  0  0  0  0  0  0  0  0  0
   -4.3226   19.5019  -11.7912 C   0  0  0  0  0  0  0  0  0  0  0  0
   -3.2985   18.6648  -12.1773 C   0  0  0  0  0  0  0  0  0  0  0  0
   -3.0501   17.8656  -13.2299 N   0  0  0  0  0  0  0  0  0  0  0  0
   -1.8586   17.2541  -13.0924 C   0  0  0  0  0  0  0  0  0  0  0  0
   -1.3621   17.6887  -11.9231 N   0  0  0  0  0  0  0  0  0  0  0  0
   -2.1999   18.5550  -11.3198 C   0  0  0  0  0  0  0  0  0  0  0  0
   -2.1865   19.2744  -10.1476 C   0  0  0  0  0  0  0  0  0  0  0  0
   -3.2158   20.1031   -9.7804 C   0  0  0  0  0  0  0  0  0  0  0  0
   -0.4390   17.3912  -11.5334 H   0  0  0  0  0  0  0  0  0  0  0  0
 15 16  1  0  0  0
 16 17  2  0  0  0
 16 24  1  0  0  0
 17 18  1  0  0  0
 18 19  1  0  0  0
 18 22  2  0  0  0
 19 20  2  0  0  0
 20 21  1  0  0  0
 20 14  1  0  0  0
 21 22  1  0  0  0
 22 23  1  0  0  0
 23 24  2  0  0  0
 14  1  1  0  0  0
  1  2  1  0  0  0
  2  3  2  0  0  0
  2  5  1  0  0  0
  5  6  1  0  0  0
  5  7  1  0  0  0
  5  8  1  0  0  0
  6  7  1  0  0  0
  8  9  1  0  0  0
  8 13  1  0  0  0
  9 10  1  0  0  0
 10 11  1  0  0  0
 11 12  1  0  0  0
 12 13  1  0  0  0
 21 25  1  0  0  0
  1  4  1  0  0  0
M  END
> <minimizedAffinity>
-9.53366

$$$$
1937


 31 34  0  0  0  0  0  0  0  0999 V2000
   -3.6780    7.4952  -14.3829 N   0  0  0  0  0  0  0  0  0  0  0  0
   -3.0208    6.4428  -15.0068 C   0  0  0  0  0  0  0  0  0  0  0  0
   -1.4973    6.8646  -15.1536 C   0  0  0  0  0  0  0  0  0  0  0  0
   -1.3504    7.7283  -14.0124 N   0  0  0  0  0  0  0  0  0  0  0  0
   -1.8575    9.0977  -14.3190 C   0  0  0  0  0  0  0  0  0  0  0  0
   -3.1975    8.8104  -14.9359 C   0  0  0  0  0  0  0  0  0  0  0  0
   -0.7509    7.3905  -12.8362 C   0  0  0  0  0  0  0  0  0  0  0  0
   -1.0909    8.0416  -11.7896 O   0  0  0  0  0  0  0  0  0  0  0  0
    0.2972    6.3476  -12.6031 C   0  0  0  0  0  0  0  0  0  0  0  0
    1.3299    6.6558  -13.5958 O   0  0  0  0  0  0  0  0  0  0  0  0
    1.4466    8.0661  -13.7649 C   0  0  0  0  0  0  0  0  0  0  0  0
    1.2511    8.8503  -12.6589 C   0  0  0  0  0  0  0  0  0  0  0  0
    1.3365   10.2367  -12.7267 C   0  0  0  0  0  0  0  0  0  0  0  0
    1.6316   10.7763  -13.9733 C   0  0  0  0  0  0  0  0  0  0  0  0
    1.8425   10.0162  -15.1026 C   0  0  0  0  0  0  0  0  0  0  0  0
    1.7514    8.6428  -14.9928 C   0  0  0  0  0  0  0  0  0  0  0  0
    0.9590    8.2414  -11.4333 O   0  0  0  0  0  0  0  0  0  0  0  0
    0.9893    6.7991  -11.2886 C   0  0  0  0  0  0  0  0  0  0  0  0
   -5.1159    7.5924  -14.3047 C   0  0  0  0  0  0  0  0  0  0  0  0
   -6.3658    9.7331  -14.6615 N   0  0  0  0  0  0  0  0  0  0  0  0
   -5.4378    9.0318  -13.8889 C   0  0  0  0  0  0  0  0  0  0  0  0
   -4.9040    9.5044  -12.9194 O   0  0  0  0  0  0  0  0  0  0  0  0
   -6.5791    9.2836  -15.6219 H   0  0  0  0  0  0  0  0  0  0  0  0
   -6.9580   10.9882  -14.3698 C   0  0  0  0  0  0  0  0  0  0  0  0
   -8.6203   13.1608  -13.2982 Cl  0  0  0  0  0  0  0  0  0  0  0  0
   -8.9847   12.3305  -14.7919 C   0  0  0  0  0  0  0  0  0  0  0  0
   -8.1988   11.2407  -15.1484 C   0  0  0  0  0  0  0  0  0  0  0  0
   -8.5503   10.5847  -16.2984 C   0  0  0  0  0  0  0  0  0  0  0  0
   -9.6300   11.0040  -17.0665 C   0  0  0  0  0  0  0  0  0  0  0  0
  -10.4294   12.1088  -16.7078 C   0  0  0  0  0  0  0  0  0  0  0  0
  -10.0469   12.7292  -15.5355 C   0  0  0  0  0  0  0  0  0  0  0  0
 25 26  1  0  0  0
 26 27  2  0  0  0
 26 31  1  0  0  0
 27 28  1  0  0  0
 27 24  1  0  0  0
 28 29  2  0  0  0
 29 30  1  0  0  0
 30 31  2  0  0  0
 24 20  1  0  0  0
 20 21  1  0  0  0
 21 22  2  0  0  0
 21 19  1  0  0  0
 19  1  1  0  0  0
  1  2  1  0  0  0
  1  6  1  0  0  0
  2  3  1  0  0  0
  3  4  1  0  0  0
  4  5  1  0  0  0
  4  7  1  0  0  0
  5  6  1  0  0  0
  7  8  2  0  0  0
  7  9  1  0  0  0
  9 10  1  0  0  0
  9 18  1  0  0  0
 10 11  1  0  0  0
 11 12  2  0  0  0
 11 16  1  0  0  0
 12 13  1  0  0  0
 12 17  1  0  0  0
 13 14  2  0  0  0
 14 15  1  0  0  0
 15 16  2  0  0  0
 17 18  1  0  0  0
 20 23  1  0  0  0
M  END
> <minimizedAffinity>
-9.15588

$$$$
1939


 28 31  0  0  0  0  0  0  0  0999 V2000
    1.6372    8.1516  -12.7320 N   0  0  0  0  0  0  0  0  0  0  0  0
    2.2476    6.9297  -12.6638 C   0  0  0  0  0  0  0  0  0  0  0  0
    3.4880    6.9955  -13.2364 C   0  0  0  0  0  0  0  0  0  0  0  0
    3.6002    8.2544  -13.6388 N   0  0  0  0  0  0  0  0  0  0  0  0
    2.4785    8.9874  -13.3427 C   0  0  0  0  0  0  0  0  0  0  0  0
    4.2936    5.9198  -13.3043 N   0  0  0  0  0  0  0  0  0  0  0  0
    3.8752    4.7314  -12.7954 C   0  0  0  0  0  0  0  0  0  0  0  0
    4.6582    3.7588  -12.8806 O   0  0  0  0  0  0  0  0  0  0  0  0
    2.6647    4.6165  -12.2229 N   0  0  0  0  0  0  0  0  0  0  0  0
    1.8699    5.6954  -12.1614 C   0  0  0  0  0  0  0  0  0  0  0  0
    0.7531    5.5367  -11.6209 O   0  0  0  0  0  0  0  0  0  0  0  0
    5.5951    6.0791  -13.9287 C   0  0  0  0  0  0  0  0  0  0  0  0
    2.3922    3.6840  -11.8483 H   0  0  0  0  0  0  0  0  0  0  0  0
    2.3530   10.3525  -13.6819 N   0  0  0  0  0  0  0  0  0  0  0  0
    1.0101   10.9128  -13.7515 C   0  0  0  0  0  0  0  0  0  0  0  0
    1.1940   12.3463  -13.2207 C   0  0  0  0  0  0  0  0  0  0  0  0
    2.2250   12.4109  -12.2091 N   0  0  0  0  0  0  0  0  0  0  0  0
    3.5552   12.1334  -12.7070 C   0  0  0  0  0  0  0  0  0  0  0  0
    3.3706   11.2966  -13.9644 C   0  0  0  0  0  0  0  0  0  0  0  0
    2.2237   13.3783  -11.8446 H   0  0  0  0  0  0  0  0  0  0  0  0
    0.3169    8.3895  -12.2113 C   0  0  0  0  0  0  0  0  0  0  0  0
   -4.3051    7.3510  -15.9360 Cl  0  0  0  0  0  0  0  0  0  0  0  0
   -2.9839    7.6720  -14.8342 C   0  0  0  0  0  0  0  0  0  0  0  0
   -1.9696    6.7661  -14.7481 C   0  0  0  0  0  0  0  0  0  0  0  0
   -0.8959    6.9863  -13.8798 C   0  0  0  0  0  0  0  0  0  0  0  0
   -0.8071    8.0877  -13.0939 C   0  0  0  0  0  0  0  0  0  0  0  0
   -1.8672    9.0003  -13.2074 C   0  0  0  0  0  0  0  0  0  0  0  0
   -2.9331    8.8042  -14.0539 C   0  0  0  0  0  0  0  0  0  0  0  0
 22 23  1  0  0  0
 23 24  2  0  0  0
 23 28  1  0  0  0
 24 25  1  0  0  0
 25 26  2  0  0  0
 26 27  1  0  0  0
 26 21  1  0  0  0
 27 28  2  0  0  0
 21  1  1  0  0  0
  1  2  1  0  0  0
  1  5  1  0  0  0
  2  3  2  0  0  0
  2 10  1  0  0  0
  3  4  1  0  0  0
  3  6  1  0  0  0
  4  5  2  0  0  0
  5 14  1  0  0  0
 14 15  1  0  0  0
 14 19  1  0  0  0
 15 16  1  0  0  0
 16 17  1  0  0  0
 17 18  1  0  0  0
 18 19  1  0  0  0
  6  7  1  0  0  0
  6 12  1  0  0  0
  7  8  2  0  0  0
  7  9  1  0  0  0
  9 10  1  0  0  0
 10 11  2  0  0  0
 17 20  1  0  0  0
  9 13  1  0  0  0
M  END
> <minimizedAffinity>
-8.04731

$$$$
1940


 30 33  0  0  0  0  0  0  0  0999 V2000
    2.1197    8.6381  -12.6179 C   0  0  0  0  0  0  0  0  0  0  0  0
    2.4603    9.7746  -13.4831 N   0  0  0  0  0  0  0  0  0  0  0  0
    2.1799    9.3412  -14.8016 C   0  0  0  0  0  0  0  0  0  0  0  0
    2.7428    9.7293  -15.8526 O   0  0  0  0  0  0  0  0  0  0  0  0
    1.0975    8.3439  -14.7040 C   0  0  0  0  0  0  0  0  0  0  0  0
    0.5508    7.7106  -15.6353 O   0  0  0  0  0  0  0  0  0  0  0  0
    0.8064    8.2556  -13.2799 C   0  0  0  0  0  0  0  0  0  0  0  0
   -0.3131    7.9374  -12.7291 C   0  0  0  0  0  0  0  0  0  0  0  0
   -0.4504    7.9081  -11.3424 O   0  0  0  0  0  0  0  0  0  0  0  0
    5.7657    3.9333  -13.5900 Cl  0  0  0  0  0  0  0  0  0  0  0  0
    4.7409    5.3235  -13.3349 C   0  0  0  0  0  0  0  0  0  0  0  0
    5.0965    6.5907  -13.7439 C   0  0  0  0  0  0  0  0  0  0  0  0
    4.2381    7.6469  -13.5080 C   0  0  0  0  0  0  0  0  0  0  0  0
    3.0294    7.4945  -12.8769 C   0  0  0  0  0  0  0  0  0  0  0  0
    2.6857    6.2051  -12.4696 C   0  0  0  0  0  0  0  0  0  0  0  0
    3.5372    5.1475  -12.7018 C   0  0  0  0  0  0  0  0  0  0  0  0
   -1.4751    7.5945  -13.5431 C   0  0  0  0  0  0  0  0  0  0  0  0
   -2.3743    8.3177  -14.1095 O   0  0  0  0  0  0  0  0  0  0  0  0
   -3.2374    7.5781  -14.7448 C   0  0  0  0  0  0  0  0  0  0  0  0
   -2.8964    6.2578  -14.5980 C   0  0  0  0  0  0  0  0  0  0  0  0
   -1.7669    6.2538  -13.8279 C   0  0  0  0  0  0  0  0  0  0  0  0
    2.9848   11.0607  -13.0463 C   0  0  0  0  0  0  0  0  0  0  0  0
    2.0611   12.2150  -13.2844 C   0  0  0  0  0  0  0  0  0  0  0  0
    1.5195   12.8362  -12.1248 N   0  0  0  0  0  0  0  0  0  0  0  0
    2.2543   13.9314  -11.5781 C   0  0  0  0  0  0  0  0  0  0  0  0
    2.3456   15.1246  -12.5018 C   0  0  0  0  0  0  0  0  0  0  0  0
    1.0784   15.5673  -12.8657 O   0  0  0  0  0  0  0  0  0  0  0  0
    0.2806   14.5345  -13.3471 C   0  0  0  0  0  0  0  0  0  0  0  0
    0.1698   13.3745  -12.3924 C   0  0  0  0  0  0  0  0  0  0  0  0
    1.4277   12.1127  -11.3784 H   0  0  0  0  0  0  0  0  0  0  0  0
 10 11  1  0  0  0
 11 12  2  0  0  0
 11 16  1  0  0  0
 12 13  1  0  0  0
 13 14  2  0  0  0
 14 15  1  0  0  0
 14  1  1  0  0  0
 15 16  2  0  0  0
  1  2  1  0  0  0
  1  7  1  0  0  0
  2  3  1  0  0  0
  2 22  1  0  0  0
  3  4  2  0  0  0
  3  5  1  0  0  0
  5  6  2  0  0  0
  5  7  1  0  0  0
  7  8  2  0  0  0
  8  9  1  0  0  0
  8 17  1  0  0  0
 17 18  1  0  0  0
 17 21  2  0  0  0
 18 19  1  0  0  0
 19 20  2  0  0  0
 20 21  1  0  0  0
 22 23  1  0  0  0
 23 24  1  0  0  0
 24 25  1  0  0  0
 24 29  1  0  0  0
 25 26  1  0  0  0
 26 27  1  0  0  0
 27 28  1  0  0  0
 28 29  1  0  0  0
 24 30  1  0  0  0
M  CHG 1   9  -1
M  CHG 1  24   1
M  END
> <minimizedAffinity>
-6.99568

$$$$
1941


 22 25  0  0  0  0  0  0  0  0999 V2000
    6.0998    5.8807  -13.1158 N   0  0  0  0  0  0  0  0  0  0  0  0
    7.2983    6.3644  -12.4923 C   0  0  0  0  0  0  0  0  0  0  0  0
    7.6362    7.5973  -12.5467 O   0  0  0  0  0  0  0  0  0  0  0  0
    7.9953    5.2469  -11.8354 C   0  0  0  0  0  0  0  0  0  0  0  0
    7.4199    4.0351  -12.5280 C   0  0  0  0  0  0  0  0  0  0  0  0
    8.5265    3.3256  -13.2778 C   0  0  0  0  0  0  0  0  0  0  0  0
    9.4592    2.7668  -12.1931 C   0  0  0  0  0  0  0  0  0  0  0  0
   10.0241    3.9723  -11.4985 C   0  0  0  0  0  0  0  0  0  0  0  0
   10.8610    3.8485  -10.6455 O   0  0  0  0  0  0  0  0  0  0  0  0
    9.4813    5.3060  -11.9332 C   0  0  0  0  0  0  0  0  0  0  0  0
    9.9150    5.4664  -13.3947 C   0  0  0  0  0  0  0  0  0  0  0  0
    9.3397    4.2761  -14.1124 C   0  0  0  0  0  0  0  0  0  0  0  0
    9.5420    4.1274  -15.2861 O   0  0  0  0  0  0  0  0  0  0  0  0
    6.3224    4.5013  -13.3738 C   0  0  0  0  0  0  0  0  0  0  0  0
    5.6836    3.8003  -14.1906 O   0  0  0  0  0  0  0  0  0  0  0  0
    1.0357    8.8785  -14.2999 Cl  0  0  0  0  0  0  0  0  0  0  0  0
    2.5252    8.0052  -13.9599 C   0  0  0  0  0  0  0  0  0  0  0  0
    2.5506    6.9515  -13.0798 C   0  0  0  0  0  0  0  0  0  0  0  0
    3.7198    6.2737  -12.8190 C   0  0  0  0  0  0  0  0  0  0  0  0
    4.9178    6.6117  -13.4203 C   0  0  0  0  0  0  0  0  0  0  0  0
    4.8721    7.6703  -14.3002 C   0  0  0  0  0  0  0  0  0  0  0  0
    3.7144    8.3612  -14.5745 C   0  0  0  0  0  0  0  0  0  0  0  0
 16 17  1  0  0  0
 17 18  2  0  0  0
 17 22  1  0  0  0
 18 19  1  0  0  0
 19 20  2  0  0  0
 20 21  1  0  0  0
 20  1  1  0  0  0
 21 22  2  0  0  0
  1  2  1  0  0  0
  1 14  1  0  0  0
  2  3  2  0  0  0
  2  4  1  0  0  0
  4  5  1  0  0  0
  4 10  1  0  0  0
  5  6  1  0  0  0
  5 14  1  0  0  0
  6  7  1  0  0  0
  6 12  1  0  0  0
  7  8  1  0  0  0
  8  9  2  0  0  0
  8 10  1  0  0  0
 10 11  1  0  0  0
 11 12  1  0  0  0
 12 13  2  0  0  0
 14 15  2  0  0  0
M  END
> <minimizedAffinity>
-6.80519

$$$$
1943


 34 38  0  0  0  0  0  0  0  0999 V2000
    0.7417   11.1988  -13.4996 N   0  0  0  0  0  0  0  0  0  0  0  0
   -0.6652   10.8941  -13.6177 C   0  0  0  0  0  0  0  0  0  0  0  0
   -1.5956   11.6876  -13.4487 O   0  0  0  0  0  0  0  0  0  0  0  0
   -0.8324    9.4798  -13.9770 C   0  0  0  0  0  0  0  0  0  0  0  0
   -1.8581    8.7178  -13.1721 C   0  0  0  0  0  0  0  0  0  0  0  0
   -1.1771    8.1056  -12.0567 N   0  0  0  0  0  0  0  0  0  0  0  0
    0.1296    8.7289  -11.9873 C   0  0  0  0  0  0  0  0  0  0  0  0
    0.4562    8.8853  -13.4588 C   0  0  0  0  0  0  0  0  0  0  0  0
    1.4277    9.9587  -13.7387 C   0  0  0  0  0  0  0  0  0  0  0  0
    2.5883    9.7592  -14.1063 O   0  0  0  0  0  0  0  0  0  0  0  0
   -2.4026    7.6857  -14.1211 C   0  0  0  0  0  0  0  0  0  0  0  0
   -3.6918    8.0317  -14.4117 C   0  0  0  0  0  0  0  0  0  0  0  0
   -4.4658    7.2980  -15.3244 C   0  0  0  0  0  0  0  0  0  0  0  0
   -3.9316    6.1930  -15.9538 C   0  0  0  0  0  0  0  0  0  0  0  0
   -2.6406    5.8436  -15.6610 C   0  0  0  0  0  0  0  0  0  0  0  0
   -1.8928    6.5759  -14.7626 C   0  0  0  0  0  0  0  0  0  0  0  0
   -4.1138    9.1324  -13.6226 N   0  0  0  0  0  0  0  0  0  0  0  0
   -3.0234    9.4875  -12.7861 C   0  0  0  0  0  0  0  0  0  0  0  0
   -3.1078   10.3346  -11.8720 O   0  0  0  0  0  0  0  0  0  0  0  0
   -1.7413    8.2978  -11.1952 H   0  0  0  0  0  0  0  0  0  0  0  0
   -5.0695    9.6033  -13.6514 H   0  0  0  0  0  0  0  0  0  0  0  0
    3.3034   16.4640  -12.3480 Cl  0  0  0  0  0  0  0  0  0  0  0  0
    2.5453   14.9164  -12.6788 C   0  0  0  0  0  0  0  0  0  0  0  0
    3.3185   13.7858  -12.7844 C   0  0  0  0  0  0  0  0  0  0  0  0
    2.7074   12.5669  -13.0548 C   0  0  0  0  0  0  0  0  0  0  0  0
    1.3576   12.4242  -13.2238 C   0  0  0  0  0  0  0  0  0  0  0  0
    0.6104   13.5713  -13.1112 C   0  0  0  0  0  0  0  0  0  0  0  0
    1.1980   14.8113  -12.8400 C   0  0  0  0  0  0  0  0  0  0  0  0
    1.1425    7.8572  -11.2922 C   0  0  0  0  0  0  0  0  0  0  0  0
    1.3105    6.5371  -11.8920 C   0  0  0  0  0  0  0  0  0  0  0  0
    0.3786    5.7105  -11.8763 O   0  0  0  0  0  0  0  0  0  0  0  0
    2.5397    6.1867  -12.4974 N   0  0  0  0  0  0  0  0  0  0  0  0
    3.3920    6.7975  -12.5034 H   0  0  0  0  0  0  0  0  0  0  0  0
    2.6913    5.2623  -12.9972 H   0  0  0  0  0  0  0  0  0  0  0  0
 22 23  1  0  0  0
 23 24  2  0  0  0
 23 28  1  0  0  0
 24 25  1  0  0  0
 25 26  2  0  0  0
 26 27  1  0  0  0
 26  1  1  0  0  0
 27 28  2  0  0  0
  1  2  1  0  0  0
  1  9  1  0  0  0
  2  3  2  0  0  0
  2  4  1  0  0  0
  4  5  1  0  0  0
  4  8  1  0  0  0
  5  6  1  0  0  0
  5 11  1  0  0  0
  5 18  1  0  0  0
  6  7  1  0  0  0
  7  8  1  0  0  0
  7 29  1  0  0  0
  8  9  1  0  0  0
  9 10  2  0  0  0
 29 30  1  0  0  0
 30 31  2  0  0  0
 30 32  1  0  0  0
 11 12  1  0  0  0
 11 16  2  0  0  0
 12 13  2  0  0  0
 12 17  1  0  0  0
 13 14  1  0  0  0
 14 15  2  0  0  0
 15 16  1  0  0  0
 17 18  1  0  0  0
 18 19  2  0  0  0
  6 20  1  0  0  0
 32 33  1  0  0  0
 32 34  1  0  0  0
 17 21  1  0  0  0
M  END
> <minimizedAffinity>
-5.88466

$$$$
1945


 24 27  0  0  0  0  0  0  0  0999 V2000
   -2.1012   11.3676  -13.6649 Cl  0  0  0  0  0  0  0  0  0  0  0  0
   -0.9752   10.0451  -13.4326 C   0  0  0  0  0  0  0  0  0  0  0  0
    0.3726   10.1891  -13.6699 C   0  0  0  0  0  0  0  0  0  0  0  0
    1.2598    9.1259  -13.4814 C   0  0  0  0  0  0  0  0  0  0  0  0
    0.7469    7.9133  -13.0452 C   0  0  0  0  0  0  0  0  0  0  0  0
   -0.5967    7.7540  -12.8036 C   0  0  0  0  0  0  0  0  0  0  0  0
   -1.4571    8.8048  -12.9940 C   0  0  0  0  0  0  0  0  0  0  0  0
    1.6447    6.7641  -12.8313 C   0  0  0  0  0  0  0  0  0  0  0  0
    1.4364    5.5535  -12.4392 N   0  0  0  0  0  0  0  0  0  0  0  0
    2.6449    4.7777  -12.3813 C   0  0  0  0  0  0  0  0  0  0  0  0
    3.7145    5.7298  -12.8191 C   0  0  0  0  0  0  0  0  0  0  0  0
    3.0213    6.9614  -13.0877 N   0  0  0  0  0  0  0  0  0  0  0  0
    3.5166    8.2173  -13.5340 C   0  0  0  0  0  0  0  0  0  0  0  0
    4.7425    8.4145  -13.7674 O   0  0  0  0  0  0  0  0  0  0  0  0
    2.6418    9.3409  -13.7434 N   0  0  0  0  0  0  0  0  0  0  0  0
    3.1717   10.6180  -14.2006 C   0  0  0  0  0  0  0  0  0  0  0  0
    3.4753   11.5104  -13.0587 C   0  0  0  0  0  0  0  0  0  0  0  0
    4.4924   11.2615  -12.3666 O   0  0  0  0  0  0  0  0  0  0  0  0
    2.6756   12.6264  -12.7145 N   0  0  0  0  0  0  0  0  0  0  0  0
    1.8369   12.8199  -13.2984 H   0  0  0  0  0  0  0  0  0  0  0  0
    2.9943   13.4810  -11.5964 C   0  0  0  0  0  0  0  0  0  0  0  0
    1.8420   14.4068  -11.3095 C   0  0  0  0  0  0  0  0  0  0  0  0
    0.8657   14.7157  -12.3887 C   0  0  0  0  0  0  0  0  0  0  0  0
    1.8559   15.7428  -11.9911 C   0  0  0  0  0  0  0  0  0  0  0  0
  1  2  1  0  0  0
  2  3  2  0  0  0
  2  7  1  0  0  0
  3  4  1  0  0  0
  4  5  2  0  0  0
  4 15  1  0  0  0
  5  6  1  0  0  0
  5  8  1  0  0  0
  6  7  2  0  0  0
  8  9  2  0  0  0
  8 12  1  0  0  0
  9 10  1  0  0  0
 10 11  1  0  0  0
 11 12  1  0  0  0
 12 13  1  0  0  0
 13 14  2  0  0  0
 13 15  1  0  0  0
 15 16  1  0  0  0
 16 17  1  0  0  0
 17 18  2  0  0  0
 17 19  1  0  0  0
 19 21  1  0  0  0
 21 22  1  0  0  0
 22 23  1  0  0  0
 22 24  1  0  0  0
 23 24  1  0  0  0
 19 20  1  0  0  0
M  END
> <minimizedAffinity>
-7.81906

$$$$
1956


 35 38  0  0  0  0  0  0  0  0999 V2000
    2.2216    9.8573  -12.1230 C   0  0  0  0  0  0  0  0  0  0  0  0
    2.9128    9.0482  -12.9083 C   0  0  0  0  0  0  0  0  0  0  0  0
    2.9517    7.5449  -12.7955 C   0  0  0  0  0  0  0  0  0  0  0  0
    4.0500    7.1270  -13.6181 N   0  0  0  0  0  0  0  0  0  0  0  0
    4.5083    8.2006  -14.4268 C   0  0  0  0  0  0  0  0  0  0  0  0
    5.3474    8.1440  -15.3376 O   0  0  0  0  0  0  0  0  0  0  0  0
    3.7893    9.4144  -13.9748 C   0  0  0  0  0  0  0  0  0  0  0  0
    3.9514   10.5556  -14.4675 O   0  0  0  0  0  0  0  0  0  0  0  0
    1.4709    9.2344  -11.0977 O   0  0  0  0  0  0  0  0  0  0  0  0
    2.2595   15.8676  -12.5734 Cl  0  0  0  0  0  0  0  0  0  0  0  0
    2.2787   14.1241  -12.4380 C   0  0  0  0  0  0  0  0  0  0  0  0
    3.2542   13.4376  -11.7553 C   0  0  0  0  0  0  0  0  0  0  0  0
    3.2231   12.0607  -11.6790 C   0  0  0  0  0  0  0  0  0  0  0  0
    2.2159   11.2945  -12.2817 C   0  0  0  0  0  0  0  0  0  0  0  0
    1.2532   12.0080  -12.9556 C   0  0  0  0  0  0  0  0  0  0  0  0
    1.2818   13.4068  -13.0353 C   0  0  0  0  0  0  0  0  0  0  0  0
    1.6288    7.0528  -13.2674 C   0  0  0  0  0  0  0  0  0  0  0  0
    1.0396    5.9837  -12.6561 C   0  0  0  0  0  0  0  0  0  0  0  0
   -0.1804    5.5469  -13.0872 C   0  0  0  0  0  0  0  0  0  0  0  0
   -0.8428    6.1565  -14.1306 C   0  0  0  0  0  0  0  0  0  0  0  0
   -0.2475    7.2390  -14.7514 C   0  0  0  0  0  0  0  0  0  0  0  0
    0.9913    7.6789  -14.3091 C   0  0  0  0  0  0  0  0  0  0  0  0
   -2.0850    5.7051  -14.5641 O   0  0  0  0  0  0  0  0  0  0  0  0
   -2.7912    6.4947  -15.5320 C   0  0  0  0  0  0  0  0  0  0  0  0
   -4.0678    7.0307  -14.8887 C   0  0  0  0  0  0  0  0  0  0  0  0
   -3.8442    8.5138  -14.6295 C   0  0  0  0  0  0  0  0  0  0  0  0
    4.6363    5.7907  -13.6225 C   0  0  0  0  0  0  0  0  0  0  0  0
    5.8585    5.7747  -12.7707 C   0  0  0  0  0  0  0  0  0  0  0  0
    7.0826    5.8778  -13.5821 N   0  0  0  0  0  0  0  0  0  0  0  0
    7.7520    4.6146  -13.5337 C   0  0  0  0  0  0  0  0  0  0  0  0
    9.2022    4.7204  -13.9997 C   0  0  0  0  0  0  0  0  0  0  0  0
    9.8134    5.6697  -13.1609 O   0  0  0  0  0  0  0  0  0  0  0  0
    9.2909    6.9027  -13.4910 C   0  0  0  0  0  0  0  0  0  0  0  0
    7.8509    6.9687  -13.0233 C   0  0  0  0  0  0  0  0  0  0  0  0
    6.8412    6.1042  -14.5821 H   0  0  0  0  0  0  0  0  0  0  0  0
 10 11  1  0  0  0
 11 12  2  0  0  0
 11 16  1  0  0  0
 12 13  1  0  0  0
 13 14  2  0  0  0
 14 15  1  0  0  0
 14  1  1  0  0  0
 15 16  2  0  0  0
  1  2  2  0  0  0
  1  9  1  0  0  0
  2  3  1  0  0  0
  2  7  1  0  0  0
  3  4  1  0  0  0
  3 17  1  0  0  0
  4  5  1  0  0  0
  4 27  1  0  0  0
  5  6  2  0  0  0
  5  7  1  0  0  0
  7  8  2  0  0  0
 27 28  1  0  0  0
 28 29  1  0  0  0
 29 30  1  0  0  0
 29 34  1  0  0  0
 30 31  1  0  0  0
 31 32  1  0  0  0
 32 33  1  0  0  0
 33 34  1  0  0  0
 17 18  2  0  0  0
 17 22  1  0  0  0
 18 19  1  0  0  0
 19 20  2  0  0  0
 20 21  1  0  0  0
 20 23  1  0  0  0
 21 22  2  0  0  0
 23 24  1  0  0  0
 24 25  1  0  0  0
 25 26  1  0  0  0
 29 35  1  0  0  0
M  CHG 1   9  -1
M  CHG 1  29   1
M  END
> <minimizedAffinity>
-7.06540

$$$$
1957


 36 40  0  0  0  0  0  0  0  0999 V2000
   -0.2362    8.3749  -14.2034 C   0  0  0  0  0  0  0  0  0  0  0  0
    0.9661    7.6248  -14.5435 N   0  0  0  0  0  0  0  0  0  0  0  0
    2.0855    8.3555  -13.9834 C   0  0  0  0  0  0  0  0  0  0  0  0
    1.4979    8.9464  -12.7344 C   0  0  0  0  0  0  0  0  0  0  0  0
    0.0888    9.2996  -13.0913 C   0  0  0  0  0  0  0  0  0  0  0  0
    0.1181   10.7302  -13.5024 C   0  0  0  0  0  0  0  0  0  0  0  0
   -0.7834   11.3507  -14.1145 O   0  0  0  0  0  0  0  0  0  0  0  0
    1.3873   11.2564  -13.0559 N   0  0  0  0  0  0  0  0  0  0  0  0
    2.0737   10.2459  -12.3468 C   0  0  0  0  0  0  0  0  0  0  0  0
    3.0121   10.3985  -11.5271 O   0  0  0  0  0  0  0  0  0  0  0  0
    3.2346    7.4676  -13.6814 C   0  0  0  0  0  0  0  0  0  0  0  0
    4.2821    7.8990  -14.4602 C   0  0  0  0  0  0  0  0  0  0  0  0
    5.4993    7.2372  -14.3729 C   0  0  0  0  0  0  0  0  0  0  0  0
    5.6249    6.1724  -13.5123 C   0  0  0  0  0  0  0  0  0  0  0  0
    4.5765    5.7310  -12.7231 C   0  0  0  0  0  0  0  0  0  0  0  0
    3.3727    6.3969  -12.8206 C   0  0  0  0  0  0  0  0  0  0  0  0
    3.8932    9.0211  -15.2732 N   0  0  0  0  0  0  0  0  0  0  0  0
    2.5357    9.3040  -14.9868 C   0  0  0  0  0  0  0  0  0  0  0  0
    1.8895   10.2151  -15.5293 O   0  0  0  0  0  0  0  0  0  0  0  0
    1.0484    7.5148  -15.5599 H   0  0  0  0  0  0  0  0  0  0  0  0
    4.5451    9.4987  -15.9365 H   0  0  0  0  0  0  0  0  0  0  0  0
   -1.2825    7.3442  -13.8740 C   0  0  0  0  0  0  0  0  0  0  0  0
   -1.0326    6.1058  -14.4055 O   0  0  0  0  0  0  0  0  0  0  0  0
   -0.2458    5.7239  -13.9388 H   0  0  0  0  0  0  0  0  0  0  0  0
   -6.9020    9.1184  -15.3260 Cl  0  0  0  0  0  0  0  0  0  0  0  0
   -5.2733    8.6125  -14.9091 C   0  0  0  0  0  0  0  0  0  0  0  0
   -4.4116    9.4249  -14.1981 C   0  0  0  0  0  0  0  0  0  0  0  0
   -3.1421    9.0203  -13.8779 C   0  0  0  0  0  0  0  0  0  0  0  0
   -2.6600    7.7677  -14.2546 C   0  0  0  0  0  0  0  0  0  0  0  0
   -3.5077    6.9504  -14.9614 C   0  0  0  0  0  0  0  0  0  0  0  0
   -4.7762    7.3803  -15.2700 C   0  0  0  0  0  0  0  0  0  0  0  0
    1.8649   12.5839  -13.3088 C   0  0  0  0  0  0  0  0  0  0  0  0
    1.3580   13.6415  -12.4018 C   0  0  0  0  0  0  0  0  0  0  0  0
    2.2579   14.0629  -11.2938 C   0  0  0  0  0  0  0  0  0  0  0  0
    2.0762   15.3848  -10.9090 O   0  0  0  0  0  0  0  0  0  0  0  0
    1.1283   15.9919  -11.7593 C   0  0  0  0  0  0  0  0  0  0  0  0
 25 26  1  0  0  0
 26 27  2  0  0  0
 26 31  1  0  0  0
 27 28  1  0  0  0
 28 29  2  0  0  0
 29 30  1  0  0  0
 29 22  1  0  0  0
 30 31  2  0  0  0
 22 23  1  0  0  0
 22  1  1  0  0  0
  1  2  1  0  0  0
  1  5  1  0  0  0
  2  3  1  0  0  0
  3  4  1  0  0  0
  3 11  1  0  0  0
  3 18  1  0  0  0
  4  5  1  0  0  0
  4  9  1  0  0  0
  5  6  1  0  0  0
  6  7  2  0  0  0
  6  8  1  0  0  0
  8  9  1  0  0  0
  8 32  1  0  0  0
  9 10  2  0  0  0
 32 33  1  0  0  0
 33 34  1  0  0  0
 34 35  1  0  0  0
 35 36  1  0  0  0
 11 12  1  0  0  0
 11 16  2  0  0  0
 12 13  2  0  0  0
 12 17  1  0  0  0
 13 14  1  0  0  0
 14 15  2  0  0  0
 15 16  1  0  0  0
 17 18  1  0  0  0
 18 19  2  0  0  0
 23 24  1  0  0  0
  2 20  1  0  0  0
 17 21  1  0  0  0
M  END
> <minimizedAffinity>
-8.41044

$$$$
1958


 28 31  0  0  0  0  0  0  0  0999 V2000
    3.3292   11.5780  -12.8844 C   0  0  0  0  0  0  0  0  0  0  0  0
    4.4405   12.1052  -13.2373 O   0  0  0  0  0  0  0  0  0  0  0  0
    2.8272   10.4245  -13.5037 N   0  0  0  0  0  0  0  0  0  0  0  0
    1.5875    9.8307  -13.1147 C   0  0  0  0  0  0  0  0  0  0  0  0
    1.4959    8.3547  -13.3820 C   0  0  0  0  0  0  0  0  0  0  0  0
    2.8529    7.7588  -13.4289 C   0  0  0  0  0  0  0  0  0  0  0  0
    3.9053    8.4418  -14.0097 C   0  0  0  0  0  0  0  0  0  0  0  0
    5.1318    7.9102  -14.0625 N   0  0  0  0  0  0  0  0  0  0  0  0
    5.4214    6.6912  -13.5599 C   0  0  0  0  0  0  0  0  0  0  0  0
    4.3933    6.0182  -12.9894 N   0  0  0  0  0  0  0  0  0  0  0  0
    3.1447    6.5097  -12.9127 C   0  0  0  0  0  0  0  0  0  0  0  0
    2.1139    5.7937  -12.3213 O   0  0  0  0  0  0  0  0  0  0  0  0
    3.5752    9.8077  -14.5637 C   0  0  0  0  0  0  0  0  0  0  0  0
    2.1041    5.5798  -11.3206 H   0  0  0  0  0  0  0  0  0  0  0  0
    6.7277    6.1790  -13.6385 N   0  0  0  0  0  0  0  0  0  0  0  0
    7.0375    4.8819  -13.1149 C   0  0  0  0  0  0  0  0  0  0  0  0
    8.3017    4.4130  -13.8496 C   0  0  0  0  0  0  0  0  0  0  0  0
    9.3632    5.2434  -13.5901 O   0  0  0  0  0  0  0  0  0  0  0  0
    9.1206    6.5856  -13.7012 C   0  0  0  0  0  0  0  0  0  0  0  0
    7.7683    6.9544  -14.2457 C   0  0  0  0  0  0  0  0  0  0  0  0
    2.5897   12.2578  -11.7728 C   0  0  0  0  0  0  0  0  0  0  0  0
   -0.9912   16.6360  -13.8681 Cl  0  0  0  0  0  0  0  0  0  0  0  0
    0.0400   15.3582  -13.2626 C   0  0  0  0  0  0  0  0  0  0  0  0
   -0.3868   14.0343  -13.2800 C   0  0  0  0  0  0  0  0  0  0  0  0
    0.4347   13.0373  -12.8004 C   0  0  0  0  0  0  0  0  0  0  0  0
    1.6882   13.2992  -12.2906 C   0  0  0  0  0  0  0  0  0  0  0  0
    2.1181   14.6080  -12.2701 C   0  0  0  0  0  0  0  0  0  0  0  0
    1.2990   15.6054  -12.7495 C   0  0  0  0  0  0  0  0  0  0  0  0
 22 23  1  0  0  0
 23 24  2  0  0  0
 23 28  1  0  0  0
 24 25  1  0  0  0
 25 26  2  0  0  0
 26 27  1  0  0  0
 26 21  1  0  0  0
 27 28  2  0  0  0
 21  1  1  0  0  0
  1  2  2  0  0  0
  1  3  1  0  0  0
  3  4  1  0  0  0
  3 13  1  0  0  0
  4  5  1  0  0  0
  5  6  1  0  0  0
  6  7  2  0  0  0
  6 11  1  0  0  0
  7  8  1  0  0  0
  7 13  1  0  0  0
  8  9  2  0  0  0
  9 10  1  0  0  0
  9 15  1  0  0  0
 10 11  2  0  0  0
 11 12  1  0  0  0
 15 16  1  0  0  0
 15 20  1  0  0  0
 16 17  1  0  0  0
 17 18  1  0  0  0
 18 19  1  0  0  0
 19 20  1  0  0  0
 12 14  1  0  0  0
M  END
> <minimizedAffinity>
-8.58521

$$$$
1960


 28 31  0  0  0  0  0  0  0  0999 V2000
    0.4564    8.1227  -12.9969 C   0  0  0  0  0  0  0  0  0  0  0  0
    0.3933    7.9602  -11.7497 O   0  0  0  0  0  0  0  0  0  0  0  0
    1.4040    9.0217  -13.5113 N   0  0  0  0  0  0  0  0  0  0  0  0
    2.3094    9.7658  -12.6181 C   0  0  0  0  0  0  0  0  0  0  0  0
    3.6701    9.8542  -13.2921 C   0  0  0  0  0  0  0  0  0  0  0  0
    3.7782    8.7013  -14.1635 N   0  0  0  0  0  0  0  0  0  0  0  0
    2.9604    8.7499  -15.3635 C   0  0  0  0  0  0  0  0  0  0  0  0
    1.5933    9.3041  -14.9272 C   0  0  0  0  0  0  0  0  0  0  0  0
    4.6144    7.5979  -13.8527 C   0  0  0  0  0  0  0  0  0  0  0  0
    4.0563    6.3869  -13.4865 C   0  0  0  0  0  0  0  0  0  0  0  0
    4.8837    5.3455  -13.1801 N   0  0  0  0  0  0  0  0  0  0  0  0
    6.1986    5.4393  -13.2155 N   0  0  0  0  0  0  0  0  0  0  0  0
    6.8181    6.6075  -13.5696 C   0  0  0  0  0  0  0  0  0  0  0  0
    5.9884    7.6438  -13.8746 C   0  0  0  0  0  0  0  0  0  0  0  0
    8.2301    6.6389  -13.5839 N   0  0  0  0  0  0  0  0  0  0  0  0
    8.9679    6.4679  -14.8216 C   0  0  0  0  0  0  0  0  0  0  0  0
   10.1418    5.5094  -14.6163 C   0  0  0  0  0  0  0  0  0  0  0  0
   10.8604    5.8209  -13.4793 O   0  0  0  0  0  0  0  0  0  0  0  0
   10.0221    5.6660  -12.3859 C   0  0  0  0  0  0  0  0  0  0  0  0
    9.0177    6.8322  -12.3938 C   0  0  0  0  0  0  0  0  0  0  0  0
   -0.4797    7.3467  -13.8323 C   0  0  0  0  0  0  0  0  0  0  0  0
   -5.8784    9.9889  -14.3340 Cl  0  0  0  0  0  0  0  0  0  0  0  0
   -4.3203    9.2356  -14.1858 C   0  0  0  0  0  0  0  0  0  0  0  0
   -4.0940    7.9562  -14.6962 C   0  0  0  0  0  0  0  0  0  0  0  0
   -2.8511    7.3625  -14.5743 C   0  0  0  0  0  0  0  0  0  0  0  0
   -1.7999    8.0227  -13.9432 C   0  0  0  0  0  0  0  0  0  0  0  0
   -2.0172    9.2760  -13.4415 C   0  0  0  0  0  0  0  0  0  0  0  0
   -3.2713    9.8734  -13.5661 C   0  0  0  0  0  0  0  0  0  0  0  0
 22 23  1  0  0  0
 23 24  2  0  0  0
 23 28  1  0  0  0
 24 25  1  0  0  0
 25 26  2  0  0  0
 26 27  1  0  0  0
 26 21  1  0  0  0
 27 28  2  0  0  0
 21  1  1  0  0  0
  1  2  2  0  0  0
  1  3  1  0  0  0
  3  4  1  0  0  0
  3  8  1  0  0  0
  4  5  1  0  0  0
  5  6  1  0  0  0
  6  7  1  0  0  0
  6  9  1  0  0  0
  7  8  1  0  0  0
  9 10  2  0  0  0
  9 14  1  0  0  0
 10 11  1  0  0  0
 11 12  2  0  0  0
 12 13  1  0  0  0
 13 14  2  0  0  0
 13 15  1  0  0  0
 15 16  1  0  0  0
 15 20  1  0  0  0
 16 17  1  0  0  0
 17 18  1  0  0  0
 18 19  1  0  0  0
 19 20  1  0  0  0
M  END
> <minimizedAffinity>
-8.98728

$$$$
1966


 27 30  0  0  0  0  0  0  0  0999 V2000
   -6.4415   10.3173  -13.4775 C   0  0  0  0  0  0  0  0  0  0  0  0
   -6.8668   10.2327  -12.2602 O   0  0  0  0  0  0  0  0  0  0  0  0
   -5.1848    9.9434  -13.8820 N   0  0  0  0  0  0  0  0  0  0  0  0
   -4.8624    9.5891  -12.6015 H   0  0  0  0  0  0  0  0  0  0  0  0
   -8.1255   12.9439  -13.2233 F   0  0  0  0  0  0  0  0  0  0  0  0
   -8.2235   12.0313  -14.2207 C   0  0  0  0  0  0  0  0  0  0  0  0
   -9.1069   12.1781  -15.2550 N   0  0  0  0  0  0  0  0  0  0  0  0
   -8.9253   11.0984  -16.0319 C   0  0  0  0  0  0  0  0  0  0  0  0
   -7.9704   10.3202  -15.4969 N   0  0  0  0  0  0  0  0  0  0  0  0
   -7.5041   10.8709  -14.3591 C   0  0  0  0  0  0  0  0  0  0  0  0
   -9.7041   10.9967  -17.1587 C   0  0  0  0  0  0  0  0  0  0  0  0
  -10.6513   11.9621  -17.5051 C   0  0  0  0  0  0  0  0  0  0  0  0
  -10.8076   13.0498  -16.6882 C   0  0  0  0  0  0  0  0  0  0  0  0
  -10.0079   13.1286  -15.5536 C   0  0  0  0  0  0  0  0  0  0  0  0
  -11.9814   14.3103  -17.0668 Cl  0  0  0  0  0  0  0  0  0  0  0  0
   -3.9352    9.5726  -14.2837 C   0  0  0  0  0  0  0  0  0  0  0  0
   -3.8345    8.2152  -14.9331 C   0  0  0  0  0  0  0  0  0  0  0  0
   -2.8315    7.3478  -14.7759 N   0  0  0  0  0  0  0  0  0  0  0  0
   -3.1076    6.2766  -15.5001 N   0  0  0  0  0  0  0  0  0  0  0  0
   -4.2597    6.4345  -16.1152 N   0  0  0  0  0  0  0  0  0  0  0  0
   -4.7038    7.6398  -15.7578 N   0  0  0  0  0  0  0  0  0  0  0  0
   -1.7031    7.6118  -13.9402 C   0  0  0  0  0  0  0  0  0  0  0  0
   -1.0878    6.5344  -13.3116 C   0  0  0  0  0  0  0  0  0  0  0  0
    0.0028    6.7245  -12.4718 C   0  0  0  0  0  0  0  0  0  0  0  0
    0.5092    7.9863  -12.2342 C   0  0  0  0  0  0  0  0  0  0  0  0
   -0.1054    9.0492  -12.8611 C   0  0  0  0  0  0  0  0  0  0  0  0
   -1.1918    8.8636  -13.6972 C   0  0  0  0  0  0  0  0  0  0  0  0
  5  6  1  0  0  0
  6  7  1  0  0  0
  6 10  2  0  0  0
  7  8  1  0  0  0
  7 14  1  0  0  0
  8  9  2  0  0  0
  8 11  1  0  0  0
  9 10  1  0  0  0
 10  1  1  0  0  0
  1  2  2  0  0  0
  1  3  1  0  0  0
  3 16  1  0  0  0
 16 17  1  0  0  0
 17 18  1  0  0  0
 17 21  2  0  0  0
 18 19  1  0  0  0
 18 22  1  0  0  0
 19 20  2  0  0  0
 20 21  1  0  0  0
 22 23  2  0  0  0
 22 27  1  0  0  0
 23 24  1  0  0  0
 24 25  2  0  0  0
 25 26  1  0  0  0
 26 27  2  0  0  0
 11 12  2  0  0  0
 12 13  1  0  0  0
 13 14  2  0  0  0
 13 15  1  0  0  0
  3  4  1  0  0  0
M  END
> <minimizedAffinity>
-10.82330

$$$$
1969


 26 29  0  0  0  0  0  0  0  0999 V2000
   -6.7671   22.9547   -8.2009 C   0  0  0  0  0  0  0  0  0  0  0  0
   -5.5047   23.5310   -8.3008 O   0  0  0  0  0  0  0  0  0  0  0  0
   -7.3943   23.3492   -7.0671 N   0  0  0  0  0  0  0  0  0  0  0  0
   -8.7186   23.1122   -6.5738 C   0  0  0  0  0  0  0  0  0  0  0  0
   -9.1190   24.2574   -5.6209 C   0  0  0  0  0  0  0  0  0  0  0  0
   -8.4321   25.4319   -6.1767 N   0  0  0  0  0  0  0  0  0  0  0  0
   -7.0158   25.5240   -6.0466 C   0  0  0  0  0  0  0  0  0  0  0  0
   -6.5313   24.1110   -6.1085 C   0  0  0  0  0  0  0  0  0  0  0  0
   -9.1551   26.3629   -6.9136 C   0  0  0  0  0  0  0  0  0  0  0  0
  -10.5547   26.3561   -6.9075 N   0  0  0  0  0  0  0  0  0  0  0  0
  -11.3174   27.1843   -7.5298 C   0  0  0  0  0  0  0  0  0  0  0  0
  -10.7974   28.2334   -8.3037 C   0  0  0  0  0  0  0  0  0  0  0  0
   -9.4088   28.2443   -8.3215 C   0  0  0  0  0  0  0  0  0  0  0  0
   -8.7037   27.3875   -7.6837 N   0  0  0  0  0  0  0  0  0  0  0  0
   -5.0718   20.7192  -10.2815 N   0  0  0  0  0  0  0  0  0  0  0  0
   -6.1688   20.7595  -11.0070 N   0  0  0  0  0  0  0  0  0  0  0  0
   -6.8965   21.4955  -10.4293 N   0  0  0  0  0  0  0  0  0  0  0  0
   -6.8366   22.1604   -9.4144 C   0  0  0  0  0  0  0  0  0  0  0  0
   -5.2812   21.5194   -9.2704 C   0  0  0  0  0  0  0  0  0  0  0  0
   -2.6537   17.3724  -13.5164 Cl  0  0  0  0  0  0  0  0  0  0  0  0
   -2.7785   18.3902  -12.1160 C   0  0  0  0  0  0  0  0  0  0  0  0
   -3.9044   19.1374  -11.7946 C   0  0  0  0  0  0  0  0  0  0  0  0
   -3.9458   19.9053  -10.6830 C   0  0  0  0  0  0  0  0  0  0  0  0
   -2.8158   19.9071   -9.8902 C   0  0  0  0  0  0  0  0  0  0  0  0
   -1.6908   19.2005  -10.1513 C   0  0  0  0  0  0  0  0  0  0  0  0
   -1.6331   18.4237  -11.2562 C   0  0  0  0  0  0  0  0  0  0  0  0
 20 21  1  0  0  0
 21 22  2  0  0  0
 21 26  1  0  0  0
 22 23  1  0  0  0
 23 24  2  0  0  0
 23 15  1  0  0  0
 24 25  1  0  0  0
 25 26  2  0  0  0
 15 16  1  0  0  0
 15 19  1  0  0  0
 16 17  2  0  0  0
 17 18  1  0  0  0
 18 19  2  0  0  0
 18  1  1  0  0  0
  1  2  2  0  0  0
  1  3  1  0  0  0
  3  4  1  0  0  0
  3  8  1  0  0  0
  4  5  1  0  0  0
  5  6  1  0  0  0
  6  7  1  0  0  0
  6  9  1  0  0  0
  7  8  1  0  0  0
  9 10  2  0  0  0
  9 14  1  0  0  0
 10 11  1  0  0  0
 11 12  2  0  0  0
 12 13  1  0  0  0
 13 14  2  0  0  0
M  END
> <minimizedAffinity>
-8.74620

$$$$
1971


 22 25  0  0  0  0  0  0  0  0999 V2000
   -1.6007    8.7838  -13.5487 N   0  0  0  0  0  0  0  0  0  0  0  0
   -0.8269    9.9975  -13.5146 C   0  0  0  0  0  0  0  0  0  0  0  0
   -1.1796   11.0818  -14.0358 O   0  0  0  0  0  0  0  0  0  0  0  0
    0.4180    9.7678  -12.7864 C   0  0  0  0  0  0  0  0  0  0  0  0
    1.6505    9.7200  -13.6276 C   0  0  0  0  0  0  0  0  0  0  0  0
    2.4749    8.9009  -12.8153 O   0  0  0  0  0  0  0  0  0  0  0  0
    1.6378    7.7554  -12.8392 C   0  0  0  0  0  0  0  0  0  0  0  0
    0.3582    8.3198  -12.2734 C   0  0  0  0  0  0  0  0  0  0  0  0
   -0.8037    7.7587  -12.9662 C   0  0  0  0  0  0  0  0  0  0  0  0
   -1.0817    6.5374  -13.0471 O   0  0  0  0  0  0  0  0  0  0  0  0
    1.4517    7.5861  -14.2956 C   0  0  0  0  0  0  0  0  0  0  0  0
    1.4958    8.8381  -14.8058 C   0  0  0  0  0  0  0  0  0  0  0  0
   -6.5454   10.3410  -13.8394 Cl  0  0  0  0  0  0  0  0  0  0  0  0
   -5.2333    9.2562  -14.2443 C   0  0  0  0  0  0  0  0  0  0  0  0
   -3.9611    9.4436  -13.7472 C   0  0  0  0  0  0  0  0  0  0  0  0
   -2.9141    8.5912  -14.0597 C   0  0  0  0  0  0  0  0  0  0  0  0
   -3.1992    7.5339  -14.9008 C   0  0  0  0  0  0  0  0  0  0  0  0
   -4.4804    7.3445  -15.4022 C   0  0  0  0  0  0  0  0  0  0  0  0
   -5.5171    8.1983  -15.0840 C   0  0  0  0  0  0  0  0  0  0  0  0
    2.2807   11.0381  -13.9085 C   0  0  0  0  0  0  0  0  0  0  0  0
    1.7066   12.0065  -13.0950 O   0  0  0  0  0  0  0  0  0  0  0  0
    0.9950   11.6102  -12.5410 H   0  0  0  0  0  0  0  0  0  0  0  0
 13 14  1  0  0  0
 14 15  2  0  0  0
 14 19  1  0  0  0
 15 16  1  0  0  0
 16 17  2  0  0  0
 16  1  1  0  0  0
 17 18  1  0  0  0
 18 19  2  0  0  0
  1  2  1  0  0  0
  1  9  1  0  0  0
  2  3  2  0  0  0
  2  4  1  0  0  0
  4  5  1  0  0  0
  4  8  1  0  0  0
  5  6  1  0  0  0
  5 12  1  0  0  0
  5 20  1  0  0  0
  6  7  1  0  0  0
  7  8  1  0  0  0
  7 11  1  0  0  0
  8  9  1  0  0  0
  9 10  2  0  0  0
 11 12  2  0  0  0
 20 21  1  0  0  0
 21 22  1  0  0  0
M  END
> <minimizedAffinity>
-7.58090

$$$$
1973


 24 27  0  0  0  0  0  0  0  0999 V2000
   -1.9599   17.4889  -12.8081 Cl  0  0  0  0  0  0  0  0  0  0  0  0
   -0.6653   16.3116  -12.5920 C   0  0  0  0  0  0  0  0  0  0  0  0
   -0.7031   15.0663  -13.1848 C   0  0  0  0  0  0  0  0  0  0  0  0
    0.2818   14.1487  -13.0312 N   0  0  0  0  0  0  0  0  0  0  0  0
    1.3701   14.4007  -12.2803 C   0  0  0  0  0  0  0  0  0  0  0  0
    2.3679   13.4931  -12.1142 N   0  0  0  0  0  0  0  0  0  0  0  0
    2.3387   12.2766  -12.6885 C   0  0  0  0  0  0  0  0  0  0  0  0
    1.2202   12.0003  -13.4680 C   0  0  0  0  0  0  0  0  0  0  0  0
    1.1861   10.6568  -14.1028 C   0  0  0  0  0  0  0  0  0  0  0  0
    1.5851    9.7212  -13.0451 N   0  0  0  0  0  0  0  0  0  0  0  0
    2.9010    9.8676  -12.4903 C   0  0  0  0  0  0  0  0  0  0  0  0
    3.4233   11.2764  -12.5170 C   0  0  0  0  0  0  0  0  0  0  0  0
    0.6937    8.7231  -12.5939 C   0  0  0  0  0  0  0  0  0  0  0  0
   -0.4598    8.6870  -13.1417 O   0  0  0  0  0  0  0  0  0  0  0  0
    0.2244   12.9400  -13.6187 C   0  0  0  0  0  0  0  0  0  0  0  0
   -0.7893   12.6623  -14.3378 O   0  0  0  0  0  0  0  0  0  0  0  0
    1.4272   15.6456  -11.6756 C   0  0  0  0  0  0  0  0  0  0  0  0
    0.4383   16.5969  -11.8167 C   0  0  0  0  0  0  0  0  0  0  0  0
    1.0462    7.7466  -11.5393 C   0  0  0  0  0  0  0  0  0  0  0  0
    2.2164    6.8736  -11.9358 C   0  0  0  0  0  0  0  0  0  0  0  0
    1.9832    6.5071  -13.3957 C   0  0  0  0  0  0  0  0  0  0  0  0
    0.6267    6.2816  -13.6232 O   0  0  0  0  0  0  0  0  0  0  0  0
   -0.0038    5.7590  -12.4858 C   0  0  0  0  0  0  0  0  0  0  0  0
   -0.1422    6.7868  -11.3786 C   0  0  0  0  0  0  0  0  0  0  0  0
  1  2  1  0  0  0
  2  3  2  0  0  0
  2 18  1  0  0  0
  3  4  1  0  0  0
  4  5  1  0  0  0
  4 15  1  0  0  0
  5  6  2  0  0  0
  5 17  1  0  0  0
  6  7  1  0  0  0
  7  8  2  0  0  0
  7 12  1  0  0  0
  8  9  1  0  0  0
  8 15  1  0  0  0
  9 10  1  0  0  0
 10 11  1  0  0  0
 10 13  1  0  0  0
 11 12  1  0  0  0
 13 14  2  0  0  0
 13 19  1  0  0  0
 19 20  1  0  0  0
 19 24  1  0  0  0
 20 21  1  0  0  0
 21 22  1  0  0  0
 22 23  1  0  0  0
 23 24  1  0  0  0
 15 16  2  0  0  0
 17 18  2  0  0  0
M  END
> <minimizedAffinity>
-7.54653

$$$$
1974


 26 29  0  0  0  0  0  0  0  0999 V2000
   -1.7253    5.6724  -15.0453 F   0  0  0  0  0  0  0  0  0  0  0  0
   -2.5725    6.6955  -14.7793 C   0  0  0  0  0  0  0  0  0  0  0  0
   -2.0394    7.8911  -14.3221 C   0  0  0  0  0  0  0  0  0  0  0  0
   -2.8392    8.9741  -14.0308 C   0  0  0  0  0  0  0  0  0  0  0  0
   -4.2046    8.8305  -14.2095 C   0  0  0  0  0  0  0  0  0  0  0  0
   -4.7350    7.6456  -14.6632 C   0  0  0  0  0  0  0  0  0  0  0  0
   -3.9306    6.5678  -14.9521 C   0  0  0  0  0  0  0  0  0  0  0  0
   -5.2279   10.2071  -13.8398 Cl  0  0  0  0  0  0  0  0  0  0  0  0
   -2.0529   10.1009  -13.5726 C   0  0  0  0  0  0  0  0  0  0  0  0
   -2.4476   11.2371  -13.2244 O   0  0  0  0  0  0  0  0  0  0  0  0
   -0.6697    9.6430  -13.5958 C   0  0  0  0  0  0  0  0  0  0  0  0
    0.3400   10.3391  -13.2629 O   0  0  0  0  0  0  0  0  0  0  0  0
   -0.6817    8.2998  -14.0531 N   0  0  0  0  0  0  0  0  0  0  0  0
    0.4644    7.4331  -14.2354 C   0  0  0  0  0  0  0  0  0  0  0  0
    1.2086    7.2007  -13.0157 N   0  0  0  0  0  0  0  0  0  0  0  0
    1.2444    5.8153  -12.6943 C   0  0  0  0  0  0  0  0  0  0  0  0
    2.5654    5.2912  -12.2528 C   0  0  0  0  0  0  0  0  0  0  0  0
    3.6800    5.8494  -12.9732 N   0  0  0  0  0  0  0  0  0  0  0  0
    3.4766    7.0677  -13.7219 C   0  0  0  0  0  0  0  0  0  0  0  0
    2.4562    7.8837  -12.9572 C   0  0  0  0  0  0  0  0  0  0  0  0
    4.9599    5.2502  -12.9719 C   0  0  0  0  0  0  0  0  0  0  0  0
    6.0767    5.9857  -12.8429 N   0  0  0  0  0  0  0  0  0  0  0  0
    7.3080    5.4384  -12.8394 C   0  0  0  0  0  0  0  0  0  0  0  0
    7.4659    4.0721  -12.9712 C   0  0  0  0  0  0  0  0  0  0  0  0
    6.3534    3.3314  -13.0995 N   0  0  0  0  0  0  0  0  0  0  0  0
    5.1222    3.8767  -13.1036 C   0  0  0  0  0  0  0  0  0  0  0  0
  1  2  1  0  0  0
  2  3  2  0  0  0
  2  7  1  0  0  0
  3  4  1  0  0  0
  3 13  1  0  0  0
  4  5  2  0  0  0
  4  9  1  0  0  0
  5  6  1  0  0  0
  5  8  1  0  0  0
  6  7  2  0  0  0
  9 10  2  0  0  0
  9 11  1  0  0  0
 11 12  2  0  0  0
 11 13  1  0  0  0
 13 14  1  0  0  0
 14 15  1  0  0  0
 15 16  1  0  0  0
 15 20  1  0  0  0
 16 17  1  0  0  0
 17 18  1  0  0  0
 18 19  1  0  0  0
 18 21  1  0  0  0
 19 20  1  0  0  0
 21 22  2  0  0  0
 21 26  1  0  0  0
 22 23  1  0  0  0
 23 24  2  0  0  0
 24 25  1  0  0  0
 25 26  2  0  0  0
M  END
> <minimizedAffinity>
-7.89366

$$$$
1976


 26 29  0  0  0  0  0  0  0  0999 V2000
   -0.6742   16.9476  -12.3873 C   0  0  0  0  0  0  0  0  0  0  0  0
   -0.5356   17.7105  -11.3687 O   0  0  0  0  0  0  0  0  0  0  0  0
    0.1029   15.7707  -12.5504 N   0  0  0  0  0  0  0  0  0  0  0  0
   -0.0973   14.9598  -13.6993 C   0  0  0  0  0  0  0  0  0  0  0  0
   -0.2337   13.5043  -13.2350 C   0  0  0  0  0  0  0  0  0  0  0  0
    1.1278   13.2183  -12.6380 C   0  0  0  0  0  0  0  0  0  0  0  0
    1.7339   14.1730  -11.8477 C   0  0  0  0  0  0  0  0  0  0  0  0
    2.9657   13.8999  -11.3304 N   0  0  0  0  0  0  0  0  0  0  0  0
    3.6084   12.7438  -11.5588 C   0  0  0  0  0  0  0  0  0  0  0  0
    3.0032   11.8246  -12.3316 N   0  0  0  0  0  0  0  0  0  0  0  0
    1.7696   12.0378  -12.8785 C   0  0  0  0  0  0  0  0  0  0  0  0
    1.1452   11.0941  -13.6738 O   0  0  0  0  0  0  0  0  0  0  0  0
    1.0683   15.4568  -11.5519 C   0  0  0  0  0  0  0  0  0  0  0  0
    0.3039   10.6549  -13.3192 H   0  0  0  0  0  0  0  0  0  0  0  0
   -1.6964   17.3474  -13.4075 C   0  0  0  0  0  0  0  0  0  0  0  0
   -4.4670   17.2133  -14.5714 Cl  0  0  0  0  0  0  0  0  0  0  0  0
   -4.0484   18.2399  -13.2259 C   0  0  0  0  0  0  0  0  0  0  0  0
   -4.9882   19.0554  -12.6157 C   0  0  0  0  0  0  0  0  0  0  0  0
   -4.6726   19.8758  -11.5486 C   0  0  0  0  0  0  0  0  0  0  0  0
   -3.3678   19.8612  -11.0930 C   0  0  0  0  0  0  0  0  0  0  0  0
   -2.4436   19.0416  -11.7134 C   0  0  0  0  0  0  0  0  0  0  0  0
   -2.7407   18.2146  -12.7822 C   0  0  0  0  0  0  0  0  0  0  0  0
   -3.0538   20.6792  -10.0276 O   0  0  0  0  0  0  0  0  0  0  0  0
   -3.9925   21.2334   -9.1283 C   0  0  0  0  0  0  0  0  0  0  0  0
   -5.3973   21.2169   -9.6177 C   0  0  0  0  0  0  0  0  0  0  0  0
   -5.5646   20.7007  -10.9103 O   0  0  0  0  0  0  0  0  0  0  0  0
 16 17  1  0  0  0
 17 18  2  0  0  0
 17 22  1  0  0  0
 18 19  1  0  0  0
 19 20  2  0  0  0
 19 26  1  0  0  0
 20 21  1  0  0  0
 20 23  1  0  0  0
 21 22  2  0  0  0
 22 15  1  0  0  0
 15  1  1  0  0  0
  1  2  2  0  0  0
  1  3  1  0  0  0
  3  4  1  0  0  0
  3 13  1  0  0  0
  4  5  1  0  0  0
  5  6  1  0  0  0
  6  7  2  0  0  0
  6 11  1  0  0  0
  7  8  1  0  0  0
  7 13  1  0  0  0
  8  9  2  0  0  0
  9 10  1  0  0  0
 10 11  2  0  0  0
 11 12  1  0  0  0
 23 24  1  0  0  0
 24 25  1  0  0  0
 25 26  1  0  0  0
 12 14  1  0  0  0
M  END
> <minimizedAffinity>
-9.69625

$$$$
1982


 25 28  0  0  0  0  0  0  0  0999 V2000
    2.8928    4.9447  -12.2715 Cl  0  0  0  0  0  0  0  0  0  0  0  0
    1.6426    6.1052  -12.6654 C   0  0  0  0  0  0  0  0  0  0  0  0
    1.8742    7.4644  -12.7085 C   0  0  0  0  0  0  0  0  0  0  0  0
    0.8982    8.3902  -13.0165 C   0  0  0  0  0  0  0  0  0  0  0  0
   -0.3690    7.9141  -13.2933 C   0  0  0  0  0  0  0  0  0  0  0  0
   -0.6130    6.5569  -13.2540 C   0  0  0  0  0  0  0  0  0  0  0  0
    0.3632    5.6317  -12.9453 C   0  0  0  0  0  0  0  0  0  0  0  0
   -1.4313    8.8876  -13.6272 C   0  0  0  0  0  0  0  0  0  0  0  0
   -2.6528    8.7195  -13.9158 N   0  0  0  0  0  0  0  0  0  0  0  0
   -3.3607    9.9542  -14.1807 C   0  0  0  0  0  0  0  0  0  0  0  0
   -2.3363   11.0274  -14.0074 C   0  0  0  0  0  0  0  0  0  0  0  0
   -1.1440   10.2788  -13.6587 N   0  0  0  0  0  0  0  0  0  0  0  0
    0.1912   10.6871  -13.3606 C   0  0  0  0  0  0  0  0  0  0  0  0
    0.7447   11.9121  -13.3147 N   0  0  0  0  0  0  0  0  0  0  0  0
    2.0253   11.8402  -12.9941 N   0  0  0  0  0  0  0  0  0  0  0  0
    2.2743   10.5170  -12.8351 C   0  0  0  0  0  0  0  0  0  0  0  0
    3.3979   10.0652  -12.5248 O   0  0  0  0  0  0  0  0  0  0  0  0
    1.1655    9.7912  -13.0547 N   0  0  0  0  0  0  0  0  0  0  0  0
    2.9581   12.9407  -12.8453 C   0  0  0  0  0  0  0  0  0  0  0  0
    2.7385   13.6073  -11.4800 C   0  0  0  0  0  0  0  0  0  0  0  0
    1.8076   14.7555  -11.6170 C   0  0  0  0  0  0  0  0  0  0  0  0
    2.1686   15.9571  -11.6864 O   0  0  0  0  0  0  0  0  0  0  0  0
    0.4175   14.4787  -11.6731 N   0  0  0  0  0  0  0  0  0  0  0  0
   -0.0425   13.7380  -11.1131 H   0  0  0  0  0  0  0  0  0  0  0  0
   -0.1662   15.0543  -12.3147 H   0  0  0  0  0  0  0  0  0  0  0  0
  1  2  1  0  0  0
  2  3  2  0  0  0
  2  7  1  0  0  0
  3  4  1  0  0  0
  4  5  2  0  0  0
  4 18  1  0  0  0
  5  6  1  0  0  0
  5  8  1  0  0  0
  6  7  2  0  0  0
  8  9  2  0  0  0
  8 12  1  0  0  0
  9 10  1  0  0  0
 10 11  1  0  0  0
 11 12  1  0  0  0
 12 13  1  0  0  0
 13 14  2  0  0  0
 13 18  1  0  0  0
 14 15  1  0  0  0
 15 16  1  0  0  0
 15 19  1  0  0  0
 16 17  2  0  0  0
 16 18  1  0  0  0
 19 20  1  0  0  0
 20 21  1  0  0  0
 21 22  2  0  0  0
 21 23  1  0  0  0
 23 24  1  0  0  0
 23 25  1  0  0  0
M  END
> <minimizedAffinity>
-8.35262

$$$$
1986


 30 33  0  0  0  0  0  0  0  0999 V2000
    2.7221   13.7972  -12.8811 Cl  0  0  0  0  0  0  0  0  0  0  0  0
    1.1796   12.9663  -12.9828 C   0  0  0  0  0  0  0  0  0  0  0  0
    1.0798   11.7239  -13.5764 C   0  0  0  0  0  0  0  0  0  0  0  0
   -0.1513   11.0604  -13.6588 C   0  0  0  0  0  0  0  0  0  0  0  0
   -1.2362   11.7057  -13.1233 C   0  0  0  0  0  0  0  0  0  0  0  0
   -1.1305   12.9673  -12.5217 C   0  0  0  0  0  0  0  0  0  0  0  0
    0.0849   13.6117  -12.4457 C   0  0  0  0  0  0  0  0  0  0  0  0
   -2.4711   11.0669  -13.1913 O   0  0  0  0  0  0  0  0  0  0  0  0
   -2.6513    9.8224  -13.7703 C   0  0  0  0  0  0  0  0  0  0  0  0
   -1.5536    9.1717  -14.3114 C   0  0  0  0  0  0  0  0  0  0  0  0
   -0.1989    9.7351  -14.3067 C   0  0  0  0  0  0  0  0  0  0  0  0
   -1.7836    7.9327  -14.8755 C   0  0  0  0  0  0  0  0  0  0  0  0
   -0.8142    7.2879  -15.3877 O   0  0  0  0  0  0  0  0  0  0  0  0
   -2.9848    7.3360  -14.9296 N   0  0  0  0  0  0  0  0  0  0  0  0
   -4.0286    8.0096  -14.3877 C   0  0  0  0  0  0  0  0  0  0  0  0
   -5.1470    7.4314  -14.4493 O   0  0  0  0  0  0  0  0  0  0  0  0
   -3.8513    9.2200  -13.8269 N   0  0  0  0  0  0  0  0  0  0  0  0
   -5.0171    9.8764  -13.2701 C   0  0  0  0  0  0  0  0  0  0  0  0
   -3.1730    6.0188  -15.5382 C   0  0  0  0  0  0  0  0  0  0  0  0
    0.7214    8.8044  -13.5748 C   0  0  0  0  0  0  0  0  0  0  0  0
    1.9350    8.4408  -14.1157 C   0  0  0  0  0  0  0  0  0  0  0  0
    2.7606    7.5938  -13.4425 N   0  0  0  0  0  0  0  0  0  0  0  0
    2.3986    7.0969  -12.2332 C   0  0  0  0  0  0  0  0  0  0  0  0
    3.1898    6.3128  -11.6379 O   0  0  0  0  0  0  0  0  0  0  0  0
    1.2220    7.4329  -11.6812 N   0  0  0  0  0  0  0  0  0  0  0  0
    0.4012    8.2705  -12.3426 C   0  0  0  0  0  0  0  0  0  0  0  0
   -0.6815    8.5713  -11.8198 O   0  0  0  0  0  0  0  0  0  0  0  0
    0.8636    6.8790  -10.3791 C   0  0  0  0  0  0  0  0  0  0  0  0
    4.0335    7.2492  -14.0678 C   0  0  0  0  0  0  0  0  0  0  0  0
    2.3038    8.9396  -15.3338 O   0  0  0  0  0  0  0  0  0  0  0  0
  1  2  1  0  0  0
  2  3  2  0  0  0
  2  7  1  0  0  0
  3  4  1  0  0  0
  4  5  2  0  0  0
  4 11  1  0  0  0
  5  6  1  0  0  0
  5  8  1  0  0  0
  6  7  2  0  0  0
  8  9  1  0  0  0
  9 10  2  0  0  0
  9 17  1  0  0  0
 10 11  1  0  0  0
 10 12  1  0  0  0
 11 20  1  0  0  0
 20 21  2  0  0  0
 20 26  1  0  0  0
 21 22  1  0  0  0
 21 30  1  0  0  0
 22 23  1  0  0  0
 22 29  1  0  0  0
 23 24  2  0  0  0
 23 25  1  0  0  0
 25 26  1  0  0  0
 25 28  1  0  0  0
 26 27  2  0  0  0
 12 13  2  0  0  0
 12 14  1  0  0  0
 14 15  1  0  0  0
 14 19  1  0  0  0
 15 16  2  0  0  0
 15 17  1  0  0  0
 17 18  1  0  0  0
M  CHG 1  30  -1
M  END
> <minimizedAffinity>
-4.16259

$$$$
1991


 31 34  0  0  0  0  0  0  0  0999 V2000
    4.5025    4.9356  -12.7994 Cl  0  0  0  0  0  0  0  0  0  0  0  0
    3.1495    6.0385  -12.7272 C   0  0  0  0  0  0  0  0  0  0  0  0
    3.0501    7.0970  -13.6024 C   0  0  0  0  0  0  0  0  0  0  0  0
    1.9821    7.9527  -13.5308 C   0  0  0  0  0  0  0  0  0  0  0  0
    0.9918    7.7438  -12.5631 C   0  0  0  0  0  0  0  0  0  0  0  0
    1.0839    6.6817  -11.6780 C   0  0  0  0  0  0  0  0  0  0  0  0
    2.1655    5.8510  -11.7817 C   0  0  0  0  0  0  0  0  0  0  0  0
   -0.1430    8.5141  -12.3610 O   0  0  0  0  0  0  0  0  0  0  0  0
   -0.7968    9.3471  -13.2886 C   0  0  0  0  0  0  0  0  0  0  0  0
    0.0478   10.5061  -13.7080 C   0  0  0  0  0  0  0  0  0  0  0  0
    1.4308   10.2092  -13.9295 N   0  0  0  0  0  0  0  0  0  0  0  0
    2.0146    9.0426  -14.5391 C   0  0  0  0  0  0  0  0  0  0  0  0
    2.3999   11.1783  -13.4976 C   0  0  0  0  0  0  0  0  0  0  0  0
    3.6077   10.9029  -13.7042 O   0  0  0  0  0  0  0  0  0  0  0  0
   -1.2783    8.5156  -14.4672 C   0  0  0  0  0  0  0  0  0  0  0  0
   -2.6952    8.0277  -14.2220 C   0  0  0  0  0  0  0  0  0  0  0  0
   -3.6133    9.0593  -14.2008 O   0  0  0  0  0  0  0  0  0  0  0  0
   -3.0195   10.2443  -13.7818 C   0  0  0  0  0  0  0  0  0  0  0  0
   -2.0612    9.9277  -12.6500 C   0  0  0  0  0  0  0  0  0  0  0  0
    2.0024   12.4263  -12.8485 C   0  0  0  0  0  0  0  0  0  0  0  0
    3.0185   13.2094  -12.2468 N   0  0  0  0  0  0  0  0  0  0  0  0
    2.6296   13.6783  -10.9141 C   0  0  0  0  0  0  0  0  0  0  0  0
    1.4191   14.5231  -11.0530 C   0  0  0  0  0  0  0  0  0  0  0  0
    1.4431   15.5515  -12.1338 C   0  0  0  0  0  0  0  0  0  0  0  0
    2.5145   15.4450  -13.1458 C   0  0  0  0  0  0  0  0  0  0  0  0
    3.4906   14.3389  -13.0089 C   0  0  0  0  0  0  0  0  0  0  0  0
    0.1154   15.6954  -12.7796 C   0  0  0  0  0  0  0  0  0  0  0  0
   -0.1123   15.0965  -13.8501 O   0  0  0  0  0  0  0  0  0  0  0  0
   -0.8757   16.5052  -12.1845 N   0  0  0  0  0  0  0  0  0  0  0  0
   -1.6716   15.9839  -11.7116 H   0  0  0  0  0  0  0  0  0  0  0  0
   -0.8975   17.5317  -12.1668 H   0  0  0  0  0  0  0  0  0  0  0  0
  1  2  1  0  0  0
  2  3  2  0  0  0
  2  7  1  0  0  0
  3  4  1  0  0  0
  4  5  2  0  0  0
  4 12  1  0  0  0
  5  6  1  0  0  0
  5  8  1  0  0  0
  6  7  2  0  0  0
  8  9  1  0  0  0
  9 10  1  0  0  0
  9 15  1  0  0  0
  9 19  1  0  0  0
 10 11  1  0  0  0
 11 12  1  0  0  0
 11 13  1  0  0  0
 13 14  2  0  0  0
 13 20  1  0  0  0
 20 21  1  0  0  0
 21 22  1  0  0  0
 21 26  1  0  0  0
 22 23  1  0  0  0
 23 24  1  0  0  0
 24 25  1  0  0  0
 24 27  1  0  0  0
 25 26  1  0  0  0
 27 28  2  0  0  0
 27 29  1  0  0  0
 15 16  1  0  0  0
 16 17  1  0  0  0
 17 18  1  0  0  0
 18 19  1  0  0  0
 29 30  1  0  0  0
 29 31  1  0  0  0
M  END
> <minimizedAffinity>
-8.29110

$$$$
2003


 28 31  0  0  0  0  0  0  0  0999 V2000
    1.0764   13.6093  -12.4389 N   0  0  0  0  0  0  0  0  0  0  0  0
    2.1487   13.0720  -13.2190 C   0  0  0  0  0  0  0  0  0  0  0  0
    2.0807   11.5760  -13.3769 C   0  0  0  0  0  0  0  0  0  0  0  0
    0.7229   11.0968  -13.4965 N   0  0  0  0  0  0  0  0  0  0  0  0
   -0.4276   11.9606  -13.5000 C   0  0  0  0  0  0  0  0  0  0  0  0
   -0.2316   13.2978  -12.8935 C   0  0  0  0  0  0  0  0  0  0  0  0
    0.5146    9.6963  -13.6195 C   0  0  0  0  0  0  0  0  0  0  0  0
   -0.6603    9.2103  -13.7294 O   0  0  0  0  0  0  0  0  0  0  0  0
    1.6433    8.7660  -13.6230 C   0  0  0  0  0  0  0  0  0  0  0  0
    2.8473    9.0401  -14.2405 C   0  0  0  0  0  0  0  0  0  0  0  0
    3.8436    8.1359  -14.2017 N   0  0  0  0  0  0  0  0  0  0  0  0
    3.7400    6.9465  -13.5815 C   0  0  0  0  0  0  0  0  0  0  0  0
    2.5731    6.6643  -12.9740 N   0  0  0  0  0  0  0  0  0  0  0  0
    2.4500    5.4776  -12.3463 C   0  0  0  0  0  0  0  0  0  0  0  0
    3.4756    4.5545  -12.3111 C   0  0  0  0  0  0  0  0  0  0  0  0
    4.6860    4.8144  -12.9247 C   0  0  0  0  0  0  0  0  0  0  0  0
    4.7907    6.0383  -13.5624 C   0  0  0  0  0  0  0  0  0  0  0  0
    1.5521    7.5423  -12.9903 C   0  0  0  0  0  0  0  0  0  0  0  0
    0.4630    7.2793  -12.4239 O   0  0  0  0  0  0  0  0  0  0  0  0
    1.3063   15.2070  -11.9277 S   0  0  0  0  0  0  0  0  0  0  0  0
    1.4013   15.2899  -10.4527 O   0  0  0  0  0  0  0  0  0  0  0  0
    2.5767   15.7383  -12.5528 O   0  0  0  0  0  0  0  0  0  0  0  0
   -0.0532   16.1882  -12.5004 C   0  0  0  0  0  0  0  0  0  0  0  0
   -0.9635   17.3671  -11.6714 S   0  0  0  0  0  0  0  0  0  0  0  0
   -2.0404   17.8037  -12.9193 C   0  0  0  0  0  0  0  0  0  0  0  0
   -1.6503   17.0048  -13.9582 C   0  0  0  0  0  0  0  0  0  0  0  0
   -0.6274   16.1714  -13.7459 C   0  0  0  0  0  0  0  0  0  0  0  0
   -3.3565   18.9953  -12.9160 Cl  0  0  0  0  0  0  0  0  0  0  0  0
 20 21  2  0  0  0
 20 22  2  0  0  0
 20  1  1  0  0  0
 20 23  1  0  0  0
  1  2  1  0  0  0
  1  6  1  0  0  0
  2  3  1  0  0  0
  3  4  1  0  0  0
  4  5  1  0  0  0
  4  7  1  0  0  0
  5  6  1  0  0  0
  7  8  2  0  0  0
  7  9  1  0  0  0
  9 10  2  0  0  0
  9 18  1  0  0  0
 10 11  1  0  0  0
 11 12  2  0  0  0
 12 13  1  0  0  0
 12 17  1  0  0  0
 13 14  1  0  0  0
 13 18  1  0  0  0
 14 15  2  0  0  0
 15 16  1  0  0  0
 16 17  2  0  0  0
 18 19  2  0  0  0
 23 24  1  0  0  0
 23 27  2  0  0  0
 24 25  1  0  0  0
 25 26  2  0  0  0
 25 28  1  0  0  0
 26 27  1  0  0  0
M  END
> <minimizedAffinity>
-9.02495

$$$$
2004


 29 32  0  0  0  0  0  0  0  0999 V2000
    1.8555   10.9444  -13.1547 S   0  0  0  0  0  0  0  0  0  0  0  0
    2.5901   10.9902  -14.4860 O   0  0  0  0  0  0  0  0  0  0  0  0
    2.8824   10.3573  -12.1878 O   0  0  0  0  0  0  0  0  0  0  0  0
    1.5662   12.5905  -12.6357 C   0  0  0  0  0  0  0  0  0  0  0  0
    0.3136   13.1756  -12.9089 C   0  0  0  0  0  0  0  0  0  0  0  0
    0.0464   14.4848  -12.5788 C   0  0  0  0  0  0  0  0  0  0  0  0
    0.9742   15.2984  -11.9690 C   0  0  0  0  0  0  0  0  0  0  0  0
    2.1953   14.7323  -11.6988 C   0  0  0  0  0  0  0  0  0  0  0  0
    2.4870   13.4000  -12.0259 C   0  0  0  0  0  0  0  0  0  0  0  0
    4.0389   12.7325  -11.5798 Cl  0  0  0  0  0  0  0  0  0  0  0  0
    0.6370   16.6375  -11.6582 N   0  0  0  0  0  0  0  0  0  0  0  0
   -0.6395   17.1894  -11.9548 C   0  0  0  0  0  0  0  0  0  0  0  0
   -1.0830   18.2555  -11.4866 O   0  0  0  0  0  0  0  0  0  0  0  0
   -1.4848   16.4113  -12.8985 C   0  0  0  0  0  0  0  0  0  0  0  0
   -1.2025   15.0397  -12.8599 O   0  0  0  0  0  0  0  0  0  0  0  0
   -1.2891   16.8959  -14.3173 C   0  0  0  0  0  0  0  0  0  0  0  0
    1.3464   17.2511  -11.1941 H   0  0  0  0  0  0  0  0  0  0  0  0
    0.5238    9.9328  -13.2216 N   0  0  0  0  0  0  0  0  0  0  0  0
    0.7384    8.5684  -13.4300 C   0  0  0  0  0  0  0  0  0  0  0  0
   -0.5237    7.7241  -13.2007 C   0  0  0  0  0  0  0  0  0  0  0  0
   -1.6971    8.3893  -13.6829 N   0  0  0  0  0  0  0  0  0  0  0  0
   -1.8553    9.7949  -13.3798 C   0  0  0  0  0  0  0  0  0  0  0  0
   -0.6170   10.4925  -13.9075 C   0  0  0  0  0  0  0  0  0  0  0  0
   -2.6561    7.6896  -14.4247 C   0  0  0  0  0  0  0  0  0  0  0  0
   -2.4967    6.4683  -14.6765 O   0  0  0  0  0  0  0  0  0  0  0  0
   -3.8975    8.3417  -14.9488 C   0  0  0  0  0  0  0  0  0  0  0  0
   -5.0489    8.3255  -13.9712 C   0  0  0  0  0  0  0  0  0  0  0  0
   -5.4788    7.0031  -14.6019 C   0  0  0  0  0  0  0  0  0  0  0  0
   -4.6812    7.4144  -15.8430 C   0  0  0  0  0  0  0  0  0  0  0  0
  1  2  2  0  0  0
  1  3  2  0  0  0
  1 18  1  0  0  0
  1  4  1  0  0  0
 18 19  1  0  0  0
 18 23  1  0  0  0
 19 20  1  0  0  0
 20 21  1  0  0  0
 21 22  1  0  0  0
 21 24  1  0  0  0
 22 23  1  0  0  0
 24 25  2  0  0  0
 24 26  1  0  0  0
 26 27  1  0  0  0
 26 29  1  0  0  0
 27 28  1  0  0  0
 28 29  1  0  0  0
  4  5  2  0  0  0
  4  9  1  0  0  0
  5  6  1  0  0  0
  6  7  2  0  0  0
  6 15  1  0  0  0
  7  8  1  0  0  0
  7 11  1  0  0  0
  8  9  2  0  0  0
  9 10  1  0  0  0
 11 12  1  0  0  0
 12 13  2  0  0  0
 12 14  1  0  0  0
 14 15  1  0  0  0
 14 16  1  0  0  0
 11 17  1  0  0  0
M  END
> <minimizedAffinity>
-9.39753

$$$$
2012


 25 28  0  0  0  0  0  0  0  0999 V2000
    2.1613   11.8366  -12.9736 N   0  0  0  0  0  0  0  0  0  0  0  0
    3.4628   11.2674  -13.0594 C   0  0  0  0  0  0  0  0  0  0  0  0
    4.4486   11.6677  -12.4175 O   0  0  0  0  0  0  0  0  0  0  0  0
    3.4415   10.1502  -14.0184 C   0  0  0  0  0  0  0  0  0  0  0  0
    4.2177    9.0673  -13.7570 O   0  0  0  0  0  0  0  0  0  0  0  0
    3.4430    8.0221  -14.2253 N   0  0  0  0  0  0  0  0  0  0  0  0
    2.0785    8.3022  -13.9024 C   0  0  0  0  0  0  0  0  0  0  0  0
    2.0597    9.6232  -13.7642 C   0  0  0  0  0  0  0  0  0  0  0  0
    1.2607   10.7910  -13.4242 C   0  0  0  0  0  0  0  0  0  0  0  0
    0.0081   10.8319  -13.5243 O   0  0  0  0  0  0  0  0  0  0  0  0
    3.8242    7.2032  -14.7259 H   0  0  0  0  0  0  0  0  0  0  0  0
   -1.0403   15.9065  -13.3428 Cl  0  0  0  0  0  0  0  0  0  0  0  0
    0.3081   15.0223  -12.6342 C   0  0  0  0  0  0  0  0  0  0  0  0
    0.6640   13.7693  -13.1258 C   0  0  0  0  0  0  0  0  0  0  0  0
    1.7265   13.1203  -12.5418 C   0  0  0  0  0  0  0  0  0  0  0  0
    2.4318   13.7047  -11.4780 C   0  0  0  0  0  0  0  0  0  0  0  0
    2.0777   14.9313  -11.0017 C   0  0  0  0  0  0  0  0  0  0  0  0
    1.0098   15.5877  -11.5903 C   0  0  0  0  0  0  0  0  0  0  0  0
    0.9621    7.3833  -13.8022 C   0  0  0  0  0  0  0  0  0  0  0  0
   -0.1702    7.5112  -14.6119 C   0  0  0  0  0  0  0  0  0  0  0  0
   -1.0519    6.5474  -14.3083 N   0  0  0  0  0  0  0  0  0  0  0  0
   -0.5284    5.8041  -13.3317 N   0  0  0  0  0  0  0  0  0  0  0  0
    0.6902    6.3010  -13.0167 C   0  0  0  0  0  0  0  0  0  0  0  0
    1.5935    5.7684  -11.9657 C   0  0  0  0  0  0  0  0  0  0  0  0
   -2.3659    6.2877  -14.8863 C   0  0  0  0  0  0  0  0  0  0  0  0
 12 13  1  0  0  0
 13 14  2  0  0  0
 13 18  1  0  0  0
 14 15  1  0  0  0
 15 16  2  0  0  0
 15  1  1  0  0  0
 16 17  1  0  0  0
 17 18  2  0  0  0
  1  2  1  0  0  0
  1  9  1  0  0  0
  2  3  2  0  0  0
  2  4  1  0  0  0
  4  5  1  0  0  0
  4  8  1  0  0  0
  5  6  1  0  0  0
  6  7  1  0  0  0
  7  8  2  0  0  0
  7 19  1  0  0  0
  8  9  1  0  0  0
  9 10  2  0  0  0
 19 20  2  0  0  0
 19 23  1  0  0  0
 20 21  1  0  0  0
 21 22  1  0  0  0
 21 25  1  0  0  0
 22 23  2  0  0  0
 23 24  1  0  0  0
  6 11  1  0  0  0
M  END
> <minimizedAffinity>
-8.72658

$$$$
2014


 26 29  0  0  0  0  0  0  0  0999 V2000
   -0.2044    7.3100  -12.8706 C   0  0  0  0  0  0  0  0  0  0  0  0
    1.0851    7.0201  -13.0184 N   0  0  0  0  0  0  0  0  0  0  0  0
    1.3525    5.7969  -12.4745 C   0  0  0  0  0  0  0  0  0  0  0  0
    0.1659    5.3570  -11.9944 N   0  0  0  0  0  0  0  0  0  0  0  0
   -0.7657    6.2425  -12.2216 N   0  0  0  0  0  0  0  0  0  0  0  0
    2.6503    5.4884  -12.6181 N   0  0  0  0  0  0  0  0  0  0  0  0
    3.2613    6.4827  -13.2514 C   0  0  0  0  0  0  0  0  0  0  0  0
    2.2756    7.4505  -13.5068 C   0  0  0  0  0  0  0  0  0  0  0  0
    2.6070    8.5745  -14.1551 N   0  0  0  0  0  0  0  0  0  0  0  0
    3.9024    8.7323  -14.5392 C   0  0  0  0  0  0  0  0  0  0  0  0
    4.1882    9.8088  -15.1503 O   0  0  0  0  0  0  0  0  0  0  0  0
    4.8726    7.8489  -14.3200 N   0  0  0  0  0  0  0  0  0  0  0  0
    4.5462    6.7265  -13.6769 C   0  0  0  0  0  0  0  0  0  0  0  0
    5.4249    5.8570  -13.4436 O   0  0  0  0  0  0  0  0  0  0  0  0
    6.2537    8.0973  -14.7687 C   0  0  0  0  0  0  0  0  0  0  0  0
    1.6447    9.5864  -14.4816 C   0  0  0  0  0  0  0  0  0  0  0  0
    3.3039    4.2773  -12.1657 C   0  0  0  0  0  0  0  0  0  0  0  0
   -0.7557   12.6153  -13.0815 Br  0  0  0  0  0  0  0  0  0  0  0  0
   -1.3299   10.8195  -13.4356 C   0  0  0  0  0  0  0  0  0  0  0  0
   -0.5928    9.7540  -12.9972 C   0  0  0  0  0  0  0  0  0  0  0  0
   -1.0203    8.4551  -13.2604 C   0  0  0  0  0  0  0  0  0  0  0  0
   -2.1962    8.3171  -13.9681 C   0  0  0  0  0  0  0  0  0  0  0  0
   -2.9234    9.3866  -14.4002 C   0  0  0  0  0  0  0  0  0  0  0  0
   -2.5099   10.6836  -14.1454 C   0  0  0  0  0  0  0  0  0  0  0  0
   -2.6064    6.9894  -14.2217 O   0  0  0  0  0  0  0  0  0  0  0  0
   -2.9090    6.5618  -15.5367 C   0  0  0  0  0  0  0  0  0  0  0  0
 18 19  1  0  0  0
 19 20  2  0  0  0
 19 24  1  0  0  0
 20 21  1  0  0  0
 21 22  2  0  0  0
 21  1  1  0  0  0
 22 23  1  0  0  0
 22 25  1  0  0  0
 23 24  2  0  0  0
 25 26  1  0  0  0
  1  2  1  0  0  0
  1  5  2  0  0  0
  2  3  1  0  0  0
  2  8  1  0  0  0
  3  4  2  0  0  0
  3  6  1  0  0  0
  4  5  1  0  0  0
  6  7  1  0  0  0
  6 17  1  0  0  0
  7  8  2  0  0  0
  7 13  1  0  0  0
  8  9  1  0  0  0
  9 10  1  0  0  0
  9 16  1  0  0  0
 10 11  2  0  0  0
 10 12  1  0  0  0
 12 13  1  0  0  0
 12 15  1  0  0  0
 13 14  2  0  0  0
M  END
> <minimizedAffinity>
-7.78573

$$$$
2017


 24 27  0  0  0  0  0  0  0  0999 V2000
   -5.3280   20.9429  -10.4104 Cl  0  0  0  0  0  0  0  0  0  0  0  0
   -4.0270   19.8683  -10.8948 C   0  0  0  0  0  0  0  0  0  0  0  0
   -4.0697   19.1363  -12.0660 C   0  0  0  0  0  0  0  0  0  0  0  0
   -3.0574   18.3071  -12.4314 N   0  0  0  0  0  0  0  0  0  0  0  0
   -1.9520   18.1435  -11.6843 C   0  0  0  0  0  0  0  0  0  0  0  0
   -0.9441   17.3243  -12.0376 N   0  0  0  0  0  0  0  0  0  0  0  0
   -0.9776   16.6076  -13.1752 C   0  0  0  0  0  0  0  0  0  0  0  0
   -2.1213   16.7719  -13.9585 C   0  0  0  0  0  0  0  0  0  0  0  0
   -3.1476   17.6132  -13.5862 C   0  0  0  0  0  0  0  0  0  0  0  0
   -4.1890   17.7586  -14.3039 O   0  0  0  0  0  0  0  0  0  0  0  0
   -1.8831   18.8680  -10.5015 C   0  0  0  0  0  0  0  0  0  0  0  0
   -2.9013   19.7153  -10.1131 C   0  0  0  0  0  0  0  0  0  0  0  0
    0.1094   15.6916  -13.6079 C   0  0  0  0  0  0  0  0  0  0  0  0
    0.5856   14.9691  -12.4871 N   0  0  0  0  0  0  0  0  0  0  0  0
    1.8557   15.3141  -11.9691 C   0  0  0  0  0  0  0  0  0  0  0  0
    2.5935   14.1651  -11.2996 C   0  0  0  0  0  0  0  0  0  0  0  0
    2.5394   13.0315  -12.2603 C   0  0  0  0  0  0  0  0  0  0  0  0
    1.2992   12.7602  -12.7993 C   0  0  0  0  0  0  0  0  0  0  0  0
    1.2006   11.7466  -13.6723 N   0  0  0  0  0  0  0  0  0  0  0  0
    2.3049   11.0120  -14.0101 C   0  0  0  0  0  0  0  0  0  0  0  0
    3.5065   11.3085  -13.4606 N   0  0  0  0  0  0  0  0  0  0  0  0
    3.6720   12.3166  -12.5758 C   0  0  0  0  0  0  0  0  0  0  0  0
    2.2085    9.8874  -14.9765 C   0  0  0  0  0  0  0  0  0  0  0  0
    0.1662   13.6140  -12.3670 C   0  0  0  0  0  0  0  0  0  0  0  0
  1  2  1  0  0  0
  2  3  2  0  0  0
  2 12  1  0  0  0
  3  4  1  0  0  0
  4  5  1  0  0  0
  4  9  1  0  0  0
  5  6  2  0  0  0
  5 11  1  0  0  0
  6  7  1  0  0  0
  7  8  2  0  0  0
  7 13  1  0  0  0
  8  9  1  0  0  0
  9 10  2  0  0  0
 13 14  1  0  0  0
 14 15  1  0  0  0
 14 24  1  0  0  0
 15 16  1  0  0  0
 16 17  1  0  0  0
 17 18  2  0  0  0
 17 22  1  0  0  0
 18 19  1  0  0  0
 18 24  1  0  0  0
 19 20  2  0  0  0
 20 21  1  0  0  0
 20 23  1  0  0  0
 21 22  2  0  0  0
 11 12  2  0  0  0
M  END
> <minimizedAffinity>
-10.48932

$$$$
2020


 22 24  0  0  0  0  0  0  0  0999 V2000
    0.5668    8.2712  -12.1702 C   0  0  0  0  0  0  0  0  0  0  0  0
    1.8629    7.5577  -12.6451 C   0  0  0  0  0  0  0  0  0  0  0  0
    1.7522    7.9089  -14.1414 C   0  0  0  0  0  0  0  0  0  0  0  0
    2.6689    8.3646  -14.8005 O   0  0  0  0  0  0  0  0  0  0  0  0
    0.4238    7.6200  -14.6339 N   0  0  0  0  0  0  0  0  0  0  0  0
   -0.3360    6.6787  -13.7906 C   0  0  0  0  0  0  0  0  0  0  0  0
    0.6352    5.6081  -13.5258 N   0  0  0  0  0  0  0  0  0  0  0  0
    1.7123    6.0708  -12.6868 C   0  0  0  0  0  0  0  0  0  0  0  0
    2.4630    5.3114  -12.0474 O   0  0  0  0  0  0  0  0  0  0  0  0
   -0.5328    7.3852  -12.4219 C   0  0  0  0  0  0  0  0  0  0  0  0
   -1.6041    6.2048  -14.3502 C   0  0  0  0  0  0  0  0  0  0  0  0
    0.0247    8.0373  -15.4787 H   0  0  0  0  0  0  0  0  0  0  0  0
    0.5442    4.6578  -13.9025 H   0  0  0  0  0  0  0  0  0  0  0  0
    3.8096   12.3752  -12.9488 Br  0  0  0  0  0  0  0  0  0  0  0  0
    2.1143   11.5329  -13.1342 C   0  0  0  0  0  0  0  0  0  0  0  0
    1.9253   10.2318  -12.6634 C   0  0  0  0  0  0  0  0  0  0  0  0
    0.6849    9.5911  -12.7795 C   0  0  0  0  0  0  0  0  0  0  0  0
   -0.3201   10.3248  -13.3847 C   0  0  0  0  0  0  0  0  0  0  0  0
   -0.1122   11.6138  -13.8440 C   0  0  0  0  0  0  0  0  0  0  0  0
    1.1046   12.2240  -13.7240 C   0  0  0  0  0  0  0  0  0  0  0  0
   -1.5198    9.6824  -13.4998 O   0  0  0  0  0  0  0  0  0  0  0  0
   -2.6618   10.3967  -13.8890 C   0  0  0  0  0  0  0  0  0  0  0  0
 14 15  1  0  0  0
 15 16  2  0  0  0
 15 20  1  0  0  0
 16 17  1  0  0  0
 17 18  2  0  0  0
 17  1  1  0  0  0
 18 19  1  0  0  0
 18 21  1  0  0  0
 19 20  2  0  0  0
 21 22  1  0  0  0
  1  2  1  0  0  0
  1 10  1  0  0  0
  2  3  1  0  0  0
  2  8  1  0  0  0
  3  4  2  0  0  0
  3  5  1  0  0  0
  5  6  1  0  0  0
  6  7  1  0  0  0
  6 10  1  0  0  0
  6 11  1  0  0  0
  7  8  1  0  0  0
  8  9  2  0  0  0
  5 12  1  0  0  0
  7 13  1  0  0  0
M  END
> <minimizedAffinity>
-7.23083

$$$$
2028


 31 34  0  0  0  0  0  0  0  0999 V2000
   -2.6319    3.7362  -12.8451 Cl  0  0  0  0  0  0  0  0  0  0  0  0
   -2.3363    5.3840  -13.3938 C   0  0  0  0  0  0  0  0  0  0  0  0
   -1.1666    6.0286  -12.9522 C   0  0  0  0  0  0  0  0  0  0  0  0
   -0.9387    7.3016  -13.3832 C   0  0  0  0  0  0  0  0  0  0  0  0
   -1.8239    7.9604  -14.2252 C   0  0  0  0  0  0  0  0  0  0  0  0
   -2.9609    7.3048  -14.6388 C   0  0  0  0  0  0  0  0  0  0  0  0
   -3.2275    6.0168  -14.2316 C   0  0  0  0  0  0  0  0  0  0  0  0
   -3.9036    8.0426  -15.5510 C   0  0  0  0  0  0  0  0  0  0  0  0
    0.4124    7.7004  -12.8814 C   0  0  0  0  0  0  0  0  0  0  0  0
    0.5304    9.0461  -12.4838 N   0  0  0  0  0  0  0  0  0  0  0  0
    0.9118    9.7912  -13.6499 C   0  0  0  0  0  0  0  0  0  0  0  0
    1.2728    8.8537  -14.7290 C   0  0  0  0  0  0  0  0  0  0  0  0
    1.4460    7.5456  -13.9528 C   0  0  0  0  0  0  0  0  0  0  0  0
    2.8098    7.6868  -13.4769 C   0  0  0  0  0  0  0  0  0  0  0  0
    3.3845    7.3831  -12.4085 O   0  0  0  0  0  0  0  0  0  0  0  0
    3.5190    8.3217  -14.5735 N   0  0  0  0  0  0  0  0  0  0  0  0
    2.5725    9.0211  -15.3675 C   0  0  0  0  0  0  0  0  0  0  0  0
    2.8332    9.6472  -16.4042 O   0  0  0  0  0  0  0  0  0  0  0  0
    0.6869    6.7177  -11.8356 C   0  0  0  0  0  0  0  0  0  0  0  0
    1.5279    6.7220  -10.8822 O   0  0  0  0  0  0  0  0  0  0  0  0
   -0.1852    5.6247  -12.0049 N   0  0  0  0  0  0  0  0  0  0  0  0
   -0.3461    9.4268  -12.0521 H   0  0  0  0  0  0  0  0  0  0  0  0
   -0.1691    4.6756  -11.5529 H   0  0  0  0  0  0  0  0  0  0  0  0
    1.9418   10.8600  -13.3361 C   0  0  0  0  0  0  0  0  0  0  0  0
    1.5508   12.1386  -13.6018 O   0  0  0  0  0  0  0  0  0  0  0  0
    2.5153   10.6095  -11.9804 C   0  0  0  0  0  0  0  0  0  0  0  0
    1.7835   12.7970  -12.8987 H   0  0  0  0  0  0  0  0  0  0  0  0
    4.9280    8.2754  -14.8623 C   0  0  0  0  0  0  0  0  0  0  0  0
    5.6775    7.1581  -14.2374 C   0  0  0  0  0  0  0  0  0  0  0  0
    7.0186    7.3135  -14.0564 O   0  0  0  0  0  0  0  0  0  0  0  0
    7.4615    7.1462  -12.7606 C   0  0  0  0  0  0  0  0  0  0  0  0
  1  2  1  0  0  0
  2  3  2  0  0  0
  2  7  1  0  0  0
  3  4  1  0  0  0
  3 21  1  0  0  0
  4  5  2  0  0  0
  4  9  1  0  0  0
  5  6  1  0  0  0
  6  7  2  0  0  0
  6  8  1  0  0  0
  9 10  1  0  0  0
  9 13  1  0  0  0
  9 19  1  0  0  0
 10 11  1  0  0  0
 11 12  1  0  0  0
 11 24  1  0  0  0
 12 13  1  0  0  0
 12 17  1  0  0  0
 13 14  1  0  0  0
 14 15  2  0  0  0
 14 16  1  0  0  0
 16 17  1  0  0  0
 16 28  1  0  0  0
 17 18  2  0  0  0
 28 29  1  0  0  0
 29 30  1  0  0  0
 30 31  1  0  0  0
 24 25  1  0  0  0
 24 26  1  0  0  0
 19 20  2  0  0  0
 19 21  1  0  0  0
 10 22  1  0  0  0
 25 27  1  0  0  0
 21 23  1  0  0  0
M  END
> <minimizedAffinity>
-5.38110

$$$$
2032


 31 34  0  0  0  0  0  0  0  0999 V2000
   -0.7679   12.3433  -13.5198 C   0  0  0  0  0  0  0  0  0  0  0  0
   -0.8823   11.0549  -13.4879 C   0  0  0  0  0  0  0  0  0  0  0  0
    0.0287   10.1653  -12.9914 O   0  0  0  0  0  0  0  0  0  0  0  0
   -0.4724    8.8730  -13.1348 C   0  0  0  0  0  0  0  0  0  0  0  0
   -1.6975    8.8605  -13.7204 C   0  0  0  0  0  0  0  0  0  0  0  0
   -2.3835    7.6604  -13.9392 C   0  0  0  0  0  0  0  0  0  0  0  0
   -1.8603    6.4453  -13.5812 C   0  0  0  0  0  0  0  0  0  0  0  0
   -0.5885    6.5098  -12.9840 C   0  0  0  0  0  0  0  0  0  0  0  0
    0.0979    7.6529  -12.7539 C   0  0  0  0  0  0  0  0  0  0  0  0
   -0.0874    5.2336  -12.6511 O   0  0  0  0  0  0  0  0  0  0  0  0
   -2.0170   10.2693  -13.9761 C   0  0  0  0  0  0  0  0  0  0  0  0
   -3.0735   10.7127  -14.5131 O   0  0  0  0  0  0  0  0  0  0  0  0
    4.3663   12.5359  -12.0449 Br  0  0  0  0  0  0  0  0  0  0  0  0
    2.6543   13.3035  -12.3309 C   0  0  0  0  0  0  0  0  0  0  0  0
    1.5767   12.5532  -12.8349 C   0  0  0  0  0  0  0  0  0  0  0  0
    0.3530   13.1366  -13.0361 C   0  0  0  0  0  0  0  0  0  0  0  0
    0.1802   14.4682  -12.7374 C   0  0  0  0  0  0  0  0  0  0  0  0
    1.2563   15.2142  -12.2335 C   0  0  0  0  0  0  0  0  0  0  0  0
    2.4687   14.6362  -12.0378 C   0  0  0  0  0  0  0  0  0  0  0  0
   -1.0497   14.9867  -12.9531 O   0  0  0  0  0  0  0  0  0  0  0  0
   -1.3958   16.3237  -13.0687 C   0  0  0  0  0  0  0  0  0  0  0  0
    1.4528    7.7193  -12.1745 C   0  0  0  0  0  0  0  0  0  0  0  0
    2.4699    7.5162  -13.1789 N   0  0  0  0  0  0  0  0  0  0  0  0
    3.1164    6.2359  -12.9531 C   0  0  0  0  0  0  0  0  0  0  0  0
    4.5690    6.2248  -13.1767 C   0  0  0  0  0  0  0  0  0  0  0  0
    5.0631    7.1268  -14.1676 N   0  0  0  0  0  0  0  0  0  0  0  0
    4.1852    8.0695  -14.6951 C   0  0  0  0  0  0  0  0  0  0  0  0
    3.2432    8.5899  -13.5772 C   0  0  0  0  0  0  0  0  0  0  0  0
    1.8285    7.2971  -14.0718 H   0  0  0  0  0  0  0  0  0  0  0  0
    6.4366    7.4536  -14.1040 C   0  0  0  0  0  0  0  0  0  0  0  0
    7.1611    6.9573  -12.9025 C   0  0  0  0  0  0  0  0  0  0  0  0
 13 14  1  0  0  0
 14 15  2  0  0  0
 14 19  1  0  0  0
 15 16  1  0  0  0
 16 17  2  0  0  0
 16  1  1  0  0  0
 17 18  1  0  0  0
 17 20  1  0  0  0
 18 19  2  0  0  0
 20 21  1  0  0  0
  1  2  2  0  0  0
  2  3  1  0  0  0
  2 11  1  0  0  0
  3  4  1  0  0  0
  4  5  2  0  0  0
  4  9  1  0  0  0
  5  6  1  0  0  0
  5 11  1  0  0  0
  6  7  2  0  0  0
  7  8  1  0  0  0
  8  9  2  0  0  0
  8 10  1  0  0  0
  9 22  1  0  0  0
 22 23  1  0  0  0
 23 24  1  0  0  0
 23 28  1  0  0  0
 24 25  1  0  0  0
 25 26  1  0  0  0
 26 27  1  0  0  0
 26 30  1  0  0  0
 27 28  1  0  0  0
 30 31  1  0  0  0
 11 12  2  0  0  0
 23 29  1  0  0  0
M  CHG 1  10  -1
M  CHG 1  23   1
M  END
> <minimizedAffinity>
-9.18263

$$$$
2033


 29 32  0  0  0  0  0  0  0  0999 V2000
   -1.2071   12.6775  -13.3040 C   0  0  0  0  0  0  0  0  0  0  0  0
   -1.2039   11.3767  -13.3994 C   0  0  0  0  0  0  0  0  0  0  0  0
   -0.1067   10.5726  -13.1331 O   0  0  0  0  0  0  0  0  0  0  0  0
   -0.3927    9.2330  -13.3193 C   0  0  0  0  0  0  0  0  0  0  0  0
   -1.6984    9.0689  -13.7223 C   0  0  0  0  0  0  0  0  0  0  0  0
   -2.1944    7.8056  -13.9665 C   0  0  0  0  0  0  0  0  0  0  0  0
   -1.3710    6.7116  -13.8049 C   0  0  0  0  0  0  0  0  0  0  0  0
   -0.0382    6.9068  -13.3921 C   0  0  0  0  0  0  0  0  0  0  0  0
    0.4726    8.1438  -13.1438 C   0  0  0  0  0  0  0  0  0  0  0  0
    0.6792    5.7060  -13.2718 O   0  0  0  0  0  0  0  0  0  0  0  0
   -2.2515   10.4260  -13.7841 C   0  0  0  0  0  0  0  0  0  0  0  0
   -3.4187   10.7367  -14.1091 O   0  0  0  0  0  0  0  0  0  0  0  0
    3.9331   13.1046  -11.7358 Br  0  0  0  0  0  0  0  0  0  0  0  0
    2.2110   13.7749  -12.1979 C   0  0  0  0  0  0  0  0  0  0  0  0
    1.1500   13.0069  -12.5827 C   0  0  0  0  0  0  0  0  0  0  0  0
   -0.0870   13.5160  -12.9117 C   0  0  0  0  0  0  0  0  0  0  0  0
   -0.2395   14.9040  -12.8383 C   0  0  0  0  0  0  0  0  0  0  0  0
    0.7886   15.7230  -12.4599 C   0  0  0  0  0  0  0  0  0  0  0  0
    2.0145   15.1517  -12.1397 C   0  0  0  0  0  0  0  0  0  0  0  0
   -1.4718   15.4398  -13.1583 O   0  0  0  0  0  0  0  0  0  0  0  0
   -1.6709   16.8288  -13.1289 C   0  0  0  0  0  0  0  0  0  0  0  0
    1.8159    8.4010  -12.7026 C   0  0  0  0  0  0  0  0  0  0  0  0
    2.9391    8.2131  -13.5261 N   0  0  0  0  0  0  0  0  0  0  0  0
    2.6764    8.1408  -14.9377 C   0  0  0  0  0  0  0  0  0  0  0  0
    2.5342    9.4850  -15.6078 C   0  0  0  0  0  0  0  0  0  0  0  0
    2.5598   10.5528  -14.7212 O   0  0  0  0  0  0  0  0  0  0  0  0
    3.7805   10.4820  -14.0587 C   0  0  0  0  0  0  0  0  0  0  0  0
    3.9874    9.2213  -13.2853 C   0  0  0  0  0  0  0  0  0  0  0  0
    3.4173    7.3296  -13.2541 H   0  0  0  0  0  0  0  0  0  0  0  0
 13 14  1  0  0  0
 14 15  2  0  0  0
 14 19  1  0  0  0
 15 16  1  0  0  0
 16 17  2  0  0  0
 16  1  1  0  0  0
 17 18  1  0  0  0
 17 20  1  0  0  0
 18 19  2  0  0  0
 20 21  1  0  0  0
  1  2  2  0  0  0
  2  3  1  0  0  0
  2 11  1  0  0  0
  3  4  1  0  0  0
  4  5  2  0  0  0
  4  9  1  0  0  0
  5  6  1  0  0  0
  5 11  1  0  0  0
  6  7  2  0  0  0
  7  8  1  0  0  0
  8  9  2  0  0  0
  8 10  1  0  0  0
  9 22  1  0  0  0
 22 23  1  0  0  0
 23 24  1  0  0  0
 23 28  1  0  0  0
 24 25  1  0  0  0
 25 26  1  0  0  0
 26 27  1  0  0  0
 27 28  1  0  0  0
 11 12  2  0  0  0
 23 29  1  0  0  0
M  CHG 1  10  -1
M  CHG 1  23   1
M  END
> <minimizedAffinity>
-8.94156

$$$$
2041


 30 33  0  0  0  0  0  0  0  0999 V2000
    2.4137   10.1548  -13.6802 N   0  0  0  0  0  0  0  0  0  0  0  0
    2.7607   10.6414  -12.3602 C   0  0  0  0  0  0  0  0  0  0  0  0
    2.8341   12.1631  -12.3587 C   0  0  0  0  0  0  0  0  0  0  0  0
    1.5154   12.6723  -12.7340 N   0  0  0  0  0  0  0  0  0  0  0  0
    0.6067   11.6860  -13.2383 C   0  0  0  0  0  0  0  0  0  0  0  0
    1.3347   10.8788  -14.2810 C   0  0  0  0  0  0  0  0  0  0  0  0
    1.2349   14.0323  -12.5685 C   0  0  0  0  0  0  0  0  0  0  0  0
    2.1564   14.8037  -12.0782 O   0  0  0  0  0  0  0  0  0  0  0  0
    2.0672    8.4718  -13.6152 S   0  0  0  0  0  0  0  0  0  0  0  0
    1.2836    8.2353  -12.3451 O   0  0  0  0  0  0  0  0  0  0  0  0
    1.2060    8.0295  -14.7492 O   0  0  0  0  0  0  0  0  0  0  0  0
    3.5636    7.5668  -13.5739 C   0  0  0  0  0  0  0  0  0  0  0  0
    4.7697    8.0425  -14.0351 C   0  0  0  0  0  0  0  0  0  0  0  0
    5.9105    7.2785  -13.9834 C   0  0  0  0  0  0  0  0  0  0  0  0
    5.8647    5.9892  -13.4534 C   0  0  0  0  0  0  0  0  0  0  0  0
    4.6450    5.4921  -12.9812 C   0  0  0  0  0  0  0  0  0  0  0  0
    3.5150    6.2777  -13.0434 C   0  0  0  0  0  0  0  0  0  0  0  0
    7.3205    5.0315  -13.3935 Cl  0  0  0  0  0  0  0  0  0  0  0  0
   -0.0041   14.7534  -12.8768 C   0  0  0  0  0  0  0  0  0  0  0  0
   -0.0253   16.4573  -12.3353 S   0  0  0  0  0  0  0  0  0  0  0  0
   -1.5800   17.2902  -12.6031 C   0  0  0  0  0  0  0  0  0  0  0  0
   -2.3149   17.0485  -13.6811 N   0  0  0  0  0  0  0  0  0  0  0  0
   -3.4930   17.6313  -13.9191 C   0  0  0  0  0  0  0  0  0  0  0  0
   -3.9668   18.5287  -13.0001 N   0  0  0  0  0  0  0  0  0  0  0  0
   -3.2502   18.7950  -11.9032 C   0  0  0  0  0  0  0  0  0  0  0  0
   -3.4953   19.6252  -10.8479 N   0  0  0  0  0  0  0  0  0  0  0  0
   -2.4858   19.5350  -10.0068 N   0  0  0  0  0  0  0  0  0  0  0  0
   -1.5750   18.6727  -10.4638 C   0  0  0  0  0  0  0  0  0  0  0  0
   -2.0311   18.1892  -11.6612 C   0  0  0  0  0  0  0  0  0  0  0  0
   -4.6603   20.4445  -10.6850 C   0  0  0  0  0  0  0  0  0  0  0  0
  9 10  2  0  0  0
  9 11  2  0  0  0
  9  1  1  0  0  0
  9 12  1  0  0  0
  1  2  1  0  0  0
  1  6  1  0  0  0
  2  3  1  0  0  0
  3  4  1  0  0  0
  4  5  1  0  0  0
  4  7  1  0  0  0
  5  6  1  0  0  0
  7  8  2  0  0  0
  7 19  1  0  0  0
 19 20  1  0  0  0
 20 21  1  0  0  0
 21 22  2  0  0  0
 21 29  1  0  0  0
 22 23  1  0  0  0
 23 24  2  0  0  0
 24 25  1  0  0  0
 25 26  1  0  0  0
 25 29  2  0  0  0
 26 27  1  0  0  0
 26 30  1  0  0  0
 27 28  2  0  0  0
 28 29  1  0  0  0
 12 13  2  0  0  0
 12 17  1  0  0  0
 13 14  1  0  0  0
 14 15  2  0  0  0
 15 16  1  0  0  0
 15 18  1  0  0  0
 16 17  2  0  0  0
M  END
> <minimizedAffinity>
-9.58605

$$$$
2043


 32 35  0  0  0  0  0  0  0  0999 V2000
    1.3995   10.0811  -12.9216 N   0  0  0  0  0  0  0  0  0  0  0  0
    1.6457    8.9749  -12.0296 C   0  0  0  0  0  0  0  0  0  0  0  0
    1.8246    7.7194  -12.8805 C   0  0  0  0  0  0  0  0  0  0  0  0
    2.6053    8.0262  -14.0189 N   0  0  0  0  0  0  0  0  0  0  0  0
    1.7731    8.8175  -15.0303 C   0  0  0  0  0  0  0  0  0  0  0  0
    0.9380    9.7390  -14.2157 C   0  0  0  0  0  0  0  0  0  0  0  0
    3.9144    7.7965  -14.3276 C   0  0  0  0  0  0  0  0  0  0  0  0
    4.1460    8.1402  -15.6411 O   0  0  0  0  0  0  0  0  0  0  0  0
    5.1128    7.3228  -13.7552 C   0  0  0  0  0  0  0  0  0  0  0  0
    5.7114    6.2235  -13.4351 C   0  0  0  0  0  0  0  0  0  0  0  0
    5.1599    4.9477  -13.6253 N   0  0  0  0  0  0  0  0  0  0  0  0
    5.8218    3.7329  -13.3380 N   0  0  0  0  0  0  0  0  0  0  0  0
    7.1215    3.7757  -12.8240 C   0  0  0  0  0  0  0  0  0  0  0  0
    7.7229    2.7012  -12.5629 O   0  0  0  0  0  0  0  0  0  0  0  0
    7.7532    5.0881  -12.6008 C   0  0  0  0  0  0  0  0  0  0  0  0
    7.0999    6.2729  -12.8851 C   0  0  0  0  0  0  0  0  0  0  0  0
    7.7554    7.4385  -12.6502 C   0  0  0  0  0  0  0  0  0  0  0  0
    9.0555    7.4175  -12.1351 C   0  0  0  0  0  0  0  0  0  0  0  0
    9.7090    6.2450  -11.8505 C   0  0  0  0  0  0  0  0  0  0  0  0
    9.0395    5.0646  -12.0905 C   0  0  0  0  0  0  0  0  0  0  0  0
    4.1998    4.8358  -13.9579 H   0  0  0  0  0  0  0  0  0  0  0  0
    5.2998    2.8260  -13.5260 H   0  0  0  0  0  0  0  0  0  0  0  0
    2.4759   11.3643  -12.7970 S   0  0  0  0  0  0  0  0  0  0  0  0
    3.4750   11.0274  -11.6977 O   0  0  0  0  0  0  0  0  0  0  0  0
    3.3104   11.4105  -14.0718 O   0  0  0  0  0  0  0  0  0  0  0  0
    1.7700   12.9154  -12.5707 C   0  0  0  0  0  0  0  0  0  0  0  0
    0.4660   13.1663  -12.9166 C   0  0  0  0  0  0  0  0  0  0  0  0
   -0.0803   14.4225  -12.7249 C   0  0  0  0  0  0  0  0  0  0  0  0
    0.6492   15.4601  -12.1890 C   0  0  0  0  0  0  0  0  0  0  0  0
    1.9668   15.2136  -11.8384 C   0  0  0  0  0  0  0  0  0  0  0  0
    2.5040   13.9433  -12.0360 C   0  0  0  0  0  0  0  0  0  0  0  0
   -0.0896   17.0335  -11.9678 Cl  0  0  0  0  0  0  0  0  0  0  0  0
 23 24  2  0  0  0
 23 25  2  0  0  0
 23  1  1  0  0  0
 23 26  1  0  0  0
  1  2  1  0  0  0
  1  6  1  0  0  0
  2  3  1  0  0  0
  3  4  1  0  0  0
  4  5  1  0  0  0
  4  7  1  0  0  0
  5  6  1  0  0  0
  7  8  2  0  0  0
  7  9  1  0  0  0
  9 10  2  0  0  0
 10 11  1  0  0  0
 10 16  1  0  0  0
 11 12  1  0  0  0
 12 13  1  0  0  0
 13 14  2  0  0  0
 13 15  1  0  0  0
 15 16  2  0  0  0
 15 20  1  0  0  0
 16 17  1  0  0  0
 17 18  2  0  0  0
 18 19  1  0  0  0
 19 20  2  0  0  0
 26 27  2  0  0  0
 26 31  1  0  0  0
 27 28  1  0  0  0
 28 29  2  0  0  0
 29 30  1  0  0  0
 29 32  1  0  0  0
 30 31  2  0  0  0
 11 21  1  0  0  0
 12 22  1  0  0  0
M  END
> <minimizedAffinity>
-9.33824

$$$$
2046


 26 29  0  0  0  0  0  0  0  0999 V2000
   -0.6805    5.5783  -14.2730 Cl  0  0  0  0  0  0  0  0  0  0  0  0
   -1.7645    6.9343  -14.2476 C   0  0  0  0  0  0  0  0  0  0  0  0
   -1.4713    8.0649  -13.5288 C   0  0  0  0  0  0  0  0  0  0  0  0
   -2.3720    9.1059  -13.5479 C   0  0  0  0  0  0  0  0  0  0  0  0
   -3.5553    9.0717  -14.2534 C   0  0  0  0  0  0  0  0  0  0  0  0
   -3.8338    7.9295  -14.9691 C   0  0  0  0  0  0  0  0  0  0  0  0
   -2.9384    6.8818  -14.9555 C   0  0  0  0  0  0  0  0  0  0  0  0
   -0.2950    8.1940  -12.7696 N   0  0  0  0  0  0  0  0  0  0  0  0
   -0.0910    7.6186  -11.6021 N   0  0  0  0  0  0  0  0  0  0  0  0
    1.1107    7.9228  -11.1496 N   0  0  0  0  0  0  0  0  0  0  0  0
    1.6617    8.7046  -12.0560 N   0  0  0  0  0  0  0  0  0  0  0  0
    0.7883    8.8885  -13.0912 C   0  0  0  0  0  0  0  0  0  0  0  0
    1.1078    9.7196  -14.2508 C   0  0  0  0  0  0  0  0  0  0  0  0
    2.3786   10.3921  -14.4915 C   0  0  0  0  0  0  0  0  0  0  0  0
    2.1161    9.0806  -15.2503 C   0  0  0  0  0  0  0  0  0  0  0  0
   -4.4847   10.1841  -14.2553 N   0  0  0  0  0  0  0  0  0  0  0  0
   -4.1939   11.1205  -14.5519 H   0  0  0  0  0  0  0  0  0  0  0  0
   -5.8104    9.9019  -13.8268 C   0  0  0  0  0  0  0  0  0  0  0  0
   -6.8921   10.0006  -14.8022 C   0  0  0  0  0  0  0  0  0  0  0  0
   -6.7508    9.1543  -15.7927 O   0  0  0  0  0  0  0  0  0  0  0  0
   -8.0057   10.8002  -14.8679 N   0  0  0  0  0  0  0  0  0  0  0  0
   -8.4427   11.7274  -13.8737 C   0  0  0  0  0  0  0  0  0  0  0  0
   -8.5040   13.1155  -14.5049 C   0  0  0  0  0  0  0  0  0  0  0  0
   -9.4999   13.0122  -15.5007 O   0  0  0  0  0  0  0  0  0  0  0  0
   -9.0081   12.2313  -16.5239 C   0  0  0  0  0  0  0  0  0  0  0  0
   -8.8598   10.7733  -16.0754 C   0  0  0  0  0  0  0  0  0  0  0  0
  1  2  1  0  0  0
  2  3  2  0  0  0
  2  7  1  0  0  0
  3  4  1  0  0  0
  3  8  1  0  0  0
  4  5  2  0  0  0
  5  6  1  0  0  0
  5 16  1  0  0  0
  6  7  2  0  0  0
 16 18  1  0  0  0
 18 19  1  0  0  0
 19 20  2  0  0  0
 19 21  1  0  0  0
 21 22  1  0  0  0
 21 26  1  0  0  0
 22 23  1  0  0  0
 23 24  1  0  0  0
 24 25  1  0  0  0
 25 26  1  0  0  0
  8  9  1  0  0  0
  8 12  1  0  0  0
  9 10  2  0  0  0
 10 11  1  0  0  0
 11 12  2  0  0  0
 12 13  1  0  0  0
 13 14  1  0  0  0
 13 15  1  0  0  0
 14 15  1  0  0  0
 16 17  1  0  0  0
M  END
> <minimizedAffinity>
-8.31710

$$$$
2063


 34 37  0  0  0  0  0  0  0  0999 V2000
   -3.4103   19.6127  -10.6727 C   0  0  0  0  0  0  0  0  0  0  0  0
   -2.2626   19.5055   -9.8928 C   0  0  0  0  0  0  0  0  0  0  0  0
   -1.2568   18.7291  -10.2199 O   0  0  0  0  0  0  0  0  0  0  0  0
   -1.2507   17.9915  -11.3050 C   0  0  0  0  0  0  0  0  0  0  0  0
   -2.3430   18.0311  -12.1394 C   0  0  0  0  0  0  0  0  0  0  0  0
   -2.2933   17.2437  -13.2637 C   0  0  0  0  0  0  0  0  0  0  0  0
   -1.2258   16.4411  -13.5767 C   0  0  0  0  0  0  0  0  0  0  0  0
   -0.0958   16.3864  -12.7357 C   0  0  0  0  0  0  0  0  0  0  0  0
   -0.1531   17.1769  -11.6122 C   0  0  0  0  0  0  0  0  0  0  0  0
   -3.4166   18.8362  -11.8254 C   0  0  0  0  0  0  0  0  0  0  0  0
   -4.4181   18.8736  -12.5889 O   0  0  0  0  0  0  0  0  0  0  0  0
   -7.9869   23.3629   -8.8954 Br  0  0  0  0  0  0  0  0  0  0  0  0
   -6.5814   22.1953   -9.4611 C   0  0  0  0  0  0  0  0  0  0  0  0
   -6.7151   21.3842  -10.5641 C   0  0  0  0  0  0  0  0  0  0  0  0
   -5.7004   20.5322  -10.9839 C   0  0  0  0  0  0  0  0  0  0  0  0
   -4.5086   20.4762  -10.2917 C   0  0  0  0  0  0  0  0  0  0  0  0
   -4.3762   21.2938   -9.1823 C   0  0  0  0  0  0  0  0  0  0  0  0
   -5.3827   22.1403   -8.7647 C   0  0  0  0  0  0  0  0  0  0  0  0
    0.9573   15.5670  -13.0860 O   0  0  0  0  0  0  0  0  0  0  0  0
    0.9306   14.2073  -13.1898 C   0  0  0  0  0  0  0  0  0  0  0  0
   -0.2688   13.6307  -12.6926 O   0  0  0  0  0  0  0  0  0  0  0  0
   -0.3764   12.4086  -13.3198 C   0  0  0  0  0  0  0  0  0  0  0  0
    0.7102   11.4372  -12.9780 C   0  0  0  0  0  0  0  0  0  0  0  0
    2.0755   12.0815  -12.9612 C   0  0  0  0  0  0  0  0  0  0  0  0
    2.0263   13.4947  -12.4183 C   0  0  0  0  0  0  0  0  0  0  0  0
    3.2687   14.0796  -12.6314 O   0  0  0  0  0  0  0  0  0  0  0  0
    2.9619   11.2744  -12.2600 O   0  0  0  0  0  0  0  0  0  0  0  0
    0.7367   10.4704  -13.9962 O   0  0  0  0  0  0  0  0  0  0  0  0
    3.8016   14.0850  -11.8017 H   0  0  0  0  0  0  0  0  0  0  0  0
    2.5787   10.3628  -12.0746 H   0  0  0  0  0  0  0  0  0  0  0  0
    0.6827   10.8991  -14.8866 H   0  0  0  0  0  0  0  0  0  0  0  0
   -1.7229   11.7600  -13.1199 C   0  0  0  0  0  0  0  0  0  0  0  0
   -2.1125   11.0111  -14.2280 O   0  0  0  0  0  0  0  0  0  0  0  0
   -2.9340   10.5071  -13.9326 H   0  0  0  0  0  0  0  0  0  0  0  0
 12 13  1  0  0  0
 13 14  2  0  0  0
 13 18  1  0  0  0
 14 15  1  0  0  0
 15 16  2  0  0  0
 16 17  1  0  0  0
 16  1  1  0  0  0
 17 18  2  0  0  0
  1  2  2  0  0  0
  1 10  1  0  0  0
  2  3  1  0  0  0
  3  4  1  0  0  0
  4  5  2  0  0  0
  4  9  1  0  0  0
  5  6  1  0  0  0
  5 10  1  0  0  0
  6  7  2  0  0  0
  7  8  1  0  0  0
  8  9  2  0  0  0
  8 19  1  0  0  0
 19 20  1  0  0  0
 20 21  1  0  0  0
 20 25  1  0  0  0
 21 22  1  0  0  0
 22 23  1  0  0  0
 22 32  1  0  0  0
 23 24  1  0  0  0
 23 28  1  0  0  0
 24 25  1  0  0  0
 24 27  1  0  0  0
 25 26  1  0  0  0
 32 33  1  0  0  0
 10 11  2  0  0  0
 26 29  1  0  0  0
 27 30  1  0  0  0
 28 31  1  0  0  0
 33 34  1  0  0  0
M  END
> <minimizedAffinity>
-11.22789

$$$$
2072


 27 30  0  0  0  0  0  0  0  0999 V2000
    1.1542   15.9216  -12.1632 N   0  0  0  0  0  0  0  0  0  0  0  0
    2.2137   15.8575  -13.1023 C   0  0  0  0  0  0  0  0  0  0  0  0
    3.2953   14.8433  -12.8608 C   0  0  0  0  0  0  0  0  0  0  0  0
    2.7313   13.7004  -12.2220 N   0  0  0  0  0  0  0  0  0  0  0  0
    2.2985   14.1496  -10.8991 C   0  0  0  0  0  0  0  0  0  0  0  0
    1.1273   15.0426  -11.0707 C   0  0  0  0  0  0  0  0  0  0  0  0
   -0.3504   15.8644  -13.0004 S   0  0  0  0  0  0  0  0  0  0  0  0
   -0.0792   16.0044  -14.4815 O   0  0  0  0  0  0  0  0  0  0  0  0
   -1.0528   14.5761  -12.7871 O   0  0  0  0  0  0  0  0  0  0  0  0
   -1.4121   17.1639  -12.4374 C   0  0  0  0  0  0  0  0  0  0  0  0
   -1.2968   18.1207  -11.0314 S   0  0  0  0  0  0  0  0  0  0  0  0
   -2.6728   19.0988  -11.2493 C   0  0  0  0  0  0  0  0  0  0  0  0
   -3.1924   18.6445  -12.4320 C   0  0  0  0  0  0  0  0  0  0  0  0
   -2.5426   17.6475  -13.0442 C   0  0  0  0  0  0  0  0  0  0  0  0
   -3.3605   20.5086  -10.1292 Br  0  0  0  0  0  0  0  0  0  0  0  0
    3.5919   12.5711  -12.1273 C   0  0  0  0  0  0  0  0  0  0  0  0
    3.3793   11.6111  -13.2475 C   0  0  0  0  0  0  0  0  0  0  0  0
    2.0146   11.1326  -13.3135 N   0  0  0  0  0  0  0  0  0  0  0  0
    0.9211   11.8440  -13.5842 N   0  0  0  0  0  0  0  0  0  0  0  0
   -0.1638   11.0572  -13.5702 C   0  0  0  0  0  0  0  0  0  0  0  0
    0.2510    9.8174  -13.2830 N   0  0  0  0  0  0  0  0  0  0  0  0
   -0.6235    8.7863  -13.1954 C   0  0  0  0  0  0  0  0  0  0  0  0
   -1.9751    8.9536  -13.3956 C   0  0  0  0  0  0  0  0  0  0  0  0
   -2.4311   10.2227  -13.6935 C   0  0  0  0  0  0  0  0  0  0  0  0
   -1.5176   11.2509  -13.7757 C   0  0  0  0  0  0  0  0  0  0  0  0
    1.6059    9.8768  -13.1253 C   0  0  0  0  0  0  0  0  0  0  0  0
    2.2771    8.8553  -12.8449 O   0  0  0  0  0  0  0  0  0  0  0  0
  7  8  2  0  0  0
  7  9  2  0  0  0
  7  1  1  0  0  0
  7 10  1  0  0  0
  1  2  1  0  0  0
  1  6  1  0  0  0
  2  3  1  0  0  0
  3  4  1  0  0  0
  4  5  1  0  0  0
  4 16  1  0  0  0
  5  6  1  0  0  0
 16 17  1  0  0  0
 17 18  1  0  0  0
 18 19  1  0  0  0
 18 26  1  0  0  0
 19 20  2  0  0  0
 20 21  1  0  0  0
 20 25  1  0  0  0
 21 22  1  0  0  0
 21 26  1  0  0  0
 22 23  2  0  0  0
 23 24  1  0  0  0
 24 25  2  0  0  0
 26 27  2  0  0  0
 10 11  1  0  0  0
 10 14  2  0  0  0
 11 12  1  0  0  0
 12 13  2  0  0  0
 12 15  1  0  0  0
 13 14  1  0  0  0
M  END
> <minimizedAffinity>
-8.83884

$$$$
2079


 31 34  0  0  0  0  0  0  0  0999 V2000
    0.2859   14.5456  -12.7196 C   0  0  0  0  0  0  0  0  0  0  0  0
    1.6606   14.5362  -12.6627 C   0  0  0  0  0  0  0  0  0  0  0  0
    2.3297   13.3067  -12.7417 C   0  0  0  0  0  0  0  0  0  0  0  0
    1.6404   12.1208  -12.8687 C   0  0  0  0  0  0  0  0  0  0  0  0
    2.2161   10.8530  -12.9572 C   0  0  0  0  0  0  0  0  0  0  0  0
    3.6330   10.8755  -12.9155 C   0  0  0  0  0  0  0  0  0  0  0  0
    4.3659   12.0522  -12.7929 C   0  0  0  0  0  0  0  0  0  0  0  0
    3.7003   13.2647  -12.7098 C   0  0  0  0  0  0  0  0  0  0  0  0
    4.4023    9.7311  -12.9928 O   0  0  0  0  0  0  0  0  0  0  0  0
    0.3709   12.1769  -12.9165 O   0  0  0  0  0  0  0  0  0  0  0  0
   -0.3550   13.2964  -12.8523 C   0  0  0  0  0  0  0  0  0  0  0  0
   -1.5905   13.2754  -12.8983 O   0  0  0  0  0  0  0  0  0  0  0  0
   -3.1501   19.5440  -13.0720 Cl  0  0  0  0  0  0  0  0  0  0  0  0
   -2.0789   18.1235  -12.9988 C   0  0  0  0  0  0  0  0  0  0  0  0
   -1.9354   17.2359  -14.0588 C   0  0  0  0  0  0  0  0  0  0  0  0
   -1.1554   16.0975  -13.9626 C   0  0  0  0  0  0  0  0  0  0  0  0
   -0.4794   15.8076  -12.7620 C   0  0  0  0  0  0  0  0  0  0  0  0
   -0.6315   16.6904  -11.7534 C   0  0  0  0  0  0  0  0  0  0  0  0
   -1.4069   17.8338  -11.8245 C   0  0  0  0  0  0  0  0  0  0  0  0
    1.5856    9.6139  -13.2495 C   0  0  0  0  0  0  0  0  0  0  0  0
    1.9707    8.3435  -12.6903 N   0  0  0  0  0  0  0  0  0  0  0  0
    1.0148    7.8950  -11.6396 C   0  0  0  0  0  0  0  0  0  0  0  0
   -0.3784    8.2055  -12.0572 C   0  0  0  0  0  0  0  0  0  0  0  0
   -0.8127    7.5714  -13.2808 N   0  0  0  0  0  0  0  0  0  0  0  0
    0.2557    7.3166  -14.1864 C   0  0  0  0  0  0  0  0  0  0  0  0
    1.6346    7.3078  -13.7198 C   0  0  0  0  0  0  0  0  0  0  0  0
    2.9176    8.1642  -12.4469 H   0  0  0  0  0  0  0  0  0  0  0  0
   -1.8514    8.3831  -13.9332 C   0  0  0  0  0  0  0  0  0  0  0  0
   -2.1116    9.6755  -13.1944 C   0  0  0  0  0  0  0  0  0  0  0  0
   -2.2304   10.7643  -14.0452 O   0  0  0  0  0  0  0  0  0  0  0  0
   -3.2033   10.8602  -14.2969 H   0  0  0  0  0  0  0  0  0  0  0  0
 13 14  1  0  0  0
 14 15  2  0  0  0
 14 19  1  0  0  0
 15 16  1  0  0  0
 16 17  2  0  0  0
 17 18  1  0  0  0
 17  1  1  0  0  0
 18 19  2  0  0  0
  1  2  2  0  0  0
  1 11  1  0  0  0
  2  3  1  0  0  0
  3  4  2  0  0  0
  3  8  1  0  0  0
  4  5  1  0  0  0
  4 10  1  0  0  0
  5  6  2  0  0  0
  5 20  1  0  0  0
  6  7  1  0  0  0
  6  9  1  0  0  0
  7  8  2  0  0  0
 20 21  1  0  0  0
 21 22  1  0  0  0
 21 26  1  0  0  0
 22 23  1  0  0  0
 23 24  1  0  0  0
 24 25  1  0  0  0
 24 28  1  0  0  0
 25 26  1  0  0  0
 28 29  1  0  0  0
 29 30  1  0  0  0
 10 11  1  0  0  0
 11 12  2  0  0  0
 21 27  1  0  0  0
 30 31  1  0  0  0
M  CHG 1   9  -1
M  CHG 1  21   1
M  END
> <minimizedAffinity>
-8.05846

$$$$
2087


 32 35  0  0  0  0  0  0  0  0999 V2000
    2.2064    8.1976  -14.1499 N   0  0  0  0  0  0  0  0  0  0  0  0
    3.5529    7.9296  -14.1471 C   0  0  0  0  0  0  0  0  0  0  0  0
    3.7855    6.7413  -13.4835 C   0  0  0  0  0  0  0  0  0  0  0  0
    2.5804    6.3132  -13.0954 N   0  0  0  0  0  0  0  0  0  0  0  0
    1.6134    7.1984  -13.4961 C   0  0  0  0  0  0  0  0  0  0  0  0
    5.0355    6.2607  -13.3377 N   0  0  0  0  0  0  0  0  0  0  0  0
    6.0510    6.9679  -13.8530 C   0  0  0  0  0  0  0  0  0  0  0  0
    7.2126    6.5099  -13.7107 O   0  0  0  0  0  0  0  0  0  0  0  0
    5.8660    8.1236  -14.5000 N   0  0  0  0  0  0  0  0  0  0  0  0
    4.6124    8.6418  -14.6682 C   0  0  0  0  0  0  0  0  0  0  0  0
    4.4730    9.7296  -15.2774 O   0  0  0  0  0  0  0  0  0  0  0  0
    5.2347    5.0044  -12.6386 C   0  0  0  0  0  0  0  0  0  0  0  0
    6.6751    8.6668  -14.8959 H   0  0  0  0  0  0  0  0  0  0  0  0
    0.2675    7.0353  -13.1313 N   0  0  0  0  0  0  0  0  0  0  0  0
   -0.6583    6.0208  -13.4886 C   0  0  0  0  0  0  0  0  0  0  0  0
   -2.1055    6.5252  -13.4743 C   0  0  0  0  0  0  0  0  0  0  0  0
   -2.2693    7.9091  -13.6505 N   0  0  0  0  0  0  0  0  0  0  0  0
   -1.4495    8.7636  -12.8854 C   0  0  0  0  0  0  0  0  0  0  0  0
   -0.2946    8.0604  -12.2097 C   0  0  0  0  0  0  0  0  0  0  0  0
   -2.8778    8.4074  -14.8139 C   0  0  0  0  0  0  0  0  0  0  0  0
   -4.2747    8.0232  -15.0670 C   0  0  0  0  0  0  0  0  0  0  0  0
   -4.6250    7.3613  -16.0801 O   0  0  0  0  0  0  0  0  0  0  0  0
   -5.2583    8.3913  -14.1743 O   0  0  0  0  0  0  0  0  0  0  0  0
   -5.5109    9.7275  -13.8361 C   0  0  0  0  0  0  0  0  0  0  0  0
    1.6165    9.3474  -14.7864 C   0  0  0  0  0  0  0  0  0  0  0  0
    1.9667   14.3683  -11.2077 Br  0  0  0  0  0  0  0  0  0  0  0  0
    1.8624   12.8251  -12.3236 C   0  0  0  0  0  0  0  0  0  0  0  0
    0.8100   12.6470  -13.1937 C   0  0  0  0  0  0  0  0  0  0  0  0
    0.7492   11.5109  -14.0019 C   0  0  0  0  0  0  0  0  0  0  0  0
    1.7458   10.5839  -13.9157 C   0  0  0  0  0  0  0  0  0  0  0  0
    2.7958   10.7452  -13.0584 C   0  0  0  0  0  0  0  0  0  0  0  0
    2.8568   11.8630  -12.2632 C   0  0  0  0  0  0  0  0  0  0  0  0
 26 27  1  0  0  0
 27 28  2  0  0  0
 27 32  1  0  0  0
 28 29  1  0  0  0
 29 30  2  0  0  0
 30 31  1  0  0  0
 30 25  1  0  0  0
 31 32  2  0  0  0
 25  1  1  0  0  0
  1  2  1  0  0  0
  1  5  1  0  0  0
  2  3  2  0  0  0
  2 10  1  0  0  0
  3  4  1  0  0  0
  3  6  1  0  0  0
  4  5  2  0  0  0
  5 14  1  0  0  0
 14 15  1  0  0  0
 14 19  1  0  0  0
 15 16  1  0  0  0
 16 17  1  0  0  0
 17 18  1  0  0  0
 17 20  1  0  0  0
 18 19  1  0  0  0
 20 21  1  0  0  0
 21 22  2  0  0  0
 21 23  1  0  0  0
 23 24  1  0  0  0
  6  7  1  0  0  0
  6 12  1  0  0  0
  7  8  2  0  0  0
  7  9  1  0  0  0
  9 10  1  0  0  0
 10 11  2  0  0  0
  9 13  1  0  0  0
M  END
> <minimizedAffinity>
-7.49187

$$$$
2091


 28 31  0  0  0  0  0  0  0  0999 V2000
    1.6873    8.2054  -12.8479 N   0  0  0  0  0  0  0  0  0  0  0  0
    2.2532    6.9972  -12.7120 C   0  0  0  0  0  0  0  0  0  0  0  0
    3.5016    7.0210  -13.2928 C   0  0  0  0  0  0  0  0  0  0  0  0
    3.6575    8.2478  -13.7658 N   0  0  0  0  0  0  0  0  0  0  0  0
    2.5720    8.9915  -13.5102 C   0  0  0  0  0  0  0  0  0  0  0  0
    4.3393    5.9541  -13.3165 N   0  0  0  0  0  0  0  0  0  0  0  0
    3.9027    4.8270  -12.7319 C   0  0  0  0  0  0  0  0  0  0  0  0
    4.6906    3.8482  -12.7644 O   0  0  0  0  0  0  0  0  0  0  0  0
    2.6961    4.7417  -12.1453 N   0  0  0  0  0  0  0  0  0  0  0  0
    1.8571    5.7938  -12.1169 C   0  0  0  0  0  0  0  0  0  0  0  0
    0.7405    5.7492  -11.5827 O   0  0  0  0  0  0  0  0  0  0  0  0
    5.6334    6.0725  -13.9544 C   0  0  0  0  0  0  0  0  0  0  0  0
    2.3667    3.8627  -11.6913 H   0  0  0  0  0  0  0  0  0  0  0  0
    2.3661   10.3649  -13.8669 N   0  0  0  0  0  0  0  0  0  0  0  0
    3.4727   11.0783  -14.4653 C   0  0  0  0  0  0  0  0  0  0  0  0
    3.8865   12.1837  -13.5049 C   0  0  0  0  0  0  0  0  0  0  0  0
    2.8391   12.5717  -12.6203 N   0  0  0  0  0  0  0  0  0  0  0  0
    1.5131   12.4577  -13.1300 C   0  0  0  0  0  0  0  0  0  0  0  0
    1.1443   11.0963  -13.6613 C   0  0  0  0  0  0  0  0  0  0  0  0
    3.0227   12.3276  -11.2402 C   0  0  0  0  0  0  0  0  0  0  0  0
    0.3783    8.6015  -12.3886 C   0  0  0  0  0  0  0  0  0  0  0  0
   -4.7129    7.5195  -15.7061 Br  0  0  0  0  0  0  0  0  0  0  0  0
   -3.1089    7.8085  -14.7180 C   0  0  0  0  0  0  0  0  0  0  0  0
   -2.0834    6.8687  -14.6909 C   0  0  0  0  0  0  0  0  0  0  0  0
   -0.9394    7.1348  -13.9406 C   0  0  0  0  0  0  0  0  0  0  0  0
   -0.7619    8.2757  -13.2215 C   0  0  0  0  0  0  0  0  0  0  0  0
   -1.8257    9.1968  -13.2797 C   0  0  0  0  0  0  0  0  0  0  0  0
   -2.9731    8.9768  -14.0054 C   0  0  0  0  0  0  0  0  0  0  0  0
 22 23  1  0  0  0
 23 24  2  0  0  0
 23 28  1  0  0  0
 24 25  1  0  0  0
 25 26  2  0  0  0
 26 27  1  0  0  0
 26 21  1  0  0  0
 27 28  2  0  0  0
 21  1  1  0  0  0
  1  2  1  0  0  0
  1  5  1  0  0  0
  2  3  2  0  0  0
  2 10  1  0  0  0
  3  4  1  0  0  0
  3  6  1  0  0  0
  4  5  2  0  0  0
  5 14  1  0  0  0
 14 15  1  0  0  0
 14 19  1  0  0  0
 15 16  1  0  0  0
 16 17  1  0  0  0
 17 18  1  0  0  0
 17 20  1  0  0  0
 18 19  1  0  0  0
  6  7  1  0  0  0
  6 12  1  0  0  0
  7  8  2  0  0  0
  7  9  1  0  0  0
  9 10  1  0  0  0
 10 11  2  0  0  0
  9 13  1  0  0  0
M  END
> <minimizedAffinity>
-7.95868

$$$$
2103


 29 32  0  0  0  0  0  0  0  0999 V2000
   -2.1159    9.4366  -13.4957 C   0  0  0  0  0  0  0  0  0  0  0  0
   -1.7766    8.0865  -13.8648 C   0  0  0  0  0  0  0  0  0  0  0  0
   -0.4962    7.7644  -14.1294 C   0  0  0  0  0  0  0  0  0  0  0  0
    0.5267    8.7273  -14.0520 C   0  0  0  0  0  0  0  0  0  0  0  0
    0.2206   10.0203  -13.7035 C   0  0  0  0  0  0  0  0  0  0  0  0
   -1.1114   10.3685  -13.4280 C   0  0  0  0  0  0  0  0  0  0  0  0
   -1.4736   11.7807  -13.1429 C   0  0  0  0  0  0  0  0  0  0  0  0
   -0.4137   12.7847  -13.5836 C   0  0  0  0  0  0  0  0  0  0  0  0
    0.9112   12.3736  -13.1825 N   0  0  0  0  0  0  0  0  0  0  0  0
    1.2581   11.0396  -13.5795 C   0  0  0  0  0  0  0  0  0  0  0  0
    2.4670   10.8219  -13.8022 O   0  0  0  0  0  0  0  0  0  0  0  0
    1.8091   13.2345  -12.4430 C   0  0  0  0  0  0  0  0  0  0  0  0
    1.7801    8.3262  -14.3300 O   0  0  0  0  0  0  0  0  0  0  0  0
   -0.4720    6.3998  -14.4562 O   0  0  0  0  0  0  0  0  0  0  0  0
   -1.7169    5.8101  -14.1467 C   0  0  0  0  0  0  0  0  0  0  0  0
   -2.5594    6.9385  -14.0198 O   0  0  0  0  0  0  0  0  0  0  0  0
    2.6160    8.8015  -14.3417 H   0  0  0  0  0  0  0  0  0  0  0  0
   -3.5341    9.5727  -13.2408 C   0  0  0  0  0  0  0  0  0  0  0  0
   -5.8889    9.9907  -13.6821 C   0  0  0  0  0  0  0  0  0  0  0  0
   -6.1079    9.6468  -12.5085 O   0  0  0  0  0  0  0  0  0  0  0  0
   -4.4943    9.9812  -14.1696 N   0  0  0  0  0  0  0  0  0  0  0  0
   -4.4357   10.3221  -15.1402 H   0  0  0  0  0  0  0  0  0  0  0  0
   -9.8066   13.3682  -14.9770 Br  0  0  0  0  0  0  0  0  0  0  0  0
   -8.7409   11.8067  -15.2473 C   0  0  0  0  0  0  0  0  0  0  0  0
   -8.9685   10.9901  -16.3092 C   0  0  0  0  0  0  0  0  0  0  0  0
   -8.2331    9.8975  -16.5105 N   0  0  0  0  0  0  0  0  0  0  0  0
   -7.2486    9.5920  -15.6530 C   0  0  0  0  0  0  0  0  0  0  0  0
   -6.9710   10.3913  -14.5497 C   0  0  0  0  0  0  0  0  0  0  0  0
   -7.7258   11.5218  -14.3351 C   0  0  0  0  0  0  0  0  0  0  0  0
 23 24  1  0  0  0
 24 25  2  0  0  0
 24 29  1  0  0  0
 25 26  1  0  0  0
 26 27  2  0  0  0
 27 28  1  0  0  0
 28 29  2  0  0  0
 28 19  1  0  0  0
 19 20  2  0  0  0
 19 21  1  0  0  0
 21 18  1  0  0  0
 18  1  1  0  0  0
  1  2  2  0  0  0
  1  6  1  0  0  0
  2  3  1  0  0  0
  2 16  1  0  0  0
  3  4  2  0  0  0
  3 14  1  0  0  0
  4  5  1  0  0  0
  4 13  1  0  0  0
  5  6  2  0  0  0
  5 10  1  0  0  0
  6  7  1  0  0  0
  7  8  1  0  0  0
  8  9  1  0  0  0
  9 10  1  0  0  0
  9 12  1  0  0  0
 10 11  2  0  0  0
 14 15  1  0  0  0
 15 16  1  0  0  0
 21 22  1  0  0  0
 13 17  1  0  0  0
M  END
> <minimizedAffinity>
-9.69964

$$$$
2105


 29 32  0  0  0  0  0  0  0  0999 V2000
    5.2252    7.6909  -13.0914 Cl  0  0  0  0  0  0  0  0  0  0  0  0
    3.8451    8.1356  -14.0735 C   0  0  0  0  0  0  0  0  0  0  0  0
    2.5670    8.1938  -13.5173 C   0  0  0  0  0  0  0  0  0  0  0  0
    1.4674    8.5349  -14.2475 C   0  0  0  0  0  0  0  0  0  0  0  0
    1.6800    8.8273  -15.5879 C   0  0  0  0  0  0  0  0  0  0  0  0
    2.9347    8.7764  -16.1551 C   0  0  0  0  0  0  0  0  0  0  0  0
    4.0328    8.4291  -15.4010 C   0  0  0  0  0  0  0  0  0  0  0  0
    0.2787    8.5013  -13.3708 C   0  0  0  0  0  0  0  0  0  0  0  0
   -0.6945    7.4547  -13.8514 C   0  0  0  0  0  0  0  0  0  0  0  0
   -1.9388    7.7105  -14.1449 C   0  0  0  0  0  0  0  0  0  0  0  0
   -2.4823    9.0239  -14.0327 N   0  0  0  0  0  0  0  0  0  0  0  0
   -1.6356   10.0686  -13.5881 C   0  0  0  0  0  0  0  0  0  0  0  0
   -0.3805    9.8224  -13.2888 C   0  0  0  0  0  0  0  0  0  0  0  0
   -2.1087   11.4118  -13.4491 N   0  0  0  0  0  0  0  0  0  0  0  0
   -2.5946    6.4597  -14.5775 C   0  0  0  0  0  0  0  0  0  0  0  0
   -1.6286    5.4855  -14.5055 O   0  0  0  0  0  0  0  0  0  0  0  0
   -0.4462    6.0348  -14.0669 C   0  0  0  0  0  0  0  0  0  0  0  0
    0.6731    5.4432  -13.8751 O   0  0  0  0  0  0  0  0  0  0  0  0
   -3.1740    6.6601  -15.9602 C   0  0  0  0  0  0  0  0  0  0  0  0
   -3.7371    6.0727  -13.6562 C   0  0  0  0  0  0  0  0  0  0  0  0
    0.8093    8.1019  -12.0463 C   0  0  0  0  0  0  0  0  0  0  0  0
    0.1320    7.9425  -10.9684 O   0  0  0  0  0  0  0  0  0  0  0  0
    2.2017    7.9230  -12.1748 N   0  0  0  0  0  0  0  0  0  0  0  0
   -3.4756    9.2353  -14.2660 H   0  0  0  0  0  0  0  0  0  0  0  0
   -2.6068   11.8767  -14.2196 H   0  0  0  0  0  0  0  0  0  0  0  0
   -1.9387   11.9004  -12.5620 H   0  0  0  0  0  0  0  0  0  0  0  0
    2.8379    7.6337  -11.3708 H   0  0  0  0  0  0  0  0  0  0  0  0
    0.4552   10.9255  -12.8355 C   0  0  0  0  0  0  0  0  0  0  0  0
    1.1213   11.8068  -12.4917 N   0  0  0  0  0  0  0  0  0  0  0  0
  1  2  1  0  0  0
  2  3  2  0  0  0
  2  7  1  0  0  0
  3  4  1  0  0  0
  3 23  1  0  0  0
  4  5  2  0  0  0
  4  8  1  0  0  0
  5  6  1  0  0  0
  6  7  2  0  0  0
  8  9  1  0  0  0
  8 13  1  0  0  0
  8 21  1  0  0  0
  9 10  2  0  0  0
  9 17  1  0  0  0
 10 11  1  0  0  0
 10 15  1  0  0  0
 11 12  1  0  0  0
 12 13  2  0  0  0
 12 14  1  0  0  0
 13 28  1  0  0  0
 28 29  3  0  0  0
 15 16  1  0  0  0
 15 19  1  0  0  0
 15 20  1  0  0  0
 16 17  1  0  0  0
 17 18  2  0  0  0
 21 22  2  0  0  0
 21 23  1  0  0  0
 11 24  1  0  0  0
 14 25  1  0  0  0
 14 26  1  0  0  0
 23 27  1  0  0  0
M  END
> <minimizedAffinity>
-4.80091

$$$$
2109


 21 24  0  0  0  0  0  0  0  0999 V2000
    0.8679    8.6548  -13.4726 N   0  0  0  0  0  0  0  0  0  0  0  0
    1.9344    8.7579  -14.4274 C   0  0  0  0  0  0  0  0  0  0  0  0
    1.8119    8.7752  -15.6774 O   0  0  0  0  0  0  0  0  0  0  0  0
    3.2347    8.8414  -13.7236 C   0  0  0  0  0  0  0  0  0  0  0  0
    4.0080    9.9136  -14.1543 O   0  0  0  0  0  0  0  0  0  0  0  0
    3.3955   11.0306  -13.7980 N   0  0  0  0  0  0  0  0  0  0  0  0
    2.5499   10.8201  -12.7071 C   0  0  0  0  0  0  0  0  0  0  0  0
    2.7854    9.3497  -12.3578 C   0  0  0  0  0  0  0  0  0  0  0  0
    1.5031    8.6239  -12.1950 C   0  0  0  0  0  0  0  0  0  0  0  0
    1.0120    8.0692  -11.1669 O   0  0  0  0  0  0  0  0  0  0  0  0
    2.6423   11.7068  -11.5392 C   0  0  0  0  0  0  0  0  0  0  0  0
    3.5918   12.8380  -11.5977 C   0  0  0  0  0  0  0  0  0  0  0  0
    3.6614   13.3422  -13.0223 C   0  0  0  0  0  0  0  0  0  0  0  0
    4.1752   12.1969  -13.8555 C   0  0  0  0  0  0  0  0  0  0  0  0
   -5.0499    8.4773  -14.5110 Cl  0  0  0  0  0  0  0  0  0  0  0  0
   -3.3222    8.5272  -14.2083 C   0  0  0  0  0  0  0  0  0  0  0  0
   -2.5392    7.4109  -14.4173 C   0  0  0  0  0  0  0  0  0  0  0  0
   -1.1764    7.4597  -14.1753 C   0  0  0  0  0  0  0  0  0  0  0  0
   -0.5370    8.5946  -13.7249 C   0  0  0  0  0  0  0  0  0  0  0  0
   -1.3329    9.7122  -13.5176 C   0  0  0  0  0  0  0  0  0  0  0  0
   -2.6932    9.6691  -13.7578 C   0  0  0  0  0  0  0  0  0  0  0  0
 15 16  1  0  0  0
 16 17  2  0  0  0
 16 21  1  0  0  0
 17 18  1  0  0  0
 18 19  2  0  0  0
 19 20  1  0  0  0
 19  1  1  0  0  0
 20 21  2  0  0  0
  1  2  1  0  0  0
  1  9  1  0  0  0
  2  3  2  0  0  0
  2  4  1  0  0  0
  4  5  1  0  0  0
  4  8  1  0  0  0
  5  6  1  0  0  0
  6  7  1  0  0  0
  6 14  1  0  0  0
  7  8  1  0  0  0
  7 11  1  0  0  0
  8  9  1  0  0  0
  9 10  2  0  0  0
 11 12  1  0  0  0
 12 13  1  0  0  0
 13 14  1  0  0  0
M  END
> <minimizedAffinity>
-7.36697

$$$$
2116


 33 36  0  0  0  0  0  0  0  0999 V2000
    2.0861    9.7144  -14.7028 C   0  0  0  0  0  0  0  0  0  0  0  0
    1.9487   10.9320  -14.2027 N   0  0  0  0  0  0  0  0  0  0  0  0
    0.8998   11.3340  -13.4640 C   0  0  0  0  0  0  0  0  0  0  0  0
   -0.0633   10.4162  -13.2303 N   0  0  0  0  0  0  0  0  0  0  0  0
    0.0211    9.1488  -13.7162 C   0  0  0  0  0  0  0  0  0  0  0  0
    1.1098    8.8161  -14.4533 N   0  0  0  0  0  0  0  0  0  0  0  0
   -0.9989    8.2059  -13.4780 N   0  0  0  0  0  0  0  0  0  0  0  0
   -2.3590    8.4544  -13.8817 C   0  0  0  0  0  0  0  0  0  0  0  0
   -2.7646    7.2294  -14.7144 C   0  0  0  0  0  0  0  0  0  0  0  0
   -2.5148    6.0867  -13.9819 O   0  0  0  0  0  0  0  0  0  0  0  0
   -1.1421    5.8791  -13.8534 C   0  0  0  0  0  0  0  0  0  0  0  0
   -0.6886    6.9518  -12.8399 C   0  0  0  0  0  0  0  0  0  0  0  0
    0.7926   12.6702  -12.9456 N   0  0  0  0  0  0  0  0  0  0  0  0
    1.9310   13.3543  -12.4016 C   0  0  0  0  0  0  0  0  0  0  0  0
    1.7719   14.7998  -12.1325 C   0  0  0  0  0  0  0  0  0  0  0  0
    0.4557   15.2383  -12.0921 O   0  0  0  0  0  0  0  0  0  0  0  0
   -0.2780   14.7916  -13.1825 C   0  0  0  0  0  0  0  0  0  0  0  0
   -0.4893   13.3103  -12.9862 C   0  0  0  0  0  0  0  0  0  0  0  0
    3.2172    9.3894  -15.5014 N   0  0  0  0  0  0  0  0  0  0  0  0
    3.4216    9.9494  -16.3374 H   0  0  0  0  0  0  0  0  0  0  0  0
    4.8967    8.3554  -14.2004 C   0  0  0  0  0  0  0  0  0  0  0  0
    4.0372    8.3269  -15.1601 N   0  0  0  0  0  0  0  0  0  0  0  0
    9.7418    6.0558  -14.0382 Br  0  0  0  0  0  0  0  0  0  0  0  0
    7.8638    6.0679  -13.7418 C   0  0  0  0  0  0  0  0  0  0  0  0
    7.2819    4.9401  -13.1846 C   0  0  0  0  0  0  0  0  0  0  0  0
    5.9151    4.9708  -12.9841 C   0  0  0  0  0  0  0  0  0  0  0  0
    5.1721    6.0714  -13.3245 C   0  0  0  0  0  0  0  0  0  0  0  0
    5.7356    7.2178  -13.8841 C   0  0  0  0  0  0  0  0  0  0  0  0
    7.0989    7.1690  -14.0771 C   0  0  0  0  0  0  0  0  0  0  0  0
    3.7885    6.0950  -13.1202 O   0  0  0  0  0  0  0  0  0  0  0  0
    8.0271    3.8159  -12.8357 O   0  0  0  0  0  0  0  0  0  0  0  0
    3.3486    5.2741  -12.7152 H   0  0  0  0  0  0  0  0  0  0  0  0
    9.0263    3.7462  -12.9564 H   0  0  0  0  0  0  0  0  0  0  0  0
 23 24  1  0  0  0
 24 25  2  0  0  0
 24 29  1  0  0  0
 25 26  1  0  0  0
 25 31  1  0  0  0
 26 27  2  0  0  0
 27 28  1  0  0  0
 27 30  1  0  0  0
 28 29  2  0  0  0
 28 21  1  0  0  0
 21 22  2  0  0  0
 22 19  1  0  0  0
 19  1  1  0  0  0
  1  2  2  0  0  0
  1  6  1  0  0  0
  2  3  1  0  0  0
  3  4  2  0  0  0
  3 13  1  0  0  0
  4  5  1  0  0  0
  5  6  2  0  0  0
  5  7  1  0  0  0
  7  8  1  0  0  0
  7 12  1  0  0  0
  8  9  1  0  0  0
  9 10  1  0  0  0
 10 11  1  0  0  0
 11 12  1  0  0  0
 13 14  1  0  0  0
 13 18  1  0  0  0
 14 15  1  0  0  0
 15 16  1  0  0  0
 16 17  1  0  0  0
 17 18  1  0  0  0
 19 20  1  0  0  0
 30 32  1  0  0  0
 31 33  1  0  0  0
M  END
> <minimizedAffinity>
-8.76690

$$$$
2121


 31 34  0  0  0  0  0  0  0  0999 V2000
    2.0876    5.7497  -11.9235 C   0  0  0  0  0  0  0  0  0  0  0  0
    2.6814    6.6370  -11.1142 O   0  0  0  0  0  0  0  0  0  0  0  0
    0.7199    5.9084  -11.9930 N   0  0  0  0  0  0  0  0  0  0  0  0
    0.2648    7.0663  -11.1731 C   0  0  0  0  0  0  0  0  0  0  0  0
    0.2741    8.3145  -12.0344 C   0  0  0  0  0  0  0  0  0  0  0  0
    0.2078    7.8888  -13.4513 C   0  0  0  0  0  0  0  0  0  0  0  0
   -1.0277    7.0929  -13.7207 C   0  0  0  0  0  0  0  0  0  0  0  0
   -0.5486    5.6787  -14.0920 C   0  0  0  0  0  0  0  0  0  0  0  0
   -0.1480    5.0634  -12.7379 C   0  0  0  0  0  0  0  0  0  0  0  0
   -1.8396    7.6272  -14.7192 O   0  0  0  0  0  0  0  0  0  0  0  0
   -1.7261    8.6302  -14.6519 H   0  0  0  0  0  0  0  0  0  0  0  0
    8.2800    2.3427  -14.7165 Cl  0  0  0  0  0  0  0  0  0  0  0  0
    6.6080    2.6295  -14.2268 C   0  0  0  0  0  0  0  0  0  0  0  0
    6.2909    3.8328  -13.6840 C   0  0  0  0  0  0  0  0  0  0  0  0
    4.9588    4.0293  -13.3038 C   0  0  0  0  0  0  0  0  0  0  0  0
    4.0130    3.0767  -13.4611 C   0  0  0  0  0  0  0  0  0  0  0  0
    2.8392    3.5929  -12.9851 N   0  0  0  0  0  0  0  0  0  0  0  0
    3.0153    4.8369  -12.5337 C   0  0  0  0  0  0  0  0  0  0  0  0
    4.3629    5.1345  -12.7288 C   0  0  0  0  0  0  0  0  0  0  0  0
    4.3488    1.8688  -14.0101 C   0  0  0  0  0  0  0  0  0  0  0  0
    5.6605    1.6408  -14.3977 C   0  0  0  0  0  0  0  0  0  0  0  0
    1.9728    3.0408  -13.0202 H   0  0  0  0  0  0  0  0  0  0  0  0
    0.3906    8.8811  -14.4624 N   0  0  0  0  0  0  0  0  0  0  0  0
    1.6052    8.7541  -15.2276 C   0  0  0  0  0  0  0  0  0  0  0  0
    2.8110    8.9463  -14.3885 C   0  0  0  0  0  0  0  0  0  0  0  0
    2.6677   10.2572  -13.7455 N   0  0  0  0  0  0  0  0  0  0  0  0
    1.4837   10.9994  -14.0924 C   0  0  0  0  0  0  0  0  0  0  0  0
    0.2023   10.2267  -13.9921 C   0  0  0  0  0  0  0  0  0  0  0  0
    3.6789   10.7297  -12.8545 C   0  0  0  0  0  0  0  0  0  0  0  0
    3.5418   11.8313  -12.3064 O   0  0  0  0  0  0  0  0  0  0  0  0
    4.8785    9.8664  -12.6163 C   0  0  0  0  0  0  0  0  0  0  0  0
 12 13  1  0  0  0
 13 14  2  0  0  0
 13 21  1  0  0  0
 14 15  1  0  0  0
 15 16  2  0  0  0
 15 19  1  0  0  0
 16 17  1  0  0  0
 16 20  1  0  0  0
 17 18  1  0  0  0
 18 19  2  0  0  0
 18  1  1  0  0  0
  1  2  2  0  0  0
  1  3  1  0  0  0
  3  4  1  0  0  0
  3  9  1  0  0  0
  4  5  1  0  0  0
  5  6  1  0  0  0
  6  7  1  0  0  0
  6 23  1  0  0  0
  7  8  1  0  0  0
  7 10  1  0  0  0
  8  9  1  0  0  0
 23 24  1  0  0  0
 23 28  1  0  0  0
 24 25  1  0  0  0
 25 26  1  0  0  0
 26 27  1  0  0  0
 26 29  1  0  0  0
 27 28  1  0  0  0
 29 30  2  0  0  0
 29 31  1  0  0  0
 20 21  2  0  0  0
 17 22  1  0  0  0
 10 11  1  0  0  0
M  END
> <minimizedAffinity>
-5.51246

$$$$
2122


 29 32  0  0  0  0  0  0  0  0999 V2000
    3.0747   11.5387  -13.2548 C   0  0  0  0  0  0  0  0  0  0  0  0
    3.6406   11.6624  -12.0418 N   0  0  0  0  0  0  0  0  0  0  0  0
    3.1586   12.6989  -11.4171 O   0  0  0  0  0  0  0  0  0  0  0  0
    2.2759   13.2593  -12.2192 C   0  0  0  0  0  0  0  0  0  0  0  0
    2.2119   12.5585  -13.3547 N   0  0  0  0  0  0  0  0  0  0  0  0
    1.5176   14.4893  -11.8110 C   0  0  0  0  0  0  0  0  0  0  0  0
    2.1167   15.0897  -10.8530 O   0  0  0  0  0  0  0  0  0  0  0  0
    0.3748   14.8244  -12.4371 N   0  0  0  0  0  0  0  0  0  0  0  0
    0.3007   15.9621  -11.6741 H   0  0  0  0  0  0  0  0  0  0  0  0
   -0.8002   15.1834  -13.0699 C   0  0  0  0  0  0  0  0  0  0  0  0
   -0.9280   16.6928  -13.3076 C   0  0  0  0  0  0  0  0  0  0  0  0
   -1.9315   17.3312  -12.5519 N   0  0  0  0  0  0  0  0  0  0  0  0
   -2.9856   17.7808  -13.3743 C   0  0  0  0  0  0  0  0  0  0  0  0
   -3.7225   18.9463  -12.8052 C   0  0  0  0  0  0  0  0  0  0  0  0
   -3.8907   18.7540  -11.4580 O   0  0  0  0  0  0  0  0  0  0  0  0
   -2.7134   18.7804  -10.7351 C   0  0  0  0  0  0  0  0  0  0  0  0
   -1.5760   18.0790  -11.4166 C   0  0  0  0  0  0  0  0  0  0  0  0
    3.3592   10.4520  -14.2317 C   0  0  0  0  0  0  0  0  0  0  0  0
   -2.3888   10.2544  -13.4429 Cl  0  0  0  0  0  0  0  0  0  0  0  0
   -0.9579    9.2379  -13.3709 C   0  0  0  0  0  0  0  0  0  0  0  0
    0.2772    9.8049  -13.6707 C   0  0  0  0  0  0  0  0  0  0  0  0
    1.4050    8.9981  -13.6114 C   0  0  0  0  0  0  0  0  0  0  0  0
    1.2418    7.6578  -13.2530 C   0  0  0  0  0  0  0  0  0  0  0  0
    0.0231    7.1170  -12.9626 C   0  0  0  0  0  0  0  0  0  0  0  0
   -1.0847    7.9059  -13.0202 C   0  0  0  0  0  0  0  0  0  0  0  0
    2.4440    7.1702  -13.2856 O   0  0  0  0  0  0  0  0  0  0  0  0
    3.3287    8.0716  -13.6281 C   0  0  0  0  0  0  0  0  0  0  0  0
    4.5628    7.8375  -13.7293 O   0  0  0  0  0  0  0  0  0  0  0  0
    2.6987    9.2405  -13.8399 N   0  0  0  0  0  0  0  0  0  0  0  0
 19 20  1  0  0  0
 20 21  2  0  0  0
 20 25  1  0  0  0
 21 22  1  0  0  0
 22 23  2  0  0  0
 22 29  1  0  0  0
 23 24  1  0  0  0
 23 26  1  0  0  0
 24 25  2  0  0  0
 26 27  1  0  0  0
 27 28  2  0  0  0
 27 29  1  0  0  0
 29 18  1  0  0  0
 18  1  1  0  0  0
  1  2  2  0  0  0
  1  5  1  0  0  0
  2  3  1  0  0  0
  3  4  1  0  0  0
  4  5  2  0  0  0
  4  6  1  0  0  0
  6  7  2  0  0  0
  6  8  1  0  0  0
  8 10  1  0  0  0
 10 11  1  0  0  0
 11 12  1  0  0  0
 12 13  1  0  0  0
 12 17  1  0  0  0
 13 14  1  0  0  0
 14 15  1  0  0  0
 15 16  1  0  0  0
 16 17  1  0  0  0
  8  9  1  0  0  0
M  END
> <minimizedAffinity>
-8.81557

$$$$
2124


 25 29  0  0  0  0  0  0  0  0999 V2000
    3.6323    7.2992  -13.8182 N   0  0  0  0  0  0  0  0  0  0  0  0
    2.3980    6.9134  -13.2319 C   0  0  0  0  0  0  0  0  0  0  0  0
    2.2633    6.0573  -12.3181 O   0  0  0  0  0  0  0  0  0  0  0  0
    1.2615    7.6707  -13.8546 C   0  0  0  0  0  0  0  0  0  0  0  0
    0.4831    8.4174  -12.8238 C   0  0  0  0  0  0  0  0  0  0  0  0
    0.4036    9.7403  -13.3251 O   0  0  0  0  0  0  0  0  0  0  0  0
    1.7969    9.9148  -13.5261 C   0  0  0  0  0  0  0  0  0  0  0  0
    2.0057    8.8135  -14.5607 C   0  0  0  0  0  0  0  0  0  0  0  0
    3.3912    8.3893  -14.6989 C   0  0  0  0  0  0  0  0  0  0  0  0
    4.2214    8.9203  -15.4803 O   0  0  0  0  0  0  0  0  0  0  0  0
    2.3111    9.5315  -12.1899 C   0  0  0  0  0  0  0  0  0  0  0  0
    1.4112    8.6684  -11.6752 C   0  0  0  0  0  0  0  0  0  0  0  0
    2.1782   11.2606  -13.9830 C   0  0  0  0  0  0  0  0  0  0  0  0
    9.0883    4.9038  -13.0288 Cl  0  0  0  0  0  0  0  0  0  0  0  0
    7.4957    5.6329  -13.2581 C   0  0  0  0  0  0  0  0  0  0  0  0
    7.3408    6.9899  -13.4077 C   0  0  0  0  0  0  0  0  0  0  0  0
    6.0786    7.5270  -13.5897 C   0  0  0  0  0  0  0  0  0  0  0  0
    4.9419    6.7561  -13.6289 C   0  0  0  0  0  0  0  0  0  0  0  0
    5.0953    5.3900  -13.4794 C   0  0  0  0  0  0  0  0  0  0  0  0
    6.3656    4.8476  -13.2970 C   0  0  0  0  0  0  0  0  0  0  0  0
   -0.8213    7.8646  -12.4384 C   0  0  0  0  0  0  0  0  0  0  0  0
   -1.8036    8.8216  -12.7011 O   0  0  0  0  0  0  0  0  0  0  0  0
   -2.2231    8.6607  -13.9976 C   0  0  0  0  0  0  0  0  0  0  0  0
   -1.9610    7.2001  -14.2527 C   0  0  0  0  0  0  0  0  0  0  0  0
   -1.1231    6.7697  -13.2485 O   0  0  0  0  0  0  0  0  0  0  0  0
 14 15  1  0  0  0
 15 16  2  0  0  0
 15 20  1  0  0  0
 16 17  1  0  0  0
 17 18  2  0  0  0
 18 19  1  0  0  0
 18  1  1  0  0  0
 19 20  2  0  0  0
  1  2  1  0  0  0
  1  9  1  0  0  0
  2  3  2  0  0  0
  2  4  1  0  0  0
  4  5  1  0  0  0
  4  8  1  0  0  0
  5  6  1  0  0  0
  5 12  1  0  0  0
  5 21  1  0  0  0
  6  7  1  0  0  0
  7  8  1  0  0  0
  7 11  1  0  0  0
  7 13  1  0  0  0
  8  9  1  0  0  0
  9 10  2  0  0  0
 11 12  2  0  0  0
 21 22  1  0  0  0
 21 25  1  0  0  0
 22 23  1  0  0  0
 23 24  1  0  0  0
 24 25  1  0  0  0
M  END
> <minimizedAffinity>
-7.88747

$$$$
2134


 36 39  0  0  0  0  0  0  0  0999 V2000
   -0.0161   13.6809  -12.6877 C   0  0  0  0  0  0  0  0  0  0  0  0
   -1.0377   12.8815  -12.8763 N   0  0  0  0  0  0  0  0  0  0  0  0
   -0.6574   11.6235  -13.2689 N   0  0  0  0  0  0  0  0  0  0  0  0
    0.7694   11.6501  -13.3271 C   0  0  0  0  0  0  0  0  0  0  0  0
    1.6577   10.7517  -13.6338 N   0  0  0  0  0  0  0  0  0  0  0  0
    3.0485   11.0367  -13.6166 N   0  0  0  0  0  0  0  0  0  0  0  0
    3.5445   12.3058  -13.2675 C   0  0  0  0  0  0  0  0  0  0  0  0
    4.8401   12.5893  -13.2553 C   0  0  0  0  0  0  0  0  0  0  0  0
    2.5642   13.3279  -12.9176 C   0  0  0  0  0  0  0  0  0  0  0  0
    2.9778   14.4493  -12.6067 O   0  0  0  0  0  0  0  0  0  0  0  0
    1.1834   12.9641  -12.9570 N   0  0  0  0  0  0  0  0  0  0  0  0
    3.6759   10.2436  -13.8797 H   0  0  0  0  0  0  0  0  0  0  0  0
   -1.5247   10.5425  -13.5987 C   0  0  0  0  0  0  0  0  0  0  0  0
   -2.7764   10.7615  -14.1199 C   0  0  0  0  0  0  0  0  0  0  0  0
   -3.6444    9.7457  -14.4968 C   0  0  0  0  0  0  0  0  0  0  0  0
   -3.2619    8.4270  -14.3542 C   0  0  0  0  0  0  0  0  0  0  0  0
   -2.0103    8.1817  -13.8299 C   0  0  0  0  0  0  0  0  0  0  0  0
   -1.1599    9.2227  -13.4596 C   0  0  0  0  0  0  0  0  0  0  0  0
   -4.1497    7.3031  -14.7822 C   0  0  0  0  0  0  0  0  0  0  0  0
   -1.1482   15.8772  -12.8065 N   0  0  0  0  0  0  0  0  0  0  0  0
   -0.1194   15.0658  -12.2717 C   0  0  0  0  0  0  0  0  0  0  0  0
    0.7011   15.5698  -11.4400 O   0  0  0  0  0  0  0  0  0  0  0  0
   -1.8552   15.5204  -13.4663 H   0  0  0  0  0  0  0  0  0  0  0  0
   -2.3370   19.2433  -11.5364 N   0  0  0  0  0  0  0  0  0  0  0  0
   -2.3406   17.8896  -11.9152 C   0  0  0  0  0  0  0  0  0  0  0  0
   -3.4208   17.2507  -11.7930 O   0  0  0  0  0  0  0  0  0  0  0  0
   -1.2134   17.2100  -12.4161 N   0  0  0  0  0  0  0  0  0  0  0  0
   -1.4542   19.8043  -11.6339 H   0  0  0  0  0  0  0  0  0  0  0  0
   -0.2889   17.7390  -12.5346 H   0  0  0  0  0  0  0  0  0  0  0  0
   -6.9459   22.2324   -9.3024 Cl  0  0  0  0  0  0  0  0  0  0  0  0
   -5.6026   21.3278  -10.0122 C   0  0  0  0  0  0  0  0  0  0  0  0
   -5.7743   20.6231  -11.1754 C   0  0  0  0  0  0  0  0  0  0  0  0
   -4.6811   19.9408  -11.6615 C   0  0  0  0  0  0  0  0  0  0  0  0
   -3.4501   19.9583  -11.0100 C   0  0  0  0  0  0  0  0  0  0  0  0
   -3.3262   20.6865   -9.8354 C   0  0  0  0  0  0  0  0  0  0  0  0
   -4.4115   21.3721   -9.3388 C   0  0  0  0  0  0  0  0  0  0  0  0
 30 31  1  0  0  0
 31 32  2  0  0  0
 31 36  1  0  0  0
 32 33  1  0  0  0
 33 34  2  0  0  0
 34 35  1  0  0  0
 34 24  1  0  0  0
 35 36  2  0  0  0
 24 25  1  0  0  0
 25 26  2  0  0  0
 25 27  1  0  0  0
 27 20  1  0  0  0
 20 21  1  0  0  0
 21 22  2  0  0  0
 21  1  1  0  0  0
  1  2  2  0  0  0
  1 11  1  0  0  0
  2  3  1  0  0  0
  3  4  1  0  0  0
  3 13  1  0  0  0
  4  5  2  0  0  0
  4 11  1  0  0  0
  5  6  1  0  0  0
  6  7  1  0  0  0
  7  8  2  0  0  0
  7  9  1  0  0  0
  9 10  2  0  0  0
  9 11  1  0  0  0
 13 14  2  0  0  0
 13 18  1  0  0  0
 14 15  1  0  0  0
 15 16  2  0  0  0
 16 17  1  0  0  0
 16 19  1  0  0  0
 17 18  2  0  0  0
 24 28  1  0  0  0
 27 29  1  0  0  0
 20 23  1  0  0  0
  6 12  1  0  0  0
M  END
> <minimizedAffinity>
-11.06123

$$$$
2136


 33 37  0  0  0  0  0  0  0  0999 V2000
   -2.2321    6.5710  -14.2408 Cl  0  0  0  0  0  0  0  0  0  0  0  0
   -0.6276    6.3763  -13.5670 C   0  0  0  0  0  0  0  0  0  0  0  0
    0.4261    7.2027  -13.8997 C   0  0  0  0  0  0  0  0  0  0  0  0
    1.6885    7.0193  -13.3459 C   0  0  0  0  0  0  0  0  0  0  0  0
    1.8265    5.9853  -12.4613 C   0  0  0  0  0  0  0  0  0  0  0  0
    0.7887    5.1522  -12.1172 C   0  0  0  0  0  0  0  0  0  0  0  0
   -0.4468    5.3354  -12.6622 C   0  0  0  0  0  0  0  0  0  0  0  0
    2.5797    8.0483  -13.8947 C   0  0  0  0  0  0  0  0  0  0  0  0
    3.7231    7.4818  -14.5872 N   0  0  0  0  0  0  0  0  0  0  0  0
    4.6162    8.6382  -14.6933 C   0  0  0  0  0  0  0  0  0  0  0  0
    4.4405    9.4295  -13.4534 C   0  0  0  0  0  0  0  0  0  0  0  0
    3.2360    8.8382  -12.7935 C   0  0  0  0  0  0  0  0  0  0  0  0
    2.3978    9.9293  -12.2888 C   0  0  0  0  0  0  0  0  0  0  0  0
    1.4611    9.7711  -11.4663 O   0  0  0  0  0  0  0  0  0  0  0  0
    2.8632   11.1232  -12.9054 N   0  0  0  0  0  0  0  0  0  0  0  0
    3.9727   10.8354  -13.7458 C   0  0  0  0  0  0  0  0  0  0  0  0
    4.5255   11.5728  -14.6067 O   0  0  0  0  0  0  0  0  0  0  0  0
    1.7695    8.8584  -14.8184 C   0  0  0  0  0  0  0  0  0  0  0  0
    2.1137    9.8325  -15.5030 O   0  0  0  0  0  0  0  0  0  0  0  0
    0.4604    8.3084  -14.7897 N   0  0  0  0  0  0  0  0  0  0  0  0
    3.4624    7.1171  -15.5442 H   0  0  0  0  0  0  0  0  0  0  0  0
   -0.3776    8.6475  -15.3347 H   0  0  0  0  0  0  0  0  0  0  0  0
    2.2769   12.4447  -12.6969 C   0  0  0  0  0  0  0  0  0  0  0  0
    3.1179   13.1702  -11.6565 C   0  0  0  0  0  0  0  0  0  0  0  0
    2.3364   14.0308  -10.9020 O   0  0  0  0  0  0  0  0  0  0  0  0
    1.9704   15.1161  -11.6739 C   0  0  0  0  0  0  0  0  0  0  0  0
    6.0412    8.2091  -14.8731 C   0  0  0  0  0  0  0  0  0  0  0  0
    6.5078    7.2078  -13.9000 C   0  0  0  0  0  0  0  0  0  0  0  0
    7.6559    7.5046  -13.1685 C   0  0  0  0  0  0  0  0  0  0  0  0
    8.1039    6.6017  -12.2393 C   0  0  0  0  0  0  0  0  0  0  0  0
    7.4696    5.4076  -11.9921 C   0  0  0  0  0  0  0  0  0  0  0  0
    6.3380    5.1509  -12.7355 C   0  0  0  0  0  0  0  0  0  0  0  0
    5.8439    6.0238  -13.6818 C   0  0  0  0  0  0  0  0  0  0  0  0
  1  2  1  0  0  0
  2  3  2  0  0  0
  2  7  1  0  0  0
  3  4  1  0  0  0
  3 20  1  0  0  0
  4  5  2  0  0  0
  4  8  1  0  0  0
  5  6  1  0  0  0
  6  7  2  0  0  0
  8  9  1  0  0  0
  8 12  1  0  0  0
  8 18  1  0  0  0
  9 10  1  0  0  0
 10 11  1  0  0  0
 10 27  1  0  0  0
 11 12  1  0  0  0
 11 16  1  0  0  0
 12 13  1  0  0  0
 13 14  2  0  0  0
 13 15  1  0  0  0
 15 16  1  0  0  0
 15 23  1  0  0  0
 16 17  2  0  0  0
 23 24  1  0  0  0
 24 25  1  0  0  0
 25 26  1  0  0  0
 27 28  1  0  0  0
 28 29  2  0  0  0
 28 33  1  0  0  0
 29 30  1  0  0  0
 30 31  2  0  0  0
 31 32  1  0  0  0
 32 33  2  0  0  0
 18 19  2  0  0  0
 18 20  1  0  0  0
  9 21  1  0  0  0
 20 22  1  0  0  0
M  END
> <minimizedAffinity>
-6.24646

$$$$
2139


 27 30  0  0  0  0  0  0  0  0999 V2000
   -0.8127    7.0954  -12.7973 N   0  0  0  0  0  0  0  0  0  0  0  0
   -0.4432    5.7366  -12.8292 C   0  0  0  0  0  0  0  0  0  0  0  0
    1.0279    5.4447  -12.9492 C   0  0  0  0  0  0  0  0  0  0  0  0
    1.7271    6.6602  -12.4558 N   0  0  0  0  0  0  0  0  0  0  0  0
    1.1068    7.2600  -11.3361 C   0  0  0  0  0  0  0  0  0  0  0  0
   -0.1638    7.9241  -11.8208 C   0  0  0  0  0  0  0  0  0  0  0  0
    2.9083    7.0271  -13.1350 C   0  0  0  0  0  0  0  0  0  0  0  0
    4.0136    6.2297  -13.0275 N   0  0  0  0  0  0  0  0  0  0  0  0
    5.1920    6.4790  -13.5842 C   0  0  0  0  0  0  0  0  0  0  0  0
    5.3305    7.5974  -14.3160 N   0  0  0  0  0  0  0  0  0  0  0  0
    4.2709    8.4251  -14.4592 C   0  0  0  0  0  0  0  0  0  0  0  0
    4.1119    9.5823  -15.1278 N   0  0  0  0  0  0  0  0  0  0  0  0
    2.8596   10.0117  -14.9708 C   0  0  0  0  0  0  0  0  0  0  0  0
    2.1727    9.1497  -14.2003 N   0  0  0  0  0  0  0  0  0  0  0  0
    3.0289    8.1679  -13.8756 C   0  0  0  0  0  0  0  0  0  0  0  0
    6.3197    5.5919  -13.4297 N   0  0  0  0  0  0  0  0  0  0  0  0
    1.1688    9.2661  -13.9447 H   0  0  0  0  0  0  0  0  0  0  0  0
    7.1948    5.8936  -12.9796 H   0  0  0  0  0  0  0  0  0  0  0  0
    6.2577    4.6150  -13.7793 H   0  0  0  0  0  0  0  0  0  0  0  0
   -1.1523    7.7192  -14.0176 C   0  0  0  0  0  0  0  0  0  0  0  0
   -6.6294   10.1279  -14.3513 Cl  0  0  0  0  0  0  0  0  0  0  0  0
   -5.0323    9.4143  -14.2569 C   0  0  0  0  0  0  0  0  0  0  0  0
   -4.8393    8.1131  -14.6706 C   0  0  0  0  0  0  0  0  0  0  0  0
   -3.5498    7.6023  -14.5725 C   0  0  0  0  0  0  0  0  0  0  0  0
   -2.4830    8.3194  -14.0926 C   0  0  0  0  0  0  0  0  0  0  0  0
   -2.6968    9.6127  -13.6877 C   0  0  0  0  0  0  0  0  0  0  0  0
   -3.9637   10.1365  -13.7766 C   0  0  0  0  0  0  0  0  0  0  0  0
 21 22  1  0  0  0
 22 23  2  0  0  0
 22 27  1  0  0  0
 23 24  1  0  0  0
 24 25  2  0  0  0
 25 26  1  0  0  0
 25 20  1  0  0  0
 26 27  2  0  0  0
 20  1  1  0  0  0
  1  2  1  0  0  0
  1  6  1  0  0  0
  2  3  1  0  0  0
  3  4  1  0  0  0
  4  5  1  0  0  0
  4  7  1  0  0  0
  5  6  1  0  0  0
  7  8  2  0  0  0
  7 15  1  0  0  0
  8  9  1  0  0  0
  9 10  2  0  0  0
  9 16  1  0  0  0
 10 11  1  0  0  0
 11 12  1  0  0  0
 11 15  2  0  0  0
 12 13  2  0  0  0
 13 14  1  0  0  0
 14 15  1  0  0  0
 14 17  1  0  0  0
 16 18  1  0  0  0
 16 19  1  0  0  0
M  END
> <minimizedAffinity>
-7.90563

$$$$
2149


 24 27  0  0  0  0  0  0  0  0999 V2000
    0.2257   15.7872  -12.2582 N   0  0  0  0  0  0  0  0  0  0  0  0
   -0.6628   15.3384  -13.1247 N   0  0  0  0  0  0  0  0  0  0  0  0
   -0.3940   14.0968  -13.4842 N   0  0  0  0  0  0  0  0  0  0  0  0
    0.7045   13.6983  -12.8435 C   0  0  0  0  0  0  0  0  0  0  0  0
    1.0985   14.7661  -12.0668 C   0  0  0  0  0  0  0  0  0  0  0  0
    2.1970   14.6194  -11.3120 N   0  0  0  0  0  0  0  0  0  0  0  0
    2.8889   13.4669  -11.3146 C   0  0  0  0  0  0  0  0  0  0  0  0
    2.4850   12.4384  -12.0812 N   0  0  0  0  0  0  0  0  0  0  0  0
    1.3867   12.4882  -12.8797 C   0  0  0  0  0  0  0  0  0  0  0  0
    0.9602   11.4154  -13.6826 N   0  0  0  0  0  0  0  0  0  0  0  0
    1.7409   10.7107  -14.6642 C   0  0  0  0  0  0  0  0  0  0  0  0
    1.7974    9.2798  -14.2765 C   0  0  0  0  0  0  0  0  0  0  0  0
    0.8561    8.8051  -13.3525 N   0  0  0  0  0  0  0  0  0  0  0  0
   -0.3317    9.5100  -13.1197 C   0  0  0  0  0  0  0  0  0  0  0  0
   -0.3902   10.9257  -13.5559 C   0  0  0  0  0  0  0  0  0  0  0  0
    1.5171    8.5420  -12.0867 C   0  0  0  0  0  0  0  0  0  0  0  0
    0.2950   17.0981  -11.6153 C   0  0  0  0  0  0  0  0  0  0  0  0
   -5.0928   19.7545  -11.9122 Cl  0  0  0  0  0  0  0  0  0  0  0  0
   -3.5180   18.9705  -11.8454 C   0  0  0  0  0  0  0  0  0  0  0  0
   -2.7722   19.0267  -10.6951 C   0  0  0  0  0  0  0  0  0  0  0  0
   -1.5350   18.4041  -10.6600 C   0  0  0  0  0  0  0  0  0  0  0  0
   -1.0407   17.7347  -11.7455 C   0  0  0  0  0  0  0  0  0  0  0  0
   -1.7857   17.6762  -12.8993 C   0  0  0  0  0  0  0  0  0  0  0  0
   -3.0108   18.2926  -12.9353 C   0  0  0  0  0  0  0  0  0  0  0  0
 18 19  1  0  0  0
 19 20  2  0  0  0
 19 24  1  0  0  0
 20 21  1  0  0  0
 21 22  2  0  0  0
 22 23  1  0  0  0
 22 17  1  0  0  0
 23 24  2  0  0  0
 17  1  1  0  0  0
  1  2  1  0  0  0
  1  5  1  0  0  0
  2  3  2  0  0  0
  3  4  1  0  0  0
  4  5  2  0  0  0
  4  9  1  0  0  0
  5  6  1  0  0  0
  6  7  2  0  0  0
  7  8  1  0  0  0
  8  9  2  0  0  0
  9 10  1  0  0  0
 10 11  1  0  0  0
 10 15  1  0  0  0
 11 12  1  0  0  0
 12 13  1  0  0  0
 13 14  1  0  0  0
 13 16  1  0  0  0
 14 15  1  0  0  0
M  END
> <minimizedAffinity>
-8.98655

$$$$
2163


 31 34  0  0  0  0  0  0  0  0999 V2000
    2.1714   10.0027  -14.6451 C   0  0  0  0  0  0  0  0  0  0  0  0
    1.9843   11.2326  -14.1194 N   0  0  0  0  0  0  0  0  0  0  0  0
    0.9103   11.5224  -13.3759 C   0  0  0  0  0  0  0  0  0  0  0  0
    0.0051   10.5561  -13.1563 N   0  0  0  0  0  0  0  0  0  0  0  0
    0.1296    9.2966  -13.6536 C   0  0  0  0  0  0  0  0  0  0  0  0
    1.2461    9.0744  -14.4005 N   0  0  0  0  0  0  0  0  0  0  0  0
    0.7129   12.8166  -12.8238 N   0  0  0  0  0  0  0  0  0  0  0  0
   -0.5516   13.5127  -12.9132 C   0  0  0  0  0  0  0  0  0  0  0  0
   -0.3486   14.9841  -13.2418 C   0  0  0  0  0  0  0  0  0  0  0  0
    0.6768   15.5246  -12.4577 O   0  0  0  0  0  0  0  0  0  0  0  0
    1.8783   14.8991  -12.6892 C   0  0  0  0  0  0  0  0  0  0  0  0
    1.7944   13.4909  -12.1410 C   0  0  0  0  0  0  0  0  0  0  0  0
   -0.8228    8.2882  -13.4200 N   0  0  0  0  0  0  0  0  0  0  0  0
   -0.4689    7.0659  -12.7622 C   0  0  0  0  0  0  0  0  0  0  0  0
   -0.9310    5.9236  -13.6645 C   0  0  0  0  0  0  0  0  0  0  0  0
   -2.2861    6.1027  -13.8824 O   0  0  0  0  0  0  0  0  0  0  0  0
   -2.5674    7.2199  -14.6327 C   0  0  0  0  0  0  0  0  0  0  0  0
   -2.1795    8.4716  -13.8450 C   0  0  0  0  0  0  0  0  0  0  0  0
    3.3009    9.6605  -15.4389 N   0  0  0  0  0  0  0  0  0  0  0  0
    3.5777   10.2479  -16.2718 H   0  0  0  0  0  0  0  0  0  0  0  0
    4.7195    8.3592  -14.0697 C   0  0  0  0  0  0  0  0  0  0  0  0
    4.1006    8.5477  -15.1735 N   0  0  0  0  0  0  0  0  0  0  0  0
    9.5548    6.1048  -14.1413 Br  0  0  0  0  0  0  0  0  0  0  0  0
    7.6791    6.0897  -13.8033 C   0  0  0  0  0  0  0  0  0  0  0  0
    6.9036    7.2003  -14.0523 C   0  0  0  0  0  0  0  0  0  0  0  0
    5.5514    7.1896  -13.8097 C   0  0  0  0  0  0  0  0  0  0  0  0
    4.9912    6.0344  -13.3095 C   0  0  0  0  0  0  0  0  0  0  0  0
    5.7664    4.9010  -13.0518 C   0  0  0  0  0  0  0  0  0  0  0  0
    7.1295    4.9178  -13.2990 C   0  0  0  0  0  0  0  0  0  0  0  0
    3.6216    6.0511  -13.0726 O   0  0  0  0  0  0  0  0  0  0  0  0
    2.9271    5.0172  -12.4147 C   0  0  0  0  0  0  0  0  0  0  0  0
 23 24  1  0  0  0
 24 25  2  0  0  0
 24 29  1  0  0  0
 25 26  1  0  0  0
 26 27  2  0  0  0
 26 21  1  0  0  0
 27 28  1  0  0  0
 27 30  1  0  0  0
 28 29  2  0  0  0
 30 31  1  0  0  0
 21 22  2  0  0  0
 22 19  1  0  0  0
 19  1  1  0  0  0
  1  2  2  0  0  0
  1  6  1  0  0  0
  2  3  1  0  0  0
  3  4  2  0  0  0
  3  7  1  0  0  0
  4  5  1  0  0  0
  5  6  2  0  0  0
  5 13  1  0  0  0
 13 14  1  0  0  0
 13 18  1  0  0  0
 14 15  1  0  0  0
 15 16  1  0  0  0
 16 17  1  0  0  0
 17 18  1  0  0  0
  7  8  1  0  0  0
  7 12  1  0  0  0
  8  9  1  0  0  0
  9 10  1  0  0  0
 10 11  1  0  0  0
 11 12  1  0  0  0
 19 20  1  0  0  0
M  END
> <minimizedAffinity>
-8.51554

$$$$
2164


 25 28  0  0  0  0  0  0  0  0999 V2000
   -4.7938    8.8661  -13.8809 C   0  0  0  0  0  0  0  0  0  0  0  0
   -5.8968    9.0872  -14.8830 C   0  0  0  0  0  0  0  0  0  0  0  0
   -6.5423   10.0694  -13.9992 N   0  0  0  0  0  0  0  0  0  0  0  0
   -5.7581    9.4978  -12.9201 C   0  0  0  0  0  0  0  0  0  0  0  0
   -7.5063   11.0939  -14.2059 C   0  0  0  0  0  0  0  0  0  0  0  0
   -7.6775   12.1131  -13.3244 N   0  0  0  0  0  0  0  0  0  0  0  0
   -8.6102   13.0852  -13.5466 C   0  0  0  0  0  0  0  0  0  0  0  0
   -9.3839   13.0665  -14.6362 N   0  0  0  0  0  0  0  0  0  0  0  0
   -9.2695   12.0950  -15.5434 C   0  0  0  0  0  0  0  0  0  0  0  0
   -9.9178   11.8550  -16.7006 N   0  0  0  0  0  0  0  0  0  0  0  0
   -9.3994   10.7514  -17.1942 N   0  0  0  0  0  0  0  0  0  0  0  0
   -8.4416   10.2817  -16.3869 N   0  0  0  0  0  0  0  0  0  0  0  0
   -8.3263   11.1133  -15.3168 C   0  0  0  0  0  0  0  0  0  0  0  0
  -10.9853   12.6401  -17.3150 C   0  0  0  0  0  0  0  0  0  0  0  0
   -2.5294    9.6936  -13.1911 N   0  0  0  0  0  0  0  0  0  0  0  0
   -3.5559    9.6784  -14.1480 C   0  0  0  0  0  0  0  0  0  0  0  0
   -3.5493   10.2871  -15.2279 O   0  0  0  0  0  0  0  0  0  0  0  0
   -2.6589    9.1152  -12.2818 H   0  0  0  0  0  0  0  0  0  0  0  0
   -0.2653   14.4681  -13.0613 Br  0  0  0  0  0  0  0  0  0  0  0  0
   -0.2000   12.5741  -13.2602 C   0  0  0  0  0  0  0  0  0  0  0  0
   -1.3339   11.8019  -13.1635 C   0  0  0  0  0  0  0  0  0  0  0  0
   -1.3200   10.4062  -13.3052 C   0  0  0  0  0  0  0  0  0  0  0  0
   -0.1013    9.8374  -13.5483 C   0  0  0  0  0  0  0  0  0  0  0  0
    1.0448   10.6303  -13.6454 C   0  0  0  0  0  0  0  0  0  0  0  0
    1.0027   11.9805  -13.5040 C   0  0  0  0  0  0  0  0  0  0  0  0
 19 20  1  0  0  0
 20 21  2  0  0  0
 20 25  1  0  0  0
 21 22  1  0  0  0
 22 23  2  0  0  0
 22 15  1  0  0  0
 23 24  1  0  0  0
 24 25  2  0  0  0
 15 16  1  0  0  0
 16 17  2  0  0  0
 16  1  1  0  0  0
  1  2  1  0  0  0
  1  4  1  0  0  0
  2  3  1  0  0  0
  3  4  1  0  0  0
  3  5  1  0  0  0
  5  6  2  0  0  0
  5 13  1  0  0  0
  6  7  1  0  0  0
  7  8  2  0  0  0
  8  9  1  0  0  0
  9 10  1  0  0  0
  9 13  2  0  0  0
 10 11  1  0  0  0
 10 14  1  0  0  0
 11 12  2  0  0  0
 12 13  1  0  0  0
 15 18  1  0  0  0
M  END
> <minimizedAffinity>
-9.24994

$$$$
2170


 32 36  0  0  0  0  0  0  0  0999 V2000
   -0.0395    9.6225  -13.2165 N   0  0  0  0  0  0  0  0  0  0  0  0
   -0.0881   10.9366  -13.1640 N   0  0  0  0  0  0  0  0  0  0  0  0
   -1.2978   11.4043  -13.5036 C   0  0  0  0  0  0  0  0  0  0  0  0
   -1.3259   12.7451  -13.4450 N   0  0  0  0  0  0  0  0  0  0  0  0
   -0.1109   13.1919  -13.0596 C   0  0  0  0  0  0  0  0  0  0  0  0
    0.6605   12.0376  -12.8856 C   0  0  0  0  0  0  0  0  0  0  0  0
    1.9637   12.2586  -12.4934 C   0  0  0  0  0  0  0  0  0  0  0  0
    2.7025   11.2422  -12.3263 O   0  0  0  0  0  0  0  0  0  0  0  0
    2.4880   13.4950  -12.2806 N   0  0  0  0  0  0  0  0  0  0  0  0
    1.6817   14.5509  -12.4674 C   0  0  0  0  0  0  0  0  0  0  0  0
    2.1924   15.7012  -12.2629 O   0  0  0  0  0  0  0  0  0  0  0  0
    0.4046   14.4147  -12.8505 N   0  0  0  0  0  0  0  0  0  0  0  0
   -0.4062   15.5880  -13.0349 C   0  0  0  0  0  0  0  0  0  0  0  0
    3.8653   13.6404  -11.8679 C   0  0  0  0  0  0  0  0  0  0  0  0
   -2.0373   10.3016  -13.7848 N   0  0  0  0  0  0  0  0  0  0  0  0
   -1.2816    9.2085  -13.6147 C   0  0  0  0  0  0  0  0  0  0  0  0
   -1.6476    7.8441  -13.7984 N   0  0  0  0  0  0  0  0  0  0  0  0
   -0.9295    6.7639  -13.1436 C   0  0  0  0  0  0  0  0  0  0  0  0
   -0.8239    5.6224  -14.1248 C   0  0  0  0  0  0  0  0  0  0  0  0
   -2.1023    5.2566  -14.5755 O   0  0  0  0  0  0  0  0  0  0  0  0
   -2.6591    6.2284  -15.3775 C   0  0  0  0  0  0  0  0  0  0  0  0
   -2.7622    7.5222  -14.6499 C   0  0  0  0  0  0  0  0  0  0  0  0
    1.0507    8.7166  -12.9388 C   0  0  0  0  0  0  0  0  0  0  0  0
    2.0036    8.5780  -14.0541 C   0  0  0  0  0  0  0  0  0  0  0  0
    1.8261    9.1233  -15.1663 O   0  0  0  0  0  0  0  0  0  0  0  0
    6.9021    5.1802  -13.1240 Cl  0  0  0  0  0  0  0  0  0  0  0  0
    5.4841    6.1770  -13.4017 C   0  0  0  0  0  0  0  0  0  0  0  0
    5.5665    7.3802  -14.0897 C   0  0  0  0  0  0  0  0  0  0  0  0
    4.4392    8.1496  -14.2974 C   0  0  0  0  0  0  0  0  0  0  0  0
    3.1961    7.7687  -13.8387 C   0  0  0  0  0  0  0  0  0  0  0  0
    3.1284    6.5532  -13.1472 C   0  0  0  0  0  0  0  0  0  0  0  0
    4.2488    5.7779  -12.9355 C   0  0  0  0  0  0  0  0  0  0  0  0
 26 27  1  0  0  0
 27 28  2  0  0  0
 27 32  1  0  0  0
 28 29  1  0  0  0
 29 30  2  0  0  0
 30 31  1  0  0  0
 30 24  1  0  0  0
 31 32  2  0  0  0
 24 25  2  0  0  0
 24 23  1  0  0  0
 23  1  1  0  0  0
  1  2  1  0  0  0
  1 16  1  0  0  0
  2  3  1  0  0  0
  2  6  1  0  0  0
  3  4  2  0  0  0
  3 15  1  0  0  0
  4  5  1  0  0  0
  5  6  2  0  0  0
  5 12  1  0  0  0
  6  7  1  0  0  0
  7  8  2  0  0  0
  7  9  1  0  0  0
  9 10  1  0  0  0
  9 14  1  0  0  0
 10 11  2  0  0  0
 10 12  1  0  0  0
 12 13  1  0  0  0
 15 16  2  0  0  0
 16 17  1  0  0  0
 17 18  1  0  0  0
 17 22  1  0  0  0
 18 19  1  0  0  0
 19 20  1  0  0  0
 20 21  1  0  0  0
 21 22  1  0  0  0
M  END
> <minimizedAffinity>
-8.96440

$$$$
2177


 31 35  0  0  0  0  0  0  0  0999 V2000
    1.3344    6.7290  -12.7600 N   0  0  0  0  0  0  0  0  0  0  0  0
    1.3105    7.5269  -11.5571 C   0  0  0  0  0  0  0  0  0  0  0  0
    1.8695    8.8873  -11.8839 C   0  0  0  0  0  0  0  0  0  0  0  0
    1.3537    9.4367  -13.1222 N   0  0  0  0  0  0  0  0  0  0  0  0
    1.3526    8.6036  -14.3081 C   0  0  0  0  0  0  0  0  0  0  0  0
    0.7347    7.2756  -13.9561 C   0  0  0  0  0  0  0  0  0  0  0  0
    9.9691    5.0501  -13.9788 Cl  0  0  0  0  0  0  0  0  0  0  0  0
    8.2638    5.4484  -13.7467 C   0  0  0  0  0  0  0  0  0  0  0  0
    7.3634    4.4442  -13.4679 C   0  0  0  0  0  0  0  0  0  0  0  0
    6.0305    4.7204  -13.2823 C   0  0  0  0  0  0  0  0  0  0  0  0
    5.5493    6.0112  -13.3674 C   0  0  0  0  0  0  0  0  0  0  0  0
    6.4648    7.0033  -13.6479 C   0  0  0  0  0  0  0  0  0  0  0  0
    7.8027    6.7423  -13.8366 C   0  0  0  0  0  0  0  0  0  0  0  0
    4.1622    6.2338  -13.1657 N   0  0  0  0  0  0  0  0  0  0  0  0
    3.2194    5.2065  -12.8772 C   0  0  0  0  0  0  0  0  0  0  0  0
    1.9416    5.4459  -12.6950 C   0  0  0  0  0  0  0  0  0  0  0  0
    3.7057    3.8760  -12.7864 N   0  0  0  0  0  0  0  0  0  0  0  0
    5.0781    3.6323  -12.9830 C   0  0  0  0  0  0  0  0  0  0  0  0
    5.5849    2.4651  -12.9174 O   0  0  0  0  0  0  0  0  0  0  0  0
    3.7898    7.2050  -13.2285 H   0  0  0  0  0  0  0  0  0  0  0  0
    3.0765    3.0679  -12.5777 H   0  0  0  0  0  0  0  0  0  0  0  0
    0.8601   10.7773  -13.1565 C   0  0  0  0  0  0  0  0  0  0  0  0
   -0.4096   10.9921  -13.5534 N   0  0  0  0  0  0  0  0  0  0  0  0
   -0.9208   12.2544  -13.6009 C   0  0  0  0  0  0  0  0  0  0  0  0
   -0.1647   13.3184  -13.2519 N   0  0  0  0  0  0  0  0  0  0  0  0
    1.1017   13.1689  -12.8497 C   0  0  0  0  0  0  0  0  0  0  0  0
    2.0551   14.0322  -12.4550 N   0  0  0  0  0  0  0  0  0  0  0  0
    3.1335   13.3250  -12.1681 N   0  0  0  0  0  0  0  0  0  0  0  0
    2.8917   11.9994  -12.3730 C   0  0  0  0  0  0  0  0  0  0  0  0
    1.6096   11.8694  -12.8066 C   0  0  0  0  0  0  0  0  0  0  0  0
    1.9494   15.4908  -12.3511 C   0  0  0  0  0  0  0  0  0  0  0  0
  7  8  1  0  0  0
  8  9  2  0  0  0
  8 13  1  0  0  0
  9 10  1  0  0  0
 10 11  2  0  0  0
 10 18  1  0  0  0
 11 12  1  0  0  0
 11 14  1  0  0  0
 12 13  2  0  0  0
 14 15  1  0  0  0
 15 16  2  0  0  0
 15 17  1  0  0  0
 16  1  1  0  0  0
  1  2  1  0  0  0
  1  6  1  0  0  0
  2  3  1  0  0  0
  3  4  1  0  0  0
  4  5  1  0  0  0
  4 22  1  0  0  0
  5  6  1  0  0  0
 22 23  2  0  0  0
 22 30  1  0  0  0
 23 24  1  0  0  0
 24 25  2  0  0  0
 25 26  1  0  0  0
 26 27  1  0  0  0
 26 30  2  0  0  0
 27 28  1  0  0  0
 27 31  1  0  0  0
 28 29  2  0  0  0
 29 30  1  0  0  0
 17 18  1  0  0  0
 18 19  2  0  0  0
 14 20  1  0  0  0
 17 21  1  0  0  0
M  END
> <minimizedAffinity>
-9.19479

$$$$
2184


 29 32  0  0  0  0  0  0  0  0999 V2000
    0.5101   14.6687  -12.8083 N   0  0  0  0  0  0  0  0  0  0  0  0
    0.2072   15.4740  -11.7269 C   0  0  0  0  0  0  0  0  0  0  0  0
    0.2520   16.9863  -12.1378 C   0  0  0  0  0  0  0  0  0  0  0  0
   -1.0242   17.0078  -13.0008 N   0  0  0  0  0  0  0  0  0  0  0  0
   -0.8665   16.2849  -14.1663 C   0  0  0  0  0  0  0  0  0  0  0  0
    0.4710   15.5237  -14.0304 C   0  0  0  0  0  0  0  0  0  0  0  0
    1.5551   14.4404  -12.7526 H   0  0  0  0  0  0  0  0  0  0  0  0
   -2.0855   17.6982  -12.3764 C   0  0  0  0  0  0  0  0  0  0  0  0
   -2.0816   18.2276  -11.1333 C   0  0  0  0  0  0  0  0  0  0  0  0
   -3.1042   19.1156  -10.6924 C   0  0  0  0  0  0  0  0  0  0  0  0
   -4.1423   19.4755  -11.5095 C   0  0  0  0  0  0  0  0  0  0  0  0
   -4.1603   18.9291  -12.7889 C   0  0  0  0  0  0  0  0  0  0  0  0
   -3.1621   18.0620  -13.2076 C   0  0  0  0  0  0  0  0  0  0  0  0
   -5.1171   20.3432  -11.0332 O   0  0  0  0  0  0  0  0  0  0  0  0
   -4.9789   20.9770   -9.7521 C   0  0  0  0  0  0  0  0  0  0  0  0
   -0.1240   13.4661  -13.1310 C   0  0  0  0  0  0  0  0  0  0  0  0
   -4.2266   10.4396  -13.9495 Cl  0  0  0  0  0  0  0  0  0  0  0  0
   -2.4766   10.2474  -13.7975 C   0  0  0  0  0  0  0  0  0  0  0  0
   -1.6177   11.2829  -13.5430 C   0  0  0  0  0  0  0  0  0  0  0  0
   -0.2929   11.0683  -13.3876 C   0  0  0  0  0  0  0  0  0  0  0  0
    0.2346    9.8100  -13.4777 C   0  0  0  0  0  0  0  0  0  0  0  0
   -0.6499    8.7372  -13.7437 C   0  0  0  0  0  0  0  0  0  0  0  0
   -1.9912    8.9400  -13.9082 C   0  0  0  0  0  0  0  0  0  0  0  0
   -2.8436    7.8505  -14.1965 O   0  0  0  0  0  0  0  0  0  0  0  0
    1.5020    9.5614  -13.3082 O   0  0  0  0  0  0  0  0  0  0  0  0
    2.3438   10.5513  -13.0335 C   0  0  0  0  0  0  0  0  0  0  0  0
    3.5433   10.2919  -12.8759 O   0  0  0  0  0  0  0  0  0  0  0  0
    1.8806   11.8779  -12.9214 C   0  0  0  0  0  0  0  0  0  0  0  0
    0.5724   12.1697  -13.0947 C   0  0  0  0  0  0  0  0  0  0  0  0
 17 18  1  0  0  0
 18 19  2  0  0  0
 18 23  1  0  0  0
 19 20  1  0  0  0
 20 21  2  0  0  0
 20 29  1  0  0  0
 21 22  1  0  0  0
 21 25  1  0  0  0
 22 23  2  0  0  0
 23 24  1  0  0  0
 25 26  1  0  0  0
 26 27  2  0  0  0
 26 28  1  0  0  0
 28 29  2  0  0  0
 29 16  1  0  0  0
 16  1  1  0  0  0
  1  2  1  0  0  0
  1  6  1  0  0  0
  2  3  1  0  0  0
  3  4  1  0  0  0
  4  5  1  0  0  0
  4  8  1  0  0  0
  5  6  1  0  0  0
  8  9  2  0  0  0
  8 13  1  0  0  0
  9 10  1  0  0  0
 10 11  2  0  0  0
 11 12  1  0  0  0
 11 14  1  0  0  0
 12 13  2  0  0  0
 14 15  1  0  0  0
  1  7  1  0  0  0
M  CHG 1   1   1
M  CHG 1  24  -1
M  END
> <minimizedAffinity>
-9.17459

$$$$
2195


 29 32  0  0  0  0  0  0  0  0999 V2000
    0.4535   12.4939  -13.4540 C   0  0  0  0  0  0  0  0  0  0  0  0
   -0.1722   13.6691  -13.4422 N   0  0  0  0  0  0  0  0  0  0  0  0
    0.2725   14.7029  -12.7069 C   0  0  0  0  0  0  0  0  0  0  0  0
   -0.1625   15.9788  -12.5163 N   0  0  0  0  0  0  0  0  0  0  0  0
    0.6831   16.5384  -11.6771 N   0  0  0  0  0  0  0  0  0  0  0  0
    1.6350   15.6979  -11.3184 N   0  0  0  0  0  0  0  0  0  0  0  0
    1.4173   14.5335  -11.9399 C   0  0  0  0  0  0  0  0  0  0  0  0
    2.0782   13.3171  -11.9428 C   0  0  0  0  0  0  0  0  0  0  0  0
    1.5536   12.3509  -12.7084 N   0  0  0  0  0  0  0  0  0  0  0  0
    3.2239   13.1280  -11.1828 O   0  0  0  0  0  0  0  0  0  0  0  0
    4.0437   13.6900  -11.3549 H   0  0  0  0  0  0  0  0  0  0  0  0
   -0.0681    9.0500  -13.2680 N   0  0  0  0  0  0  0  0  0  0  0  0
    0.6324   10.0538  -13.9327 C   0  0  0  0  0  0  0  0  0  0  0  0
   -0.0053   11.3303  -14.2609 C   0  0  0  0  0  0  0  0  0  0  0  0
   -1.5051   11.2344  -14.1523 C   0  0  0  0  0  0  0  0  0  0  0  0
   -1.8497   10.6853  -12.8144 C   0  0  0  0  0  0  0  0  0  0  0  0
   -1.3009    9.2943  -12.6791 C   0  0  0  0  0  0  0  0  0  0  0  0
    0.9038    7.8378  -12.5912 S   0  0  0  0  0  0  0  0  0  0  0  0
    0.9722    7.8981  -11.1056 O   0  0  0  0  0  0  0  0  0  0  0  0
    2.2894    7.9563  -13.1929 O   0  0  0  0  0  0  0  0  0  0  0  0
    0.3202    6.2040  -13.0674 C   0  0  0  0  0  0  0  0  0  0  0  0
   -1.3128   16.5807  -13.1150 C   0  0  0  0  0  0  0  0  0  0  0  0
   -1.9255   17.6466  -12.2860 C   0  0  0  0  0  0  0  0  0  0  0  0
   -3.1102   18.1998  -12.7021 C   0  0  0  0  0  0  0  0  0  0  0  0
   -3.7528   19.2054  -11.9835 C   0  0  0  0  0  0  0  0  0  0  0  0
   -3.1981   19.6759  -10.8127 C   0  0  0  0  0  0  0  0  0  0  0  0
   -2.0094   19.1250  -10.3884 C   0  0  0  0  0  0  0  0  0  0  0  0
   -1.3756   18.1196  -11.1154 C   0  0  0  0  0  0  0  0  0  0  0  0
   -3.8687   17.6483  -14.1810 Cl  0  0  0  0  0  0  0  0  0  0  0  0
 18 19  2  0  0  0
 18 20  2  0  0  0
 18 12  1  0  0  0
 18 21  1  0  0  0
 12 13  1  0  0  0
 12 17  1  0  0  0
 13 14  1  0  0  0
 14 15  1  0  0  0
 14  1  1  0  0  0
 15 16  1  0  0  0
 16 17  1  0  0  0
  1  2  2  0  0  0
  1  9  1  0  0  0
  2  3  1  0  0  0
  3  4  1  0  0  0
  3  7  2  0  0  0
  4  5  1  0  0  0
  4 22  1  0  0  0
  5  6  2  0  0  0
  6  7  1  0  0  0
  7  8  1  0  0  0
  8  9  2  0  0  0
  8 10  1  0  0  0
 22 23  1  0  0  0
 23 24  2  0  0  0
 23 28  1  0  0  0
 24 25  1  0  0  0
 24 29  1  0  0  0
 25 26  2  0  0  0
 26 27  1  0  0  0
 27 28  2  0  0  0
 10 11  1  0  0  0
M  END
> <minimizedAffinity>
-10.08979

$$$$
2197


 28 31  0  0  0  0  0  0  0  0999 V2000
    2.4736    8.5924  -13.1872 N   0  0  0  0  0  0  0  0  0  0  0  0
    2.6543    9.8891  -12.5026 C   0  0  0  0  0  0  0  0  0  0  0  0
    2.9516   10.8997  -13.5475 C   0  0  0  0  0  0  0  0  0  0  0  0
    3.8784   10.6165  -14.4808 O   0  0  0  0  0  0  0  0  0  0  0  0
    4.2755    9.3509  -14.6790 C   0  0  0  0  0  0  0  0  0  0  0  0
    3.7388    8.3104  -13.7582 C   0  0  0  0  0  0  0  0  0  0  0  0
    3.3397   12.1562  -12.8417 C   0  0  0  0  0  0  0  0  0  0  0  0
    4.5693   12.3471  -12.6435 O   0  0  0  0  0  0  0  0  0  0  0  0
    2.4366   13.1344  -12.3861 N   0  0  0  0  0  0  0  0  0  0  0  0
    0.9965   13.0521  -12.5417 C   0  0  0  0  0  0  0  0  0  0  0  0
    0.3979   14.2377  -11.8112 C   0  0  0  0  0  0  0  0  0  0  0  0
    0.8387   15.5095  -12.3529 N   0  0  0  0  0  0  0  0  0  0  0  0
    2.2611   15.5044  -12.4817 C   0  0  0  0  0  0  0  0  0  0  0  0
    2.8993   14.3497  -11.6991 C   0  0  0  0  0  0  0  0  0  0  0  0
    0.1174   15.7573  -13.5593 C   0  0  0  0  0  0  0  0  0  0  0  0
   -1.3291   16.1087  -13.3431 C   0  0  0  0  0  0  0  0  0  0  0  0
   -1.7689   17.3474  -14.1221 C   0  0  0  0  0  0  0  0  0  0  0  0
   -1.7506   17.3134  -12.6257 C   0  0  0  0  0  0  0  0  0  0  0  0
    1.1054    8.5955  -14.1681 S   0  0  0  0  0  0  0  0  0  0  0  0
    0.3152    9.8711  -13.8464 O   0  0  0  0  0  0  0  0  0  0  0  0
    1.4185    8.7217  -15.6392 O   0  0  0  0  0  0  0  0  0  0  0  0
    0.0151    7.2826  -13.8572 C   0  0  0  0  0  0  0  0  0  0  0  0
    0.0959    6.5262  -12.7086 C   0  0  0  0  0  0  0  0  0  0  0  0
   -0.7305    5.4427  -12.4796 C   0  0  0  0  0  0  0  0  0  0  0  0
   -1.6705    5.0983  -13.4182 C   0  0  0  0  0  0  0  0  0  0  0  0
   -1.7682    5.8499  -14.5801 C   0  0  0  0  0  0  0  0  0  0  0  0
   -0.9469    6.9193  -14.8017 C   0  0  0  0  0  0  0  0  0  0  0  0
    1.2249    6.9672  -11.4133 Cl  0  0  0  0  0  0  0  0  0  0  0  0
 19 20  2  0  0  0
 19 21  2  0  0  0
 19  1  1  0  0  0
 19 22  1  0  0  0
  1  2  1  0  0  0
  1  6  1  0  0  0
  2  3  1  0  0  0
  3  4  1  0  0  0
  3  7  1  0  0  0
  4  5  1  0  0  0
  5  6  1  0  0  0
  7  8  2  0  0  0
  7  9  1  0  0  0
  9 10  1  0  0  0
  9 14  1  0  0  0
 10 11  1  0  0  0
 11 12  1  0  0  0
 12 13  1  0  0  0
 12 15  1  0  0  0
 13 14  1  0  0  0
 15 16  1  0  0  0
 16 17  1  0  0  0
 16 18  1  0  0  0
 17 18  1  0  0  0
 22 23  2  0  0  0
 22 27  1  0  0  0
 23 24  1  0  0  0
 23 28  1  0  0  0
 24 25  2  0  0  0
 25 26  1  0  0  0
 26 27  2  0  0  0
M  END
> <minimizedAffinity>
-8.23903

$$$$
2210


 33 36  0  0  0  0  0  0  0  0999 V2000
   -3.0257   10.9938  -13.4969 C   0  0  0  0  0  0  0  0  0  0  0  0
   -1.6874   11.0418  -13.5156 C   0  0  0  0  0  0  0  0  0  0  0  0
   -0.8765    9.9863  -13.9164 O   0  0  0  0  0  0  0  0  0  0  0  0
    0.4625   10.3937  -13.8392 C   0  0  0  0  0  0  0  0  0  0  0  0
    0.5909   11.6753  -13.3992 C   0  0  0  0  0  0  0  0  0  0  0  0
    1.8186   12.2820  -13.2717 C   0  0  0  0  0  0  0  0  0  0  0  0
    2.9739   11.5799  -13.5982 C   0  0  0  0  0  0  0  0  0  0  0  0
    2.8353   10.2653  -14.0468 C   0  0  0  0  0  0  0  0  0  0  0  0
    1.6214    9.6700  -14.1678 C   0  0  0  0  0  0  0  0  0  0  0  0
    4.0391    9.6308  -14.3518 O   0  0  0  0  0  0  0  0  0  0  0  0
   -0.8090   12.1389  -13.1681 C   0  0  0  0  0  0  0  0  0  0  0  0
   -1.1582   13.2512  -12.7516 O   0  0  0  0  0  0  0  0  0  0  0  0
   -2.2396    5.9936  -15.0790 Br  0  0  0  0  0  0  0  0  0  0  0  0
   -3.3590    7.4933  -14.7226 C   0  0  0  0  0  0  0  0  0  0  0  0
   -2.7987    8.6709  -14.1987 C   0  0  0  0  0  0  0  0  0  0  0  0
   -3.6099    9.7205  -13.9527 C   0  0  0  0  0  0  0  0  0  0  0  0
   -4.9626    9.6672  -14.2049 C   0  0  0  0  0  0  0  0  0  0  0  0
   -5.4999    8.4833  -14.7310 C   0  0  0  0  0  0  0  0  0  0  0  0
   -4.7011    7.3875  -14.9903 C   0  0  0  0  0  0  0  0  0  0  0  0
   -5.7633   10.7698  -13.9451 O   0  0  0  0  0  0  0  0  0  0  0  0
   -7.1474   10.8085  -13.9758 C   0  0  0  0  0  0  0  0  0  0  0  0
    1.4115    8.2338  -14.4497 C   0  0  0  0  0  0  0  0  0  0  0  0
    1.3534    7.4407  -13.3135 N   0  0  0  0  0  0  0  0  0  0  0  0
    0.3007    6.3816  -13.4175 C   0  0  0  0  0  0  0  0  0  0  0  0
    1.0315    5.0845  -12.9888 C   0  0  0  0  0  0  0  0  0  0  0  0
    2.2524    5.4265  -12.3303 N   0  0  0  0  0  0  0  0  0  0  0  0
    2.1523    6.4230  -11.3374 C   0  0  0  0  0  0  0  0  0  0  0  0
    1.5244    7.7405  -11.9705 C   0  0  0  0  0  0  0  0  0  0  0  0
    2.2464    6.7638  -13.5589 H   0  0  0  0  0  0  0  0  0  0  0  0
    3.4181    4.7952  -12.7030 C   0  0  0  0  0  0  0  0  0  0  0  0
    4.6697    5.5823  -12.9273 C   0  0  0  0  0  0  0  0  0  0  0  0
    4.4258    6.6922  -13.7525 O   0  0  0  0  0  0  0  0  0  0  0  0
    4.9217    7.4911  -13.3758 H   0  0  0  0  0  0  0  0  0  0  0  0
 13 14  1  0  0  0
 14 15  2  0  0  0
 14 19  1  0  0  0
 15 16  1  0  0  0
 16 17  2  0  0  0
 16  1  1  0  0  0
 17 18  1  0  0  0
 17 20  1  0  0  0
 18 19  2  0  0  0
 20 21  1  0  0  0
  1  2  2  0  0  0
  2  3  1  0  0  0
  2 11  1  0  0  0
  3  4  1  0  0  0
  4  5  2  0  0  0
  4  9  1  0  0  0
  5  6  1  0  0  0
  5 11  1  0  0  0
  6  7  2  0  0  0
  7  8  1  0  0  0
  8  9  2  0  0  0
  8 10  1  0  0  0
  9 22  1  0  0  0
 22 23  1  0  0  0
 23 24  1  0  0  0
 23 28  1  0  0  0
 24 25  1  0  0  0
 25 26  1  0  0  0
 26 27  1  0  0  0
 26 30  1  0  0  0
 27 28  1  0  0  0
 30 31  1  0  0  0
 31 32  1  0  0  0
 11 12  2  0  0  0
 23 29  1  0  0  0
 32 33  1  0  0  0
M  CHG 1  10  -1
M  CHG 1  23   1
M  END
> <minimizedAffinity>
-8.35129

$$$$
2213


 31 34  0  0  0  0  0  0  0  0999 V2000
   -1.1216   13.8732  -12.3376 Cl  0  0  0  0  0  0  0  0  0  0  0  0
    0.1899   12.8517  -12.8841 C   0  0  0  0  0  0  0  0  0  0  0  0
   -0.1252   11.5738  -13.3693 C   0  0  0  0  0  0  0  0  0  0  0  0
    0.8799   10.7500  -13.8038 C   0  0  0  0  0  0  0  0  0  0  0  0
    2.1868   11.2456  -13.7363 C   0  0  0  0  0  0  0  0  0  0  0  0
    2.4841   12.5020  -13.2576 C   0  0  0  0  0  0  0  0  0  0  0  0
    1.4731   13.3369  -12.8179 C   0  0  0  0  0  0  0  0  0  0  0  0
    4.1360   13.1023  -13.1825 Cl  0  0  0  0  0  0  0  0  0  0  0  0
    0.6420    9.3963  -14.3274 C   0  0  0  0  0  0  0  0  0  0  0  0
   -0.7937    9.0688  -14.3157 C   0  0  0  0  0  0  0  0  0  0  0  0
   -1.7759    9.9013  -13.8795 C   0  0  0  0  0  0  0  0  0  0  0  0
   -3.0943    9.5477  -13.8899 N   0  0  0  0  0  0  0  0  0  0  0  0
   -3.4028    8.3372  -14.3484 C   0  0  0  0  0  0  0  0  0  0  0  0
   -4.6177    7.9630  -14.3771 O   0  0  0  0  0  0  0  0  0  0  0  0
   -2.4611    7.4795  -14.7906 N   0  0  0  0  0  0  0  0  0  0  0  0
   -1.1665    7.8158  -14.7859 C   0  0  0  0  0  0  0  0  0  0  0  0
   -0.2875    7.0166  -15.1983 O   0  0  0  0  0  0  0  0  0  0  0  0
   -2.8635    6.1693  -15.2825 C   0  0  0  0  0  0  0  0  0  0  0  0
   -4.1148   10.4582  -13.4174 C   0  0  0  0  0  0  0  0  0  0  0  0
   -1.4376   11.1419  -13.4117 O   0  0  0  0  0  0  0  0  0  0  0  0
    1.4461    8.3722  -13.5812 C   0  0  0  0  0  0  0  0  0  0  0  0
    2.6375    7.8893  -14.0652 C   0  0  0  0  0  0  0  0  0  0  0  0
    3.3732    6.9663  -13.4263 N   0  0  0  0  0  0  0  0  0  0  0  0
    2.9152    6.4919  -12.2518 C   0  0  0  0  0  0  0  0  0  0  0  0
    3.6162    5.6208  -11.6582 O   0  0  0  0  0  0  0  0  0  0  0  0
    1.7534    6.9360  -11.7410 N   0  0  0  0  0  0  0  0  0  0  0  0
    1.0052    7.8580  -12.3628 C   0  0  0  0  0  0  0  0  0  0  0  0
   -0.0816    8.2916  -11.9110 O   0  0  0  0  0  0  0  0  0  0  0  0
    1.3043    6.3950  -10.4788 C   0  0  0  0  0  0  0  0  0  0  0  0
    4.6302    6.4791  -13.9618 C   0  0  0  0  0  0  0  0  0  0  0  0
    3.1052    8.3758  -15.2688 O   0  0  0  0  0  0  0  0  0  0  0  0
  1  2  1  0  0  0
  2  3  2  0  0  0
  2  7  1  0  0  0
  3  4  1  0  0  0
  3 20  1  0  0  0
  4  5  2  0  0  0
  4  9  1  0  0  0
  5  6  1  0  0  0
  6  7  2  0  0  0
  6  8  1  0  0  0
  9 10  1  0  0  0
  9 21  1  0  0  0
 10 11  2  0  0  0
 10 16  1  0  0  0
 11 12  1  0  0  0
 11 20  1  0  0  0
 12 13  1  0  0  0
 12 19  1  0  0  0
 13 14  2  0  0  0
 13 15  1  0  0  0
 15 16  1  0  0  0
 15 18  1  0  0  0
 16 17  2  0  0  0
 21 22  2  0  0  0
 21 27  1  0  0  0
 22 23  1  0  0  0
 22 31  1  0  0  0
 23 24  1  0  0  0
 23 30  1  0  0  0
 24 25  2  0  0  0
 24 26  1  0  0  0
 26 27  1  0  0  0
 26 29  1  0  0  0
 27 28  2  0  0  0
M  CHG 1  31  -1
M  END
> <minimizedAffinity>
-3.38175

$$$$
2214


 34 38  0  0  0  0  0  0  0  0999 V2000
   -0.7479   15.4926  -13.8115 Cl  0  0  0  0  0  0  0  0  0  0  0  0
    0.4619   14.3870  -13.1961 C   0  0  0  0  0  0  0  0  0  0  0  0
    0.4166   13.0421  -13.4438 C   0  0  0  0  0  0  0  0  0  0  0  0
    1.4035   12.1951  -12.9325 C   0  0  0  0  0  0  0  0  0  0  0  0
    2.4005   12.7510  -12.1876 C   0  0  0  0  0  0  0  0  0  0  0  0
    2.4495   14.1314  -11.9317 C   0  0  0  0  0  0  0  0  0  0  0  0
    1.4845   14.9592  -12.4312 C   0  0  0  0  0  0  0  0  0  0  0  0
    3.2874   11.7182  -11.7694 N   0  0  0  0  0  0  0  0  0  0  0  0
    2.8357   10.4812  -12.2651 C   0  0  0  0  0  0  0  0  0  0  0  0
    3.4220    9.3729  -12.0536 O   0  0  0  0  0  0  0  0  0  0  0  0
    1.6133   10.7410  -13.0325 C   0  0  0  0  0  0  0  0  0  0  0  0
    0.4492   10.1119  -12.4491 N   0  0  0  0  0  0  0  0  0  0  0  0
   -0.0717    9.1245  -13.3403 C   0  0  0  0  0  0  0  0  0  0  0  0
    0.9354    8.9865  -14.4122 C   0  0  0  0  0  0  0  0  0  0  0  0
    1.7132   10.2722  -14.4645 C   0  0  0  0  0  0  0  0  0  0  0  0
    3.0730    9.8123  -14.8222 C   0  0  0  0  0  0  0  0  0  0  0  0
    4.0204   10.4794  -15.3081 O   0  0  0  0  0  0  0  0  0  0  0  0
    3.2048    8.4049  -14.5292 N   0  0  0  0  0  0  0  0  0  0  0  0
    1.9682    7.9887  -13.9621 C   0  0  0  0  0  0  0  0  0  0  0  0
    1.8143    6.9790  -13.2357 O   0  0  0  0  0  0  0  0  0  0  0  0
    4.1623   11.8390  -11.1752 H   0  0  0  0  0  0  0  0  0  0  0  0
   -0.3181   10.7880  -12.2390 H   0  0  0  0  0  0  0  0  0  0  0  0
    4.3802    7.5952  -14.7715 C   0  0  0  0  0  0  0  0  0  0  0  0
    5.1880    7.3372  -13.5288 C   0  0  0  0  0  0  0  0  0  0  0  0
    4.8174    6.1133  -12.9777 O   0  0  0  0  0  0  0  0  0  0  0  0
    5.6521    5.1574  -13.5101 C   0  0  0  0  0  0  0  0  0  0  0  0
    6.9633    5.8237  -13.8652 C   0  0  0  0  0  0  0  0  0  0  0  0
    6.6603    7.3041  -13.7420 C   0  0  0  0  0  0  0  0  0  0  0  0
   -1.4598    9.4482  -13.8247 C   0  0  0  0  0  0  0  0  0  0  0  0
   -2.3063    8.2959  -14.0712 C   0  0  0  0  0  0  0  0  0  0  0  0
   -3.4795    8.4523  -14.4709 O   0  0  0  0  0  0  0  0  0  0  0  0
   -1.8271    6.9833  -13.8660 N   0  0  0  0  0  0  0  0  0  0  0  0
   -1.9140    6.2795  -14.6359 H   0  0  0  0  0  0  0  0  0  0  0  0
   -1.3844    6.6531  -12.9881 H   0  0  0  0  0  0  0  0  0  0  0  0
  1  2  1  0  0  0
  2  3  2  0  0  0
  2  7  1  0  0  0
  3  4  1  0  0  0
  4  5  2  0  0  0
  4 11  1  0  0  0
  5  6  1  0  0  0
  5  8  1  0  0  0
  6  7  2  0  0  0
  8  9  1  0  0  0
  9 10  2  0  0  0
  9 11  1  0  0  0
 11 12  1  0  0  0
 11 15  1  0  0  0
 12 13  1  0  0  0
 13 14  1  0  0  0
 13 29  1  0  0  0
 14 15  1  0  0  0
 14 19  1  0  0  0
 15 16  1  0  0  0
 16 17  2  0  0  0
 16 18  1  0  0  0
 18 19  1  0  0  0
 18 23  1  0  0  0
 19 20  2  0  0  0
 23 24  1  0  0  0
 24 25  1  0  0  0
 24 28  1  0  0  0
 25 26  1  0  0  0
 26 27  1  0  0  0
 27 28  1  0  0  0
 29 30  1  0  0  0
 30 31  2  0  0  0
 30 32  1  0  0  0
  8 21  1  0  0  0
 12 22  1  0  0  0
 32 33  1  0  0  0
 32 34  1  0  0  0
M  END
> <minimizedAffinity>
-6.47329

$$$$
2225


 29 32  0  0  0  0  0  0  0  0999 V2000
    0.0252   16.0235  -13.3702 C   0  0  0  0  0  0  0  0  0  0  0  0
    0.1581   16.1824  -14.6580 O   0  0  0  0  0  0  0  0  0  0  0  0
    1.2018   15.8517  -12.6587 N   0  0  0  0  0  0  0  0  0  0  0  0
    2.4829   15.8497  -13.4296 C   0  0  0  0  0  0  0  0  0  0  0  0
    3.3255   14.7554  -12.8244 C   0  0  0  0  0  0  0  0  0  0  0  0
    2.5464   13.7764  -12.0884 N   0  0  0  0  0  0  0  0  0  0  0  0
    1.8091   14.2464  -10.9463 C   0  0  0  0  0  0  0  0  0  0  0  0
    1.3982   15.6795  -11.2434 C   0  0  0  0  0  0  0  0  0  0  0  0
    2.5292   12.4277  -12.5023 C   0  0  0  0  0  0  0  0  0  0  0  0
    1.3749   11.8266  -12.9041 N   0  0  0  0  0  0  0  0  0  0  0  0
    1.3089   10.5644  -13.3044 C   0  0  0  0  0  0  0  0  0  0  0  0
    2.4636    9.8494  -13.3062 N   0  0  0  0  0  0  0  0  0  0  0  0
    3.6213   10.3621  -12.9308 C   0  0  0  0  0  0  0  0  0  0  0  0
    3.6836   11.6872  -12.5115 C   0  0  0  0  0  0  0  0  0  0  0  0
    0.1168    9.9248  -13.7245 N   0  0  0  0  0  0  0  0  0  0  0  0
   -1.1153   10.6953  -13.8527 C   0  0  0  0  0  0  0  0  0  0  0  0
   -2.1528    9.9311  -13.0245 C   0  0  0  0  0  0  0  0  0  0  0  0
   -2.3134    8.6661  -13.5236 O   0  0  0  0  0  0  0  0  0  0  0  0
   -1.1950    7.8702  -13.4567 C   0  0  0  0  0  0  0  0  0  0  0  0
    0.0389    8.5200  -14.0413 C   0  0  0  0  0  0  0  0  0  0  0  0
   -1.3754   16.0589  -12.9065 C   0  0  0  0  0  0  0  0  0  0  0  0
   -1.9238   17.0647  -12.3256 O   0  0  0  0  0  0  0  0  0  0  0  0
   -4.2627   21.5942   -9.3978 Cl  0  0  0  0  0  0  0  0  0  0  0  0
   -3.5819   20.2492  -10.2783 C   0  0  0  0  0  0  0  0  0  0  0  0
   -4.2155   19.7040  -11.3709 C   0  0  0  0  0  0  0  0  0  0  0  0
   -3.6950   18.6559  -12.0674 C   0  0  0  0  0  0  0  0  0  0  0  0
   -2.4669   18.0614  -11.7049 C   0  0  0  0  0  0  0  0  0  0  0  0
   -1.8327   18.6339  -10.5820 C   0  0  0  0  0  0  0  0  0  0  0  0
   -2.3827   19.6839   -9.9090 C   0  0  0  0  0  0  0  0  0  0  0  0
 23 24  1  0  0  0
 24 25  2  0  0  0
 24 29  1  0  0  0
 25 26  1  0  0  0
 26 27  2  0  0  0
 27 28  1  0  0  0
 27 22  1  0  0  0
 28 29  2  0  0  0
 22 21  1  0  0  0
 21  1  1  0  0  0
  1  2  2  0  0  0
  1  3  1  0  0  0
  3  4  1  0  0  0
  3  8  1  0  0  0
  4  5  1  0  0  0
  5  6  1  0  0  0
  6  7  1  0  0  0
  6  9  1  0  0  0
  7  8  1  0  0  0
  9 10  2  0  0  0
  9 14  1  0  0  0
 10 11  1  0  0  0
 11 12  2  0  0  0
 11 15  1  0  0  0
 12 13  1  0  0  0
 13 14  2  0  0  0
 15 16  1  0  0  0
 15 20  1  0  0  0
 16 17  1  0  0  0
 17 18  1  0  0  0
 18 19  1  0  0  0
 19 20  1  0  0  0
M  END
> <minimizedAffinity>
-8.49185

$$$$
2231


 27 31  0  0  0  0  0  0  0  0999 V2000
   -3.4998   19.5601  -10.6162 N   0  0  0  0  0  0  0  0  0  0  0  0
   -2.4235   19.2488   -9.9157 N   0  0  0  0  0  0  0  0  0  0  0  0
   -1.6610   18.3805  -10.5514 N   0  0  0  0  0  0  0  0  0  0  0  0
   -2.2261   18.0791  -11.7329 C   0  0  0  0  0  0  0  0  0  0  0  0
   -3.3834   18.8316  -11.7553 C   0  0  0  0  0  0  0  0  0  0  0  0
   -4.1766   18.7322  -12.8457 N   0  0  0  0  0  0  0  0  0  0  0  0
   -3.8148   17.9168  -13.8535 C   0  0  0  0  0  0  0  0  0  0  0  0
   -2.6771   17.1796  -13.8253 N   0  0  0  0  0  0  0  0  0  0  0  0
   -1.8519   17.2411  -12.7640 C   0  0  0  0  0  0  0  0  0  0  0  0
   -0.6496   16.4730  -12.7175 N   0  0  0  0  0  0  0  0  0  0  0  0
   -0.3225   15.7106  -13.9075 C   0  0  0  0  0  0  0  0  0  0  0  0
    1.1782   15.4397  -13.9852 C   0  0  0  0  0  0  0  0  0  0  0  0
    1.7323   15.2149  -12.6988 N   0  0  0  0  0  0  0  0  0  0  0  0
    1.6163   16.4033  -11.7984 C   0  0  0  0  0  0  0  0  0  0  0  0
    0.1291   16.5138  -11.5195 C   0  0  0  0  0  0  0  0  0  0  0  0
    2.3253   14.0491  -12.2453 C   0  0  0  0  0  0  0  0  0  0  0  0
    2.7609   14.1140  -10.9985 O   0  0  0  0  0  0  0  0  0  0  0  0
    2.5680   12.7550  -12.8645 C   0  0  0  0  0  0  0  0  0  0  0  0
    3.9540   12.3957  -13.2445 C   0  0  0  0  0  0  0  0  0  0  0  0
    3.1652   11.5727  -12.2528 C   0  0  0  0  0  0  0  0  0  0  0  0
   -7.7302   23.3817   -8.9332 Cl  0  0  0  0  0  0  0  0  0  0  0  0
   -6.4991   22.2627   -9.4314 C   0  0  0  0  0  0  0  0  0  0  0  0
   -6.7094   21.4567  -10.5218 C   0  0  0  0  0  0  0  0  0  0  0  0
   -5.7366   20.5672  -10.9199 C   0  0  0  0  0  0  0  0  0  0  0  0
   -4.5390   20.4562  -10.2526 C   0  0  0  0  0  0  0  0  0  0  0  0
   -4.3567   21.2775   -9.1624 C   0  0  0  0  0  0  0  0  0  0  0  0
   -5.3215   22.1761   -8.7472 C   0  0  0  0  0  0  0  0  0  0  0  0
 21 22  1  0  0  0
 22 23  2  0  0  0
 22 27  1  0  0  0
 23 24  1  0  0  0
 24 25  2  0  0  0
 25 26  1  0  0  0
 25  1  1  0  0  0
 26 27  2  0  0  0
  1  2  1  0  0  0
  1  5  1  0  0  0
  2  3  2  0  0  0
  3  4  1  0  0  0
  4  5  2  0  0  0
  4  9  1  0  0  0
  5  6  1  0  0  0
  6  7  2  0  0  0
  7  8  1  0  0  0
  8  9  2  0  0  0
  9 10  1  0  0  0
 10 11  1  0  0  0
 10 15  1  0  0  0
 11 12  1  0  0  0
 12 13  1  0  0  0
 13 14  1  0  0  0
 13 16  1  0  0  0
 14 15  1  0  0  0
 16 17  2  0  0  0
 16 18  1  0  0  0
 18 19  1  0  0  0
 18 20  1  0  0  0
 19 20  1  0  0  0
M  END
> <minimizedAffinity>
-9.48332

$$$$
2242


 32 35  0  0  0  0  0  0  0  0999 V2000
   -6.0012    9.2766  -14.5709 N   0  0  0  0  0  0  0  0  0  0  0  0
   -4.6322    9.5444  -14.4973 C   0  0  0  0  0  0  0  0  0  0  0  0
   -4.1628   10.6900  -14.5561 O   0  0  0  0  0  0  0  0  0  0  0  0
   -6.3113    8.2555  -14.5135 H   0  0  0  0  0  0  0  0  0  0  0  0
   -6.5167   10.7223  -12.0758 Cl  0  0  0  0  0  0  0  0  0  0  0  0
   -7.3385   11.0082  -13.5946 C   0  0  0  0  0  0  0  0  0  0  0  0
   -8.2975   11.9802  -13.6432 C   0  0  0  0  0  0  0  0  0  0  0  0
   -8.9812   12.2597  -14.7930 C   0  0  0  0  0  0  0  0  0  0  0  0
   -8.6809   11.5332  -15.9145 C   0  0  0  0  0  0  0  0  0  0  0  0
   -7.6937   10.5343  -15.8588 C   0  0  0  0  0  0  0  0  0  0  0  0
   -7.0032   10.2441  -14.7157 C   0  0  0  0  0  0  0  0  0  0  0  0
   -9.3305   11.7530  -17.1262 O   0  0  0  0  0  0  0  0  0  0  0  0
  -10.0632   12.9577  -17.3945 C   0  0  0  0  0  0  0  0  0  0  0  0
  -10.6297   13.4994  -16.1240 C   0  0  0  0  0  0  0  0  0  0  0  0
  -11.6948   14.1564  -16.1789 O   0  0  0  0  0  0  0  0  0  0  0  0
   -9.9834   13.2800  -14.8742 N   0  0  0  0  0  0  0  0  0  0  0  0
  -10.2328   13.8459  -14.0394 H   0  0  0  0  0  0  0  0  0  0  0  0
   -3.6527    8.4340  -14.3389 C   0  0  0  0  0  0  0  0  0  0  0  0
   -2.4078    8.7289  -14.1267 N   0  0  0  0  0  0  0  0  0  0  0  0
   -1.4277    7.7511  -13.9677 N   0  0  0  0  0  0  0  0  0  0  0  0
   -1.8004    6.3932  -14.0384 C   0  0  0  0  0  0  0  0  0  0  0  0
   -0.8854    5.5341  -13.7990 O   0  0  0  0  0  0  0  0  0  0  0  0
   -3.1724    5.9587  -14.3706 C   0  0  0  0  0  0  0  0  0  0  0  0
   -4.0503    7.0752  -14.4142 N   0  0  0  0  0  0  0  0  0  0  0  0
   -5.0839    6.8980  -14.5124 H   0  0  0  0  0  0  0  0  0  0  0  0
   -0.0458    8.1185  -13.7372 C   0  0  0  0  0  0  0  0  0  0  0  0
    0.4270    8.3827  -12.4749 C   0  0  0  0  0  0  0  0  0  0  0  0
    1.7672    8.7313  -12.2778 C   0  0  0  0  0  0  0  0  0  0  0  0
    2.6398    8.8192  -13.3434 C   0  0  0  0  0  0  0  0  0  0  0  0
    2.1508    8.5526  -14.6015 C   0  0  0  0  0  0  0  0  0  0  0  0
    0.8434    8.2127  -14.7861 C   0  0  0  0  0  0  0  0  0  0  0  0
    4.0797    9.1834  -13.1863 C   0  0  0  0  0  0  0  0  0  0  0  0
  5  6  1  0  0  0
  6  7  2  0  0  0
  6 11  1  0  0  0
  7  8  1  0  0  0
  8  9  2  0  0  0
  8 16  1  0  0  0
  9 10  1  0  0  0
  9 12  1  0  0  0
 10 11  2  0  0  0
 11  1  1  0  0  0
  1  2  1  0  0  0
  2  3  2  0  0  0
  2 18  1  0  0  0
 18 19  2  0  0  0
 18 24  1  0  0  0
 19 20  1  0  0  0
 20 21  1  0  0  0
 20 26  1  0  0  0
 21 22  2  0  0  0
 21 23  1  0  0  0
 23 24  1  0  0  0
 26 27  2  0  0  0
 26 31  1  0  0  0
 27 28  1  0  0  0
 28 29  2  0  0  0
 29 30  1  0  0  0
 29 32  1  0  0  0
 30 31  2  0  0  0
 12 13  1  0  0  0
 13 14  1  0  0  0
 14 15  2  0  0  0
 14 16  1  0  0  0
  1  4  1  0  0  0
 24 25  1  0  0  0
 16 17  1  0  0  0
M  END
> <minimizedAffinity>
-8.74389

$$$$
2266


 27 30  0  0  0  0  0  0  0  0999 V2000
    0.7963    7.5812  -13.1656 N   0  0  0  0  0  0  0  0  0  0  0  0
    0.5904    8.8759  -12.6527 C   0  0  0  0  0  0  0  0  0  0  0  0
   -0.1554    9.7992  -13.5959 C   0  0  0  0  0  0  0  0  0  0  0  0
   -1.3982    9.0697  -13.9886 C   0  0  0  0  0  0  0  0  0  0  0  0
   -1.2469    7.7509  -14.3645 C   0  0  0  0  0  0  0  0  0  0  0  0
   -2.3179    7.0444  -14.7266 N   0  0  0  0  0  0  0  0  0  0  0  0
   -3.5213    7.6524  -14.7110 C   0  0  0  0  0  0  0  0  0  0  0  0
   -3.6957    8.9353  -14.3484 N   0  0  0  0  0  0  0  0  0  0  0  0
   -4.9980    9.2664  -14.4303 N   0  0  0  0  0  0  0  0  0  0  0  0
   -5.7145    8.2126  -14.8476 C   0  0  0  0  0  0  0  0  0  0  0  0
   -4.8078    7.1949  -15.0277 C   0  0  0  0  0  0  0  0  0  0  0  0
   -2.6322    9.6813  -13.9757 C   0  0  0  0  0  0  0  0  0  0  0  0
   -2.7317   10.8854  -13.6270 O   0  0  0  0  0  0  0  0  0  0  0  0
    0.1287    7.1988  -14.3404 C   0  0  0  0  0  0  0  0  0  0  0  0
   -5.3676   10.2157  -14.1953 H   0  0  0  0  0  0  0  0  0  0  0  0
    1.3586    6.3982  -12.1177 S   0  0  0  0  0  0  0  0  0  0  0  0
    1.5647    6.9373  -10.7093 O   0  0  0  0  0  0  0  0  0  0  0  0
    0.2603    5.3511  -11.9612 O   0  0  0  0  0  0  0  0  0  0  0  0
    2.8107    5.5915  -12.5696 C   0  0  0  0  0  0  0  0  0  0  0  0
    3.8696    6.2947  -13.1393 C   0  0  0  0  0  0  0  0  0  0  0  0
    5.0163    5.6177  -13.4920 C   0  0  0  0  0  0  0  0  0  0  0  0
    5.1559    4.2814  -13.3035 C   0  0  0  0  0  0  0  0  0  0  0  0
    4.1352    3.5632  -12.7467 C   0  0  0  0  0  0  0  0  0  0  0  0
    2.9866    4.2397  -12.3936 C   0  0  0  0  0  0  0  0  0  0  0  0
    4.2901    1.8218  -12.4895 Cl  0  0  0  0  0  0  0  0  0  0  0  0
    3.8102    7.6498  -13.3643 O   0  0  0  0  0  0  0  0  0  0  0  0
    4.2609    8.1606  -14.5984 C   0  0  0  0  0  0  0  0  0  0  0  0
 16 17  2  0  0  0
 16 18  2  0  0  0
 16  1  1  0  0  0
 16 19  1  0  0  0
  1  2  1  0  0  0
  1 14  1  0  0  0
  2  3  1  0  0  0
  3  4  1  0  0  0
  4  5  2  0  0  0
  4 12  1  0  0  0
  5  6  1  0  0  0
  5 14  1  0  0  0
  6  7  2  0  0  0
  7  8  1  0  0  0
  7 11  1  0  0  0
  8  9  1  0  0  0
  8 12  1  0  0  0
  9 10  1  0  0  0
 10 11  2  0  0  0
 12 13  2  0  0  0
 19 20  2  0  0  0
 19 24  1  0  0  0
 20 21  1  0  0  0
 20 26  1  0  0  0
 21 22  2  0  0  0
 22 23  1  0  0  0
 23 24  2  0  0  0
 23 25  1  0  0  0
 26 27  1  0  0  0
  9 15  1  0  0  0
M  END
> <minimizedAffinity>
-8.55102

$$$$
2267


 27 30  0  0  0  0  0  0  0  0999 V2000
    1.6455    8.8798  -13.7791 N   0  0  0  0  0  0  0  0  0  0  0  0
    2.9863    8.6770  -13.4575 C   0  0  0  0  0  0  0  0  0  0  0  0
    3.7937    9.9517  -13.3837 C   0  0  0  0  0  0  0  0  0  0  0  0
    2.9897   11.1417  -13.0198 C   0  0  0  0  0  0  0  0  0  0  0  0
    1.7115   11.2058  -13.5192 C   0  0  0  0  0  0  0  0  0  0  0  0
    0.9127   12.2438  -13.2449 N   0  0  0  0  0  0  0  0  0  0  0  0
    1.3807   13.2610  -12.4498 C   0  0  0  0  0  0  0  0  0  0  0  0
    2.6384   13.1806  -11.9686 N   0  0  0  0  0  0  0  0  0  0  0  0
    2.8474   14.2777  -11.2359 N   0  0  0  0  0  0  0  0  0  0  0  0
    1.7652   15.0460  -11.2389 C   0  0  0  0  0  0  0  0  0  0  0  0
    0.7870   14.4260  -12.0140 C   0  0  0  0  0  0  0  0  0  0  0  0
    3.4794   12.1669  -12.2110 C   0  0  0  0  0  0  0  0  0  0  0  0
    4.6488   12.0936  -11.7623 O   0  0  0  0  0  0  0  0  0  0  0  0
    1.2337   10.1001  -14.3658 C   0  0  0  0  0  0  0  0  0  0  0  0
    3.7305   14.5112  -10.7273 H   0  0  0  0  0  0  0  0  0  0  0  0
    0.4794    7.9158  -13.0765 S   0  0  0  0  0  0  0  0  0  0  0  0
    0.6969    6.4787  -13.4924 O   0  0  0  0  0  0  0  0  0  0  0  0
    0.5695    7.9501  -11.5797 O   0  0  0  0  0  0  0  0  0  0  0  0
   -1.1632    8.3222  -13.5214 C   0  0  0  0  0  0  0  0  0  0  0  0
   -1.9635    7.4877  -14.2826 C   0  0  0  0  0  0  0  0  0  0  0  0
   -3.2590    7.8617  -14.6058 C   0  0  0  0  0  0  0  0  0  0  0  0
   -3.8041    9.0558  -14.1937 C   0  0  0  0  0  0  0  0  0  0  0  0
   -3.0082    9.8873  -13.4356 C   0  0  0  0  0  0  0  0  0  0  0  0
   -1.7214    9.5159  -13.1146 C   0  0  0  0  0  0  0  0  0  0  0  0
   -4.2581    6.7931  -15.5707 Cl  0  0  0  0  0  0  0  0  0  0  0  0
   -5.1190    9.4140  -14.5322 O   0  0  0  0  0  0  0  0  0  0  0  0
   -5.9940    9.8952  -13.5295 C   0  0  0  0  0  0  0  0  0  0  0  0
 16 17  2  0  0  0
 16 18  2  0  0  0
 16  1  1  0  0  0
 16 19  1  0  0  0
  1  2  1  0  0  0
  1 14  1  0  0  0
  2  3  1  0  0  0
  3  4  1  0  0  0
  4  5  2  0  0  0
  4 12  1  0  0  0
  5  6  1  0  0  0
  5 14  1  0  0  0
  6  7  2  0  0  0
  7  8  1  0  0  0
  7 11  1  0  0  0
  8  9  1  0  0  0
  8 12  1  0  0  0
  9 10  1  0  0  0
 10 11  2  0  0  0
 12 13  2  0  0  0
 19 20  2  0  0  0
 19 24  1  0  0  0
 20 21  1  0  0  0
 21 22  2  0  0  0
 21 25  1  0  0  0
 22 23  1  0  0  0
 22 26  1  0  0  0
 23 24  2  0  0  0
 26 27  1  0  0  0
  9 15  1  0  0  0
M  END
> <minimizedAffinity>
-9.25375

$$$$
2270


 22 24  0  0  0  0  0  0  0  0999 V2000
   -0.6753   15.9976  -13.4107 C   0  0  0  0  0  0  0  0  0  0  0  0
   -0.7465   16.3621  -14.6184 O   0  0  0  0  0  0  0  0  0  0  0  0
   -1.5336   16.5550  -12.4139 N   0  0  0  0  0  0  0  0  0  0  0  0
   -1.4379   16.2286  -11.4528 H   0  0  0  0  0  0  0  0  0  0  0  0
    3.1377   11.5883  -11.9969 Cl  0  0  0  0  0  0  0  0  0  0  0  0
    2.0393   12.9058  -12.3993 C   0  0  0  0  0  0  0  0  0  0  0  0
    0.8609   12.6265  -13.0580 C   0  0  0  0  0  0  0  0  0  0  0  0
    0.0155   13.6690  -13.3637 C   0  0  0  0  0  0  0  0  0  0  0  0
    0.2948   15.0001  -13.0368 C   0  0  0  0  0  0  0  0  0  0  0  0
    1.4637   15.2667  -12.3845 C   0  0  0  0  0  0  0  0  0  0  0  0
    2.3355   14.2193  -12.0655 C   0  0  0  0  0  0  0  0  0  0  0  0
    0.5564   11.3148  -13.3951 O   0  0  0  0  0  0  0  0  0  0  0  0
   -0.7832   10.8789  -13.5230 C   0  0  0  0  0  0  0  0  0  0  0  0
   -2.4854   17.5438  -12.8261 C   0  0  0  0  0  0  0  0  0  0  0  0
   -2.7024   18.6909  -11.9222 C   0  0  0  0  0  0  0  0  0  0  0  0
   -2.8324   18.4131  -10.5248 N   0  0  0  0  0  0  0  0  0  0  0  0
   -2.1486   19.5387   -9.8426 C   0  0  0  0  0  0  0  0  0  0  0  0
   -2.6918   20.7838  -10.5549 C   0  0  0  0  0  0  0  0  0  0  0  0
   -3.9741   20.5373  -11.1829 N   0  0  0  0  0  0  0  0  0  0  0  0
   -3.8665   19.5932  -12.2980 C   0  0  0  0  0  0  0  0  0  0  0  0
   -4.8021   19.8666  -10.1957 C   0  0  0  0  0  0  0  0  0  0  0  0
   -4.1848   18.4858  -10.0104 C   0  0  0  0  0  0  0  0  0  0  0  0
  5  6  1  0  0  0
  6  7  2  0  0  0
  6 11  1  0  0  0
  7  8  1  0  0  0
  7 12  1  0  0  0
  8  9  2  0  0  0
  9 10  1  0  0  0
  9  1  1  0  0  0
 10 11  2  0  0  0
  1  2  2  0  0  0
  1  3  1  0  0  0
  3 14  1  0  0  0
 14 15  1  0  0  0
 15 16  1  0  0  0
 15 20  1  0  0  0
 16 17  1  0  0  0
 16 22  1  0  0  0
 17 18  1  0  0  0
 18 19  1  0  0  0
 19 20  1  0  0  0
 19 21  1  0  0  0
 21 22  1  0  0  0
 12 13  1  0  0  0
  3  4  1  0  0  0
M  END
> <minimizedAffinity>
-7.26894

$$$$
2271


 27 30  0  0  0  0  0  0  0  0999 V2000
    2.4791    8.9737  -15.0327 C   0  0  0  0  0  0  0  0  0  0  0  0
    1.6087    9.7051  -14.2556 N   0  0  0  0  0  0  0  0  0  0  0  0
    0.8129    8.7196  -13.5537 C   0  0  0  0  0  0  0  0  0  0  0  0
    0.3749    8.5693  -12.3460 C   0  0  0  0  0  0  0  0  0  0  0  0
   -0.4431    7.4261  -11.9019 C   0  0  0  0  0  0  0  0  0  0  0  0
   -0.7378    6.4016  -12.9390 C   0  0  0  0  0  0  0  0  0  0  0  0
   -0.6255    6.8896  -14.3439 C   0  0  0  0  0  0  0  0  0  0  0  0
    0.5187    7.7526  -14.5461 N   0  0  0  0  0  0  0  0  0  0  0  0
    1.5225    7.8848  -15.5983 C   0  0  0  0  0  0  0  0  0  0  0  0
    2.8645    9.6811  -16.2065 O   0  0  0  0  0  0  0  0  0  0  0  0
    0.8694   10.1135  -14.9373 H   0  0  0  0  0  0  0  0  0  0  0  0
    2.0248    9.8318  -16.7122 H   0  0  0  0  0  0  0  0  0  0  0  0
    7.2447    5.9705  -12.9712 Cl  0  0  0  0  0  0  0  0  0  0  0  0
    5.8660    6.8563  -13.5720 C   0  0  0  0  0  0  0  0  0  0  0  0
    5.9829    7.9798  -14.3806 C   0  0  0  0  0  0  0  0  0  0  0  0
    4.8923    8.6579  -14.8394 C   0  0  0  0  0  0  0  0  0  0  0  0
    3.6162    8.2437  -14.5099 C   0  0  0  0  0  0  0  0  0  0  0  0
    3.4934    7.1340  -13.7115 C   0  0  0  0  0  0  0  0  0  0  0  0
    4.6019    6.4475  -13.2468 C   0  0  0  0  0  0  0  0  0  0  0  0
    1.9805   10.7744  -13.4555 C   0  0  0  0  0  0  0  0  0  0  0  0
    3.0951   10.8770  -12.6944 C   0  0  0  0  0  0  0  0  0  0  0  0
    3.3380   12.0294  -11.9489 C   0  0  0  0  0  0  0  0  0  0  0  0
    2.4723   13.1100  -11.9463 C   0  0  0  0  0  0  0  0  0  0  0  0
    1.3461   12.9765  -12.7309 C   0  0  0  0  0  0  0  0  0  0  0  0
    1.0787   11.8576  -13.4741 C   0  0  0  0  0  0  0  0  0  0  0  0
    2.7514   14.2366  -11.1900 O   0  0  0  0  0  0  0  0  0  0  0  0
    1.8255   15.2920  -11.1583 C   0  0  0  0  0  0  0  0  0  0  0  0
 13 14  1  0  0  0
 14 15  2  0  0  0
 14 19  1  0  0  0
 15 16  1  0  0  0
 16 17  2  0  0  0
 17 18  1  0  0  0
 17  1  1  0  0  0
 18 19  2  0  0  0
  1  2  1  0  0  0
  1  9  1  0  0  0
  1 10  1  0  0  0
  2  3  1  0  0  0
  2 20  1  0  0  0
  3  4  2  0  0  0
  3  8  1  0  0  0
  4  5  1  0  0  0
  5  6  1  0  0  0
  6  7  1  0  0  0
  7  8  1  0  0  0
  8  9  1  0  0  0
 20 21  2  0  0  0
 20 25  1  0  0  0
 21 22  1  0  0  0
 22 23  2  0  0  0
 23 24  1  0  0  0
 23 26  1  0  0  0
 24 25  2  0  0  0
 26 27  1  0  0  0
  2 11  1  0  0  0
 10 12  1  0  0  0
M  CHG 1   2   1
M  END
> <minimizedAffinity>
-7.46427

$$$$
2272


 29 32  0  0  0  0  0  0  0  0999 V2000
   -4.7925    8.4168  -14.3855 C   0  0  0  0  0  0  0  0  0  0  0  0
   -5.3958    7.2764  -14.3792 O   0  0  0  0  0  0  0  0  0  0  0  0
   -3.4004    8.3623  -14.4788 N   0  0  0  0  0  0  0  0  0  0  0  0
   -2.5044    9.5184  -14.2886 C   0  0  0  0  0  0  0  0  0  0  0  0
   -1.8704    9.0984  -12.9254 C   0  0  0  0  0  0  0  0  0  0  0  0
   -1.0594    7.9131  -13.1662 N   0  0  0  0  0  0  0  0  0  0  0  0
   -1.3259    7.0846  -14.2093 C   0  0  0  0  0  0  0  0  0  0  0  0
   -2.6923    7.1618  -14.8286 C   0  0  0  0  0  0  0  0  0  0  0  0
   -5.6664    9.5627  -14.3177 C   0  0  0  0  0  0  0  0  0  0  0  0
   -6.9456    9.6083  -15.0201 C   0  0  0  0  0  0  0  0  0  0  0  0
  -11.8878   14.0347  -17.3738 Cl  0  0  0  0  0  0  0  0  0  0  0  0
  -10.6617   13.0240  -16.6494 C   0  0  0  0  0  0  0  0  0  0  0  0
  -10.2084   13.2796  -15.3846 C   0  0  0  0  0  0  0  0  0  0  0  0
   -9.2334   12.4445  -14.8240 C   0  0  0  0  0  0  0  0  0  0  0  0
   -8.7108   11.3698  -15.5038 C   0  0  0  0  0  0  0  0  0  0  0  0
   -9.1694   11.0943  -16.8042 C   0  0  0  0  0  0  0  0  0  0  0  0
  -10.1335   11.9404  -17.3268 C   0  0  0  0  0  0  0  0  0  0  0  0
   -7.8181   10.7373  -14.7471 N   0  0  0  0  0  0  0  0  0  0  0  0
   -7.7868   11.4437  -13.5669 C   0  0  0  0  0  0  0  0  0  0  0  0
   -7.0552   11.1678  -12.5728 O   0  0  0  0  0  0  0  0  0  0  0  0
   -8.6362   12.4366  -13.6616 O   0  0  0  0  0  0  0  0  0  0  0  0
   -0.3831    7.6145  -11.9945 C   0  0  0  0  0  0  0  0  0  0  0  0
    1.1276    7.7992  -12.1447 C   0  0  0  0  0  0  0  0  0  0  0  0
    1.8066    6.7487  -11.8283 O   0  0  0  0  0  0  0  0  0  0  0  0
    1.6461    8.9504  -12.5561 N   0  0  0  0  0  0  0  0  0  0  0  0
    2.8853    8.4029  -12.6527 H   0  0  0  0  0  0  0  0  0  0  0  0
    2.1973   10.1762  -12.9936 C   0  0  0  0  0  0  0  0  0  0  0  0
    1.1776   11.1321  -13.7228 C   0  0  0  0  0  0  0  0  0  0  0  0
    2.2146   10.4586  -14.4813 C   0  0  0  0  0  0  0  0  0  0  0  0
 11 12  1  0  0  0
 12 13  2  0  0  0
 12 17  1  0  0  0
 13 14  1  0  0  0
 14 15  2  0  0  0
 14 21  1  0  0  0
 15 16  1  0  0  0
 15 18  1  0  0  0
 16 17  2  0  0  0
 18 19  1  0  0  0
 18 10  1  0  0  0
 19 20  2  0  0  0
 19 21  1  0  0  0
 10  9  1  0  0  0
  9  1  1  0  0  0
  1  2  2  0  0  0
  1  3  1  0  0  0
  3  4  1  0  0  0
  3  8  1  0  0  0
  4  5  1  0  0  0
  5  6  1  0  0  0
  6  7  1  0  0  0
  6 22  1  0  0  0
  7  8  1  0  0  0
 22 23  1  0  0  0
 23 24  2  0  0  0
 23 25  1  0  0  0
 25 27  1  0  0  0
 27 28  1  0  0  0
 27 29  1  0  0  0
 28 29  1  0  0  0
 25 26  1  0  0  0
M  END
> <minimizedAffinity>
-9.31368

$$$$
2275


 21 23  0  0  0  0  0  0  0  0999 V2000
    1.9284   15.3894  -11.1869 Cl  0  0  0  0  0  0  0  0  0  0  0  0
    1.5205   13.9397  -12.0779 C   0  0  0  0  0  0  0  0  0  0  0  0
    0.2609   13.7936  -12.6212 C   0  0  0  0  0  0  0  0  0  0  0  0
    0.0117   12.6293  -13.3135 C   0  0  0  0  0  0  0  0  0  0  0  0
   -1.1124   12.3932  -13.8531 O   0  0  0  0  0  0  0  0  0  0  0  0
    0.9731   11.7015  -13.4331 N   0  0  0  0  0  0  0  0  0  0  0  0
    2.1884   11.7993  -12.9315 N   0  0  0  0  0  0  0  0  0  0  0  0
    3.2011   10.7684  -13.0862 C   0  0  0  0  0  0  0  0  0  0  0  0
    2.9127    9.5455  -12.2413 C   0  0  0  0  0  0  0  0  0  0  0  0
    1.9072    8.6442  -12.9365 C   0  0  0  0  0  0  0  0  0  0  0  0
    0.5931    9.3567  -13.1606 C   0  0  0  0  0  0  0  0  0  0  0  0
    0.6834   10.4652  -14.1760 C   0  0  0  0  0  0  0  0  0  0  0  0
    1.8712   10.2116  -15.0343 C   0  0  0  0  0  0  0  0  0  0  0  0
    3.0926   10.3101  -14.5214 C   0  0  0  0  0  0  0  0  0  0  0  0
    2.4611   12.9452  -12.2397 C   0  0  0  0  0  0  0  0  0  0  0  0
    3.6310   13.0682  -11.7417 O   0  0  0  0  0  0  0  0  0  0  0  0
   -0.7615   14.7768  -12.4905 N   0  0  0  0  0  0  0  0  0  0  0  0
   -1.6143   14.4464  -11.9453 H   0  0  0  0  0  0  0  0  0  0  0  0
   -0.6880   16.1075  -13.0295 C   0  0  0  0  0  0  0  0  0  0  0  0
   -0.4681   16.0994  -14.5324 C   0  0  0  0  0  0  0  0  0  0  0  0
   -1.8797   16.9584  -12.7426 C   0  0  0  0  0  0  0  0  0  0  0  0
  1  2  1  0  0  0
  2  3  2  0  0  0
  2 15  1  0  0  0
  3  4  1  0  0  0
  3 17  1  0  0  0
  4  5  2  0  0  0
  4  6  1  0  0  0
  6  7  1  0  0  0
  6 12  1  0  0  0
  7  8  1  0  0  0
  7 15  1  0  0  0
  8  9  1  0  0  0
  8 14  1  0  0  0
  9 10  1  0  0  0
 10 11  1  0  0  0
 11 12  1  0  0  0
 12 13  1  0  0  0
 13 14  2  0  0  0
 15 16  2  0  0  0
 17 19  1  0  0  0
 19 20  1  0  0  0
 19 21  1  0  0  0
 17 18  1  0  0  0
M  END
> <minimizedAffinity>
-7.25200

$$$$
2276


 21 24  0  0  0  0  0  0  0  0999 V2000
   -5.1040    7.3990  -15.6953 Cl  0  0  0  0  0  0  0  0  0  0  0  0
   -3.6691    7.9352  -14.8442 C   0  0  0  0  0  0  0  0  0  0  0  0
   -3.6724    9.2056  -14.3072 C   0  0  0  0  0  0  0  0  0  0  0  0
   -2.4923    9.5696  -13.6464 C   0  0  0  0  0  0  0  0  0  0  0  0
   -2.4406   10.7078  -13.1418 O   0  0  0  0  0  0  0  0  0  0  0  0
   -1.4564    8.7266  -13.5580 N   0  0  0  0  0  0  0  0  0  0  0  0
   -1.4603    7.5080  -14.0762 N   0  0  0  0  0  0  0  0  0  0  0  0
   -0.2524    6.7182  -13.8840 C   0  0  0  0  0  0  0  0  0  0  0  0
    0.8895    7.5283  -14.4695 C   0  0  0  0  0  0  0  0  0  0  0  0
    0.8806    8.8976  -13.9419 C   0  0  0  0  0  0  0  0  0  0  0  0
   -0.2098    9.0874  -12.8787 C   0  0  0  0  0  0  0  0  0  0  0  0
   -0.0028    7.9826  -11.8804 C   0  0  0  0  0  0  0  0  0  0  0  0
   -0.0234    6.7630  -12.3909 C   0  0  0  0  0  0  0  0  0  0  0  0
    2.0286    7.9341  -13.6110 C   0  0  0  0  0  0  0  0  0  0  0  0
   -2.5552    7.1105  -14.7158 C   0  0  0  0  0  0  0  0  0  0  0  0
   -2.5689    5.9547  -15.2113 O   0  0  0  0  0  0  0  0  0  0  0  0
   -4.7690   10.1116  -14.3891 N   0  0  0  0  0  0  0  0  0  0  0  0
   -4.5575   11.0238  -14.8460 H   0  0  0  0  0  0  0  0  0  0  0  0
   -6.0786    9.8635  -13.9071 C   0  0  0  0  0  0  0  0  0  0  0  0
   -6.2119    9.8875  -12.4065 C   0  0  0  0  0  0  0  0  0  0  0  0
   -7.1120   10.8419  -14.4478 C   0  0  0  0  0  0  0  0  0  0  0  0
  1  2  1  0  0  0
  2  3  2  0  0  0
  2 15  1  0  0  0
  3  4  1  0  0  0
  3 17  1  0  0  0
  4  5  2  0  0  0
  4  6  1  0  0  0
  6  7  1  0  0  0
  6 11  1  0  0  0
  7  8  1  0  0  0
  7 15  1  0  0  0
  8  9  1  0  0  0
  8 13  1  0  0  0
  9 10  1  0  0  0
  9 14  1  0  0  0
 10 11  1  0  0  0
 10 14  1  0  0  0
 11 12  1  0  0  0
 12 13  2  0  0  0
 15 16  2  0  0  0
 17 19  1  0  0  0
 19 20  1  0  0  0
 19 21  1  0  0  0
 17 18  1  0  0  0
M  END
> <minimizedAffinity>
-7.83199

$$$$
2281


 34 37  0  0  0  0  0  0  0  0999 V2000
    0.2454    7.1723  -13.0753 N   0  0  0  0  0  0  0  0  0  0  0  0
   -0.6870    6.9719  -14.1025 C   0  0  0  0  0  0  0  0  0  0  0  0
   -1.3643    8.3629  -14.3857 C   0  0  0  0  0  0  0  0  0  0  0  0
   -0.7892    9.4752  -13.8119 N   0  0  0  0  0  0  0  0  0  0  0  0
   -0.0431    9.3350  -12.5912 C   0  0  0  0  0  0  0  0  0  0  0  0
   -0.3707    7.9593  -11.9238 C   0  0  0  0  0  0  0  0  0  0  0  0
    2.1328    8.8969  -14.7648 Cl  0  0  0  0  0  0  0  0  0  0  0  0
    2.5659    7.4836  -13.7210 C   0  0  0  0  0  0  0  0  0  0  0  0
    1.6131    6.9903  -12.9423 C   0  0  0  0  0  0  0  0  0  0  0  0
    2.0390    5.8669  -12.0726 C   0  0  0  0  0  0  0  0  0  0  0  0
    3.2505    5.4658  -12.1686 N   0  0  0  0  0  0  0  0  0  0  0  0
    4.1930    5.9899  -12.9954 N   0  0  0  0  0  0  0  0  0  0  0  0
    3.8704    6.9907  -13.7677 C   0  0  0  0  0  0  0  0  0  0  0  0
    4.6765    7.5469  -14.5883 O   0  0  0  0  0  0  0  0  0  0  0  0
    5.4272    5.2229  -13.1554 C   0  0  0  0  0  0  0  0  0  0  0  0
    6.6425    5.6986  -12.7809 C   0  0  0  0  0  0  0  0  0  0  0  0
    7.7696    4.9072  -12.8313 C   0  0  0  0  0  0  0  0  0  0  0  0
    7.6921    3.5864  -13.2699 C   0  0  0  0  0  0  0  0  0  0  0  0
    6.4326    3.1282  -13.6558 C   0  0  0  0  0  0  0  0  0  0  0  0
    5.3488    3.9152  -13.5992 C   0  0  0  0  0  0  0  0  0  0  0  0
   -1.7450   10.5805  -13.4680 C   0  0  0  0  0  0  0  0  0  0  0  0
   -3.0792   10.0329  -13.2730 C   0  0  0  0  0  0  0  0  0  0  0  0
   -3.6327    9.5604  -12.4255 O   0  0  0  0  0  0  0  0  0  0  0  0
   -3.9808   10.1773  -14.7168 N   0  0  0  0  0  0  0  0  0  0  0  0
   -5.3043    9.8881  -14.0600 C   0  0  0  0  0  0  0  0  0  0  0  0
   -5.4742    9.1670  -13.1158 O   0  0  0  0  0  0  0  0  0  0  0  0
   -6.3590   10.6218  -14.7209 N   0  0  0  0  0  0  0  0  0  0  0  0
   -3.2980   10.3234  -15.0494 H   0  0  0  0  0  0  0  0  0  0  0  0
   -6.0490   11.1955  -15.5745 H   0  0  0  0  0  0  0  0  0  0  0  0
   -7.7330   10.6468  -14.3873 C   0  0  0  0  0  0  0  0  0  0  0  0
   -8.2521   11.7060  -13.5036 C   0  0  0  0  0  0  0  0  0  0  0  0
   -8.7237   12.8584  -14.3960 C   0  0  0  0  0  0  0  0  0  0  0  0
   -9.2285   12.1052  -15.6045 C   0  0  0  0  0  0  0  0  0  0  0  0
   -8.4620   10.8632  -15.7298 C   0  0  0  0  0  0  0  0  0  0  0  0
  7  8  1  0  0  0
  8  9  2  0  0  0
  8 13  1  0  0  0
  9 10  1  0  0  0
  9  1  1  0  0  0
 10 11  2  0  0  0
 11 12  1  0  0  0
 12 13  1  0  0  0
 12 15  1  0  0  0
 13 14  2  0  0  0
 15 16  2  0  0  0
 15 20  1  0  0  0
 16 17  1  0  0  0
 17 18  2  0  0  0
 18 19  1  0  0  0
 19 20  2  0  0  0
  1  2  1  0  0  0
  1  6  1  0  0  0
  2  3  1  0  0  0
  3  4  1  0  0  0
  4  5  1  0  0  0
  4 21  1  0  0  0
  5  6  1  0  0  0
 21 22  1  0  0  0
 22 23  2  0  0  0
 22 24  1  0  0  0
 24 25  1  0  0  0
 25 26  2  0  0  0
 25 27  1  0  0  0
 27 30  1  0  0  0
 30 31  1  0  0  0
 30 34  1  0  0  0
 31 32  1  0  0  0
 32 33  1  0  0  0
 33 34  1  0  0  0
 24 28  1  0  0  0
 27 29  1  0  0  0
M  END
> <minimizedAffinity>
-8.94023

$$$$
2282


 31 34  0  0  0  0  0  0  0  0999 V2000
    2.1730   10.8625  -13.2991 N   0  0  0  0  0  0  0  0  0  0  0  0
    2.7461   10.4431  -14.5557 C   0  0  0  0  0  0  0  0  0  0  0  0
    2.3929    9.0142  -14.8263 C   0  0  0  0  0  0  0  0  0  0  0  0
    1.3775    8.6351  -13.8755 N   0  0  0  0  0  0  0  0  0  0  0  0
    1.9632    8.5584  -12.5860 C   0  0  0  0  0  0  0  0  0  0  0  0
    2.2834    9.9930  -12.1549 C   0  0  0  0  0  0  0  0  0  0  0  0
    3.7793   13.0001  -12.0254 Cl  0  0  0  0  0  0  0  0  0  0  0  0
    2.1258   13.2071  -12.5624 C   0  0  0  0  0  0  0  0  0  0  0  0
    1.5037   12.1038  -13.1399 C   0  0  0  0  0  0  0  0  0  0  0  0
    0.2028   12.3015  -13.5504 C   0  0  0  0  0  0  0  0  0  0  0  0
   -0.3909   13.4967  -13.3868 N   0  0  0  0  0  0  0  0  0  0  0  0
    0.1814   14.5553  -12.8410 N   0  0  0  0  0  0  0  0  0  0  0  0
    1.4534   14.4057  -12.4257 C   0  0  0  0  0  0  0  0  0  0  0  0
    2.0226   15.4033  -11.9003 O   0  0  0  0  0  0  0  0  0  0  0  0
   -0.5148   15.8007  -12.7019 C   0  0  0  0  0  0  0  0  0  0  0  0
   -1.3926   16.2136  -13.6775 C   0  0  0  0  0  0  0  0  0  0  0  0
   -2.0780   17.4271  -13.5520 C   0  0  0  0  0  0  0  0  0  0  0  0
   -1.8973   18.2405  -12.4568 C   0  0  0  0  0  0  0  0  0  0  0  0
   -1.0208   17.8345  -11.4747 C   0  0  0  0  0  0  0  0  0  0  0  0
   -0.3449   16.6266  -11.6113 C   0  0  0  0  0  0  0  0  0  0  0  0
    0.4905    7.6180  -14.2774 C   0  0  0  0  0  0  0  0  0  0  0  0
   -0.8875    7.7800  -13.8021 C   0  0  0  0  0  0  0  0  0  0  0  0
   -1.4982    6.7054  -13.4789 O   0  0  0  0  0  0  0  0  0  0  0  0
   -1.5896    9.0022  -13.6691 N   0  0  0  0  0  0  0  0  0  0  0  0
   -1.0855    9.8756  -13.9232 H   0  0  0  0  0  0  0  0  0  0  0  0
   -2.9462    9.1109  -13.1951 C   0  0  0  0  0  0  0  0  0  0  0  0
   -3.8751    9.2443  -14.3621 C   0  0  0  0  0  0  0  0  0  0  0  0
   -3.9673    8.0416  -15.0106 O   0  0  0  0  0  0  0  0  0  0  0  0
   -5.2656    7.6145  -15.0689 C   0  0  0  0  0  0  0  0  0  0  0  0
   -6.0587    8.9040  -15.0449 C   0  0  0  0  0  0  0  0  0  0  0  0
   -5.2839    9.6175  -13.9237 C   0  0  0  0  0  0  0  0  0  0  0  0
  7  8  1  0  0  0
  8  9  2  0  0  0
  8 13  1  0  0  0
  9 10  1  0  0  0
  9  1  1  0  0  0
 10 11  2  0  0  0
 11 12  1  0  0  0
 12 13  1  0  0  0
 12 15  1  0  0  0
 13 14  2  0  0  0
 15 16  2  0  0  0
 15 20  1  0  0  0
 16 17  1  0  0  0
 17 18  2  0  0  0
 18 19  1  0  0  0
 19 20  2  0  0  0
  1  2  1  0  0  0
  1  6  1  0  0  0
  2  3  1  0  0  0
  3  4  1  0  0  0
  4  5  1  0  0  0
  4 21  1  0  0  0
  5  6  1  0  0  0
 21 22  1  0  0  0
 22 23  2  0  0  0
 22 24  1  0  0  0
 24 26  1  0  0  0
 26 27  1  0  0  0
 27 28  1  0  0  0
 27 31  1  0  0  0
 28 29  1  0  0  0
 29 30  1  0  0  0
 30 31  1  0  0  0
 24 25  1  0  0  0
M  END
> <minimizedAffinity>
-8.43321

$$$$
2284


 33 37  0  0  0  0  0  0  0  0999 V2000
   -1.0198    7.5606  -14.0274 C   0  0  0  0  0  0  0  0  0  0  0  0
   -1.9268    6.7037  -14.6187 C   0  0  0  0  0  0  0  0  0  0  0  0
   -3.2379    7.0131  -14.8765 C   0  0  0  0  0  0  0  0  0  0  0  0
   -3.9810    6.1367  -15.4284 O   0  0  0  0  0  0  0  0  0  0  0  0
   -3.7169    8.2474  -14.5395 N   0  0  0  0  0  0  0  0  0  0  0  0
   -4.9078    8.6590  -14.7239 N   0  0  0  0  0  0  0  0  0  0  0  0
   -5.2981    9.8501  -14.3786 C   0  0  0  0  0  0  0  0  0  0  0  0
   -3.8220   10.4583  -13.7193 S   0  0  0  0  0  0  0  0  0  0  0  0
   -2.8379    9.0734  -13.9686 C   0  0  0  0  0  0  0  0  0  0  0  0
   -1.5471    8.7642  -13.7156 N   0  0  0  0  0  0  0  0  0  0  0  0
   -6.5946   10.5292  -14.4901 C   0  0  0  0  0  0  0  0  0  0  0  0
   -7.3923   10.2568  -15.5807 C   0  0  0  0  0  0  0  0  0  0  0  0
   -8.6289   10.8658  -15.7439 C   0  0  0  0  0  0  0  0  0  0  0  0
   -9.0795   11.7642  -14.7990 C   0  0  0  0  0  0  0  0  0  0  0  0
   -8.2958   12.0535  -13.6951 C   0  0  0  0  0  0  0  0  0  0  0  0
   -7.0772   11.4252  -13.5776 C   0  0  0  0  0  0  0  0  0  0  0  0
  -10.6223   12.5325  -14.9895 Cl  0  0  0  0  0  0  0  0  0  0  0  0
    0.3884    7.1752  -13.7700 C   0  0  0  0  0  0  0  0  0  0  0  0
    2.9489   10.4306  -13.5626 N   0  0  0  0  0  0  0  0  0  0  0  0
    2.2564   10.2175  -14.7576 C   0  0  0  0  0  0  0  0  0  0  0  0
    1.8383    8.7493  -14.8885 C   0  0  0  0  0  0  0  0  0  0  0  0
    1.1841    8.3590  -13.7040 N   0  0  0  0  0  0  0  0  0  0  0  0
    1.9505    8.5191  -12.5273 C   0  0  0  0  0  0  0  0  0  0  0  0
    3.2301    9.2626  -12.8381 C   0  0  0  0  0  0  0  0  0  0  0  0
    2.9567   11.9140  -12.8195 S   0  0  0  0  0  0  0  0  0  0  0  0
    3.8227   12.8647  -13.6401 O   0  0  0  0  0  0  0  0  0  0  0  0
    3.4737   11.8517  -11.4055 O   0  0  0  0  0  0  0  0  0  0  0  0
    1.3599   12.6290  -12.8147 C   0  0  0  0  0  0  0  0  0  0  0  0
    0.2016   12.0403  -13.2230 N   0  0  0  0  0  0  0  0  0  0  0  0
   -0.8210   12.8853  -13.0807 C   0  0  0  0  0  0  0  0  0  0  0  0
   -0.3762   14.0454  -12.5781 N   0  0  0  0  0  0  0  0  0  0  0  0
    0.9656   13.8834  -12.4161 C   0  0  0  0  0  0  0  0  0  0  0  0
   -0.9386   14.8845  -12.3613 H   0  0  0  0  0  0  0  0  0  0  0  0
 25 26  2  0  0  0
 25 27  2  0  0  0
 25 19  1  0  0  0
 25 28  1  0  0  0
 19 20  1  0  0  0
 19 24  1  0  0  0
 20 21  1  0  0  0
 21 22  1  0  0  0
 22 23  1  0  0  0
 22 18  1  0  0  0
 23 24  1  0  0  0
 18  1  1  0  0  0
  1  2  2  0  0  0
  1 10  1  0  0  0
  2  3  1  0  0  0
  3  4  2  0  0  0
  3  5  1  0  0  0
  5  6  1  0  0  0
  5  9  1  0  0  0
  6  7  2  0  0  0
  7  8  1  0  0  0
  7 11  1  0  0  0
  8  9  1  0  0  0
  9 10  2  0  0  0
 11 12  2  0  0  0
 11 16  1  0  0  0
 12 13  1  0  0  0
 13 14  2  0  0  0
 14 15  1  0  0  0
 14 17  1  0  0  0
 15 16  2  0  0  0
 28 29  1  0  0  0
 28 32  2  0  0  0
 29 30  2  0  0  0
 30 31  1  0  0  0
 31 32  1  0  0  0
 31 33  1  0  0  0
M  END
> <minimizedAffinity>
-8.81484

$$$$
2285


 32 35  0  0  0  0  0  0  0  0999 V2000
    1.5820   10.2546  -13.8056 N   0  0  0  0  0  0  0  0  0  0  0  0
    0.3288   10.8883  -13.5225 C   0  0  0  0  0  0  0  0  0  0  0  0
    0.3873   12.4271  -13.5315 C   0  0  0  0  0  0  0  0  0  0  0  0
    1.4071   12.8001  -12.6020 N   0  0  0  0  0  0  0  0  0  0  0  0
    2.6709   12.3847  -13.1443 C   0  0  0  0  0  0  0  0  0  0  0  0
    2.6697   10.8897  -12.9814 C   0  0  0  0  0  0  0  0  0  0  0  0
    1.4687    8.6330  -13.0819 S   0  0  0  0  0  0  0  0  0  0  0  0
    2.6850    7.8555  -13.5482 O   0  0  0  0  0  0  0  0  0  0  0  0
    1.5000    8.7734  -11.6017 O   0  0  0  0  0  0  0  0  0  0  0  0
    0.0501    7.8000  -13.5833 C   0  0  0  0  0  0  0  0  0  0  0  0
   -1.1316    8.5512  -13.5279 C   0  0  0  0  0  0  0  0  0  0  0  0
   -2.3654    8.0791  -13.9835 C   0  0  0  0  0  0  0  0  0  0  0  0
   -2.4184    6.7961  -14.5199 C   0  0  0  0  0  0  0  0  0  0  0  0
   -1.2451    6.0652  -14.5614 C   0  0  0  0  0  0  0  0  0  0  0  0
   -0.0235    6.5467  -14.1087 C   0  0  0  0  0  0  0  0  0  0  0  0
   -3.6678    6.3959  -14.9560 O   0  0  0  0  0  0  0  0  0  0  0  0
   -4.4933    7.3917  -15.6182 C   0  0  0  0  0  0  0  0  0  0  0  0
   -4.4570    8.7226  -14.9435 C   0  0  0  0  0  0  0  0  0  0  0  0
   -3.5133    8.8493  -13.9079 O   0  0  0  0  0  0  0  0  0  0  0  0
    1.2502   13.9479  -11.8450 C   0  0  0  0  0  0  0  0  0  0  0  0
    0.5993   15.0961  -12.4798 C   0  0  0  0  0  0  0  0  0  0  0  0
    1.4313   15.8212  -13.1844 O   0  0  0  0  0  0  0  0  0  0  0  0
   -0.6938   15.5340  -12.4779 N   0  0  0  0  0  0  0  0  0  0  0  0
   -1.4883   15.0765  -11.9190 H   0  0  0  0  0  0  0  0  0  0  0  0
   -1.2009   16.6554  -13.2717 C   0  0  0  0  0  0  0  0  0  0  0  0
   -1.9062   17.5964  -12.3784 C   0  0  0  0  0  0  0  0  0  0  0  0
   -3.1328   18.1849  -12.7639 C   0  0  0  0  0  0  0  0  0  0  0  0
   -3.7373   19.1458  -12.0477 C   0  0  0  0  0  0  0  0  0  0  0  0
   -3.1495   19.6206  -10.8335 C   0  0  0  0  0  0  0  0  0  0  0  0
   -1.9851   19.0816  -10.4592 C   0  0  0  0  0  0  0  0  0  0  0  0
   -1.3313   18.0815  -11.1895 C   0  0  0  0  0  0  0  0  0  0  0  0
   -3.9043   17.5981  -14.2582 Cl  0  0  0  0  0  0  0  0  0  0  0  0
  7  8  2  0  0  0
  7  9  2  0  0  0
  7  1  1  0  0  0
  7 10  1  0  0  0
  1  2  1  0  0  0
  1  6  1  0  0  0
  2  3  1  0  0  0
  3  4  1  0  0  0
  4  5  1  0  0  0
  4 20  1  0  0  0
  5  6  1  0  0  0
 20 21  1  0  0  0
 21 22  2  0  0  0
 21 23  1  0  0  0
 23 25  1  0  0  0
 25 26  1  0  0  0
 26 27  2  0  0  0
 26 31  1  0  0  0
 27 28  1  0  0  0
 27 32  1  0  0  0
 28 29  2  0  0  0
 29 30  1  0  0  0
 30 31  2  0  0  0
 10 11  2  0  0  0
 10 15  1  0  0  0
 11 12  1  0  0  0
 12 13  2  0  0  0
 12 19  1  0  0  0
 13 14  1  0  0  0
 13 16  1  0  0  0
 14 15  2  0  0  0
 16 17  1  0  0  0
 17 18  1  0  0  0
 18 19  1  0  0  0
 23 24  1  0  0  0
M  END
> <minimizedAffinity>
-10.48061

$$$$
2286


 31 34  0  0  0  0  0  0  0  0999 V2000
    1.8596   10.5263  -13.3518 N   0  0  0  0  0  0  0  0  0  0  0  0
    2.0732   10.2344  -14.7227 C   0  0  0  0  0  0  0  0  0  0  0  0
    3.2368    9.3153  -14.9846 C   0  0  0  0  0  0  0  0  0  0  0  0
    3.3353    8.2627  -13.9956 N   0  0  0  0  0  0  0  0  0  0  0  0
    2.1955    8.1067  -13.1121 C   0  0  0  0  0  0  0  0  0  0  0  0
    1.8047    9.4151  -12.4702 C   0  0  0  0  0  0  0  0  0  0  0  0
    4.4875    7.4690  -13.9369 C   0  0  0  0  0  0  0  0  0  0  0  0
    5.4192    7.6842  -14.7482 O   0  0  0  0  0  0  0  0  0  0  0  0
    2.7520   11.8570  -12.7514 S   0  0  0  0  0  0  0  0  0  0  0  0
    3.9605   12.0694  -13.6104 O   0  0  0  0  0  0  0  0  0  0  0  0
    3.2163   11.6145  -11.3457 O   0  0  0  0  0  0  0  0  0  0  0  0
    1.7729   13.3331  -12.7113 C   0  0  0  0  0  0  0  0  0  0  0  0
    0.1268   13.5260  -13.0847 S   0  0  0  0  0  0  0  0  0  0  0  0
   -0.0275   15.1956  -12.8019 C   0  0  0  0  0  0  0  0  0  0  0  0
    1.2321   15.5690  -12.4160 C   0  0  0  0  0  0  0  0  0  0  0  0
    2.1708   14.5965  -12.3685 C   0  0  0  0  0  0  0  0  0  0  0  0
   -1.4581   16.2376  -12.9590 Cl  0  0  0  0  0  0  0  0  0  0  0  0
    4.6504    6.3738  -12.9463 C   0  0  0  0  0  0  0  0  0  0  0  0
    5.8669    5.6369  -13.1488 N   0  0  0  0  0  0  0  0  0  0  0  0
    5.9266    4.2969  -13.6133 C   0  0  0  0  0  0  0  0  0  0  0  0
    4.9087    3.5835  -13.9064 O   0  0  0  0  0  0  0  0  0  0  0  0
    7.2679    3.8361  -13.7136 N   0  0  0  0  0  0  0  0  0  0  0  0
    8.1032    4.8396  -13.0806 C   0  0  0  0  0  0  0  0  0  0  0  0
    9.2758    5.2261  -13.9347 C   0  0  0  0  0  0  0  0  0  0  0  0
   10.4594    4.3164  -13.7861 C   0  0  0  0  0  0  0  0  0  0  0  0
   10.8571    4.0706  -12.3604 C   0  0  0  0  0  0  0  0  0  0  0  0
    9.9116    4.7223  -11.3752 C   0  0  0  0  0  0  0  0  0  0  0  0
    8.5056    4.2932  -11.7314 C   0  0  0  0  0  0  0  0  0  0  0  0
    7.2199    6.0258  -12.9537 C   0  0  0  0  0  0  0  0  0  0  0  0
    7.5737    7.2041  -12.7117 O   0  0  0  0  0  0  0  0  0  0  0  0
    7.6959    2.5865  -14.3416 C   0  0  0  0  0  0  0  0  0  0  0  0
  9 10  2  0  0  0
  9 11  2  0  0  0
  9  1  1  0  0  0
  9 12  1  0  0  0
  1  2  1  0  0  0
  1  6  1  0  0  0
  2  3  1  0  0  0
  3  4  1  0  0  0
  4  5  1  0  0  0
  4  7  1  0  0  0
  5  6  1  0  0  0
  7  8  2  0  0  0
  7 18  1  0  0  0
 18 19  1  0  0  0
 19 20  1  0  0  0
 19 29  1  0  0  0
 20 21  2  0  0  0
 20 22  1  0  0  0
 22 23  1  0  0  0
 22 31  1  0  0  0
 23 24  1  0  0  0
 23 28  1  0  0  0
 23 29  1  0  0  0
 24 25  1  0  0  0
 25 26  1  0  0  0
 26 27  1  0  0  0
 27 28  1  0  0  0
 29 30  2  0  0  0
 12 13  1  0  0  0
 12 16  2  0  0  0
 13 14  1  0  0  0
 14 15  2  0  0  0
 14 17  1  0  0  0
 15 16  1  0  0  0
M  END
> <minimizedAffinity>
-8.60904

$$$$
2298


 34 37  0  0  0  0  0  0  0  0999 V2000
    4.0392    8.0842  -14.6867 C   0  0  0  0  0  0  0  0  0  0  0  0
    2.3496   10.8129  -13.2632 N   0  0  0  0  0  0  0  0  0  0  0  0
    1.8940    9.7806  -12.4702 C   0  0  0  0  0  0  0  0  0  0  0  0
    2.5695    8.4872  -12.8383 C   0  0  0  0  0  0  0  0  0  0  0  0
    2.6879    8.2264  -14.2281 N   0  0  0  0  0  0  0  0  0  0  0  0
    1.9474    9.1688  -15.0039 C   0  0  0  0  0  0  0  0  0  0  0  0
    2.3638   10.5919  -14.6444 C   0  0  0  0  0  0  0  0  0  0  0  0
    2.8737   12.2708  -12.6611 S   0  0  0  0  0  0  0  0  0  0  0  0
    3.2824   12.2172  -11.2095 O   0  0  0  0  0  0  0  0  0  0  0  0
    4.0625   12.8522  -13.3932 O   0  0  0  0  0  0  0  0  0  0  0  0
    1.5735   13.4555  -12.7472 C   0  0  0  0  0  0  0  0  0  0  0  0
    1.7958   14.7753  -12.4674 C   0  0  0  0  0  0  0  0  0  0  0  0
    0.7877   15.7008  -12.5331 C   0  0  0  0  0  0  0  0  0  0  0  0
   -0.4768   15.2849  -12.8883 C   0  0  0  0  0  0  0  0  0  0  0  0
   -0.7052   13.9516  -13.1713 C   0  0  0  0  0  0  0  0  0  0  0  0
    0.3119   13.0339  -13.1030 C   0  0  0  0  0  0  0  0  0  0  0  0
   -1.7462   16.4941  -12.9631 Cl  0  0  0  0  0  0  0  0  0  0  0  0
    4.8047    7.1206  -13.8261 C   0  0  0  0  0  0  0  0  0  0  0  0
    4.1609    6.1700  -13.3309 O   0  0  0  0  0  0  0  0  0  0  0  0
    6.1928    7.2847  -13.5897 N   0  0  0  0  0  0  0  0  0  0  0  0
    6.6763    8.1072  -14.0399 H   0  0  0  0  0  0  0  0  0  0  0  0
    6.8427    6.3170  -12.7544 C   0  0  0  0  0  0  0  0  0  0  0  0
    7.9945    5.5973  -13.3430 C   0  0  0  0  0  0  0  0  0  0  0  0
    9.1521    5.6243  -12.3752 C   0  0  0  0  0  0  0  0  0  0  0  0
   10.0749    6.8244  -12.6105 C   0  0  0  0  0  0  0  0  0  0  0  0
   10.7947    6.6783  -13.9364 C   0  0  0  0  0  0  0  0  0  0  0  0
    9.8613    5.9401  -14.8783 C   0  0  0  0  0  0  0  0  0  0  0  0
    8.4659    6.4291  -14.5521 C   0  0  0  0  0  0  0  0  0  0  0  0
    7.7846    4.2860  -13.8236 N   0  0  0  0  0  0  0  0  0  0  0  0
    8.6568    3.2566  -13.3817 C   0  0  0  0  0  0  0  0  0  0  0  0
    8.4766    2.0946  -14.3758 C   0  0  0  0  0  0  0  0  0  0  0  0
    7.1880    1.6210  -14.3191 O   0  0  0  0  0  0  0  0  0  0  0  0
    6.3710    2.2998  -13.4505 C   0  0  0  0  0  0  0  0  0  0  0  0
    6.4260    3.8117  -13.6723 C   0  0  0  0  0  0  0  0  0  0  0  0
  8  9  2  0  0  0
  8 10  2  0  0  0
  8  2  1  0  0  0
  8 11  1  0  0  0
  2  3  1  0  0  0
  2  7  1  0  0  0
  3  4  1  0  0  0
  4  5  1  0  0  0
  5  6  1  0  0  0
  5  1  1  0  0  0
  6  7  1  0  0  0
  1 18  1  0  0  0
 18 19  2  0  0  0
 18 20  1  0  0  0
 20 22  1  0  0  0
 22 23  1  0  0  0
 23 24  1  0  0  0
 23 28  1  0  0  0
 23 29  1  0  0  0
 24 25  1  0  0  0
 25 26  1  0  0  0
 26 27  1  0  0  0
 27 28  1  0  0  0
 29 30  1  0  0  0
 29 34  1  0  0  0
 30 31  1  0  0  0
 31 32  1  0  0  0
 32 33  1  0  0  0
 33 34  1  0  0  0
 11 12  2  0  0  0
 11 16  1  0  0  0
 12 13  1  0  0  0
 13 14  2  0  0  0
 14 15  1  0  0  0
 14 17  1  0  0  0
 15 16  2  0  0  0
 20 21  1  0  0  0
M  END
> <minimizedAffinity>
-8.53725

$$$$
2301


 24 27  0  0  0  0  0  0  0  0999 V2000
    1.8044   14.1524  -11.9119 C   0  0  0  0  0  0  0  0  0  0  0  0
    0.3495   14.0450  -11.5950 C   0  0  0  0  0  0  0  0  0  0  0  0
   -0.4987   14.4000  -12.8288 C   0  0  0  0  0  0  0  0  0  0  0  0
   -0.1842   15.8206  -13.0390 N   0  0  0  0  0  0  0  0  0  0  0  0
    1.1669   16.0776  -13.4259 C   0  0  0  0  0  0  0  0  0  0  0  0
    2.1840   15.4521  -12.5164 C   0  0  0  0  0  0  0  0  0  0  0  0
    2.4746   14.0566  -10.6654 O   0  0  0  0  0  0  0  0  0  0  0  0
    2.4741   14.9813  -10.2677 H   0  0  0  0  0  0  0  0  0  0  0  0
   -1.2063   16.7810  -12.8464 C   0  0  0  0  0  0  0  0  0  0  0  0
   -1.2257   17.5115  -11.7184 N   0  0  0  0  0  0  0  0  0  0  0  0
   -2.1150   18.4410  -11.4284 N   0  0  0  0  0  0  0  0  0  0  0  0
   -2.3170   19.2684  -10.3995 N   0  0  0  0  0  0  0  0  0  0  0  0
   -3.3739   20.0203  -10.6112 N   0  0  0  0  0  0  0  0  0  0  0  0
   -3.8617   19.6897  -11.7753 N   0  0  0  0  0  0  0  0  0  0  0  0
   -3.0885   18.7060  -12.2974 C   0  0  0  0  0  0  0  0  0  0  0  0
   -3.1341   17.9933  -13.4834 C   0  0  0  0  0  0  0  0  0  0  0  0
   -2.1957   17.0243  -13.7696 C   0  0  0  0  0  0  0  0  0  0  0  0
    3.9601    9.3992  -14.9351 Cl  0  0  0  0  0  0  0  0  0  0  0  0
    3.3153   10.7686  -14.0537 C   0  0  0  0  0  0  0  0  0  0  0  0
    1.9544   10.9284  -13.8290 C   0  0  0  0  0  0  0  0  0  0  0  0
    1.4145   11.9874  -13.1534 C   0  0  0  0  0  0  0  0  0  0  0  0
    2.2356   12.9589  -12.6580 C   0  0  0  0  0  0  0  0  0  0  0  0
    3.6077   12.8258  -12.8652 C   0  0  0  0  0  0  0  0  0  0  0  0
    4.1343   11.7487  -13.5515 C   0  0  0  0  0  0  0  0  0  0  0  0
 18 19  1  0  0  0
 19 20  2  0  0  0
 19 24  1  0  0  0
 20 21  1  0  0  0
 21 22  2  0  0  0
 22 23  1  0  0  0
 22  1  1  0  0  0
 23 24  2  0  0  0
  1  2  1  0  0  0
  1  6  1  0  0  0
  1  7  1  0  0  0
  2  3  1  0  0  0
  3  4  1  0  0  0
  4  5  1  0  0  0
  4  9  1  0  0  0
  5  6  1  0  0  0
  9 10  2  0  0  0
  9 17  1  0  0  0
 10 11  1  0  0  0
 11 12  1  0  0  0
 11 15  1  0  0  0
 12 13  2  0  0  0
 13 14  1  0  0  0
 14 15  2  0  0  0
 15 16  1  0  0  0
 16 17  2  0  0  0
  7  8  1  0  0  0
M  END
> <minimizedAffinity>
-9.17691

$$$$
2304


 28 31  0  0  0  0  0  0  0  0999 V2000
   -0.6158   15.2198  -12.5415 N   0  0  0  0  0  0  0  0  0  0  0  0
    0.7735   15.2803  -12.2876 C   0  0  0  0  0  0  0  0  0  0  0  0
    1.4484   13.9440  -12.1233 C   0  0  0  0  0  0  0  0  0  0  0  0
    1.0094   12.9683  -13.0813 N   0  0  0  0  0  0  0  0  0  0  0  0
   -0.1624   13.2934  -13.8552 C   0  0  0  0  0  0  0  0  0  0  0  0
   -1.1514   13.9529  -12.8980 C   0  0  0  0  0  0  0  0  0  0  0  0
    1.7095   11.7596  -13.2283 C   0  0  0  0  0  0  0  0  0  0  0  0
    2.7152   11.5799  -12.4847 O   0  0  0  0  0  0  0  0  0  0  0  0
    1.3418   10.6904  -14.1969 C   0  0  0  0  0  0  0  0  0  0  0  0
    0.5171    9.7027  -13.6040 N   0  0  0  0  0  0  0  0  0  0  0  0
    1.1831    8.5964  -12.9972 C   0  0  0  0  0  0  0  0  0  0  0  0
    2.6711    8.4258  -14.0040 S   0  0  0  0  0  0  0  0  0  0  0  0
    2.5427   10.0584  -14.8352 C   0  0  0  0  0  0  0  0  0  0  0  0
    0.2755    7.4309  -13.3405 C   0  0  0  0  0  0  0  0  0  0  0  0
   -1.0730    8.0598  -12.9656 C   0  0  0  0  0  0  0  0  0  0  0  0
   -0.8911    9.4426  -13.3998 C   0  0  0  0  0  0  0  0  0  0  0  0
   -1.8479   10.2585  -13.5612 O   0  0  0  0  0  0  0  0  0  0  0  0
    1.4438    8.7021  -11.5477 C   0  0  0  0  0  0  0  0  0  0  0  0
   -1.2766   16.5542  -13.3549 S   0  0  0  0  0  0  0  0  0  0  0  0
   -0.2802   17.1570  -14.2947 O   0  0  0  0  0  0  0  0  0  0  0  0
   -2.4309   16.0726  -14.1987 O   0  0  0  0  0  0  0  0  0  0  0  0
   -1.9279   17.7727  -12.2627 C   0  0  0  0  0  0  0  0  0  0  0  0
   -3.1099   18.4152  -12.5568 C   0  0  0  0  0  0  0  0  0  0  0  0
   -3.6450   19.3720  -11.7267 C   0  0  0  0  0  0  0  0  0  0  0  0
   -3.0158   19.7350  -10.5494 C   0  0  0  0  0  0  0  0  0  0  0  0
   -1.8301   19.0717  -10.2815 C   0  0  0  0  0  0  0  0  0  0  0  0
   -1.2846   18.1145  -11.1003 C   0  0  0  0  0  0  0  0  0  0  0  0
   -3.6686   20.9491   -9.4695 Cl  0  0  0  0  0  0  0  0  0  0  0  0
 19 20  2  0  0  0
 19 21  2  0  0  0
 19  1  1  0  0  0
 19 22  1  0  0  0
  1  2  1  0  0  0
  1  6  1  0  0  0
  2  3  1  0  0  0
  3  4  1  0  0  0
  4  5  1  0  0  0
  4  7  1  0  0  0
  5  6  1  0  0  0
  7  8  2  0  0  0
  7  9  1  0  0  0
  9 10  1  0  0  0
  9 13  1  0  0  0
 10 11  1  0  0  0
 10 16  1  0  0  0
 11 12  1  0  0  0
 11 14  1  0  0  0
 11 18  1  0  0  0
 12 13  1  0  0  0
 14 15  1  0  0  0
 15 16  1  0  0  0
 16 17  2  0  0  0
 22 23  2  0  0  0
 22 27  1  0  0  0
 23 24  1  0  0  0
 24 25  2  0  0  0
 25 26  1  0  0  0
 25 28  1  0  0  0
 26 27  2  0  0  0
M  END
> <minimizedAffinity>
-8.36438

$$$$
2319


 33 36  0  0  0  0  0  0  0  0999 V2000
    2.5056    6.8305  -12.9688 N   0  0  0  0  0  0  0  0  0  0  0  0
    1.3019    6.5250  -12.2956 C   0  0  0  0  0  0  0  0  0  0  0  0
    1.1852    5.4564  -11.6607 O   0  0  0  0  0  0  0  0  0  0  0  0
    2.6730    7.7012  -13.5167 H   0  0  0  0  0  0  0  0  0  0  0  0
    9.7910    6.4673  -14.4995 Br  0  0  0  0  0  0  0  0  0  0  0  0
    8.2893    5.4827  -13.8370 C   0  0  0  0  0  0  0  0  0  0  0  0
    7.0363    6.0518  -13.7364 C   0  0  0  0  0  0  0  0  0  0  0  0
    5.9424    5.3488  -13.2610 C   0  0  0  0  0  0  0  0  0  0  0  0
    6.1670    4.0413  -12.8886 C   0  0  0  0  0  0  0  0  0  0  0  0
    7.4023    3.4394  -12.9734 C   0  0  0  0  0  0  0  0  0  0  0  0
    8.4866    4.1565  -13.4519 C   0  0  0  0  0  0  0  0  0  0  0  0
    7.6457    1.6199  -12.4405 Br  0  0  0  0  0  0  0  0  0  0  0  0
    4.7467    6.1784  -13.2611 C   0  0  0  0  0  0  0  0  0  0  0  0
    3.5494    5.9027  -12.9018 N   0  0  0  0  0  0  0  0  0  0  0  0
    5.1704    7.4828  -13.7817 C   0  0  0  0  0  0  0  0  0  0  0  0
    4.3958    8.4662  -13.9269 O   0  0  0  0  0  0  0  0  0  0  0  0
    6.5521    7.3530  -14.0512 N   0  0  0  0  0  0  0  0  0  0  0  0
    7.1436    8.1112  -14.4313 H   0  0  0  0  0  0  0  0  0  0  0  0
    0.1225    7.4472  -12.3060 C   0  0  0  0  0  0  0  0  0  0  0  0
    0.4408    8.7206  -12.8911 N   0  0  0  0  0  0  0  0  0  0  0  0
   -0.5512    9.6629  -13.2760 C   0  0  0  0  0  0  0  0  0  0  0  0
   -1.7525    9.3670  -13.0954 O   0  0  0  0  0  0  0  0  0  0  0  0
    1.4334    9.0089  -13.0582 H   0  0  0  0  0  0  0  0  0  0  0  0
   -0.2359   10.9887  -13.8877 C   0  0  0  0  0  0  0  0  0  0  0  0
    1.1235   11.2962  -13.7949 O   0  0  0  0  0  0  0  0  0  0  0  0
    1.6617   12.2877  -12.9775 C   0  0  0  0  0  0  0  0  0  0  0  0
    0.8018   13.2521  -12.5225 C   0  0  0  0  0  0  0  0  0  0  0  0
    1.3135   14.2583  -11.7029 C   0  0  0  0  0  0  0  0  0  0  0  0
    2.6403   14.3137  -11.3414 C   0  0  0  0  0  0  0  0  0  0  0  0
    3.4772   13.3241  -11.8197 C   0  0  0  0  0  0  0  0  0  0  0  0
    2.9782   12.3295  -12.6277 C   0  0  0  0  0  0  0  0  0  0  0  0
   -0.5184   13.2063  -12.8764 O   0  0  0  0  0  0  0  0  0  0  0  0
   -1.1403   12.0692  -13.4081 C   0  0  0  0  0  0  0  0  0  0  0  0
  5  6  1  0  0  0
  6  7  2  0  0  0
  6 11  1  0  0  0
  7  8  1  0  0  0
  7 17  1  0  0  0
  8  9  2  0  0  0
  8 13  1  0  0  0
  9 10  1  0  0  0
 10 11  2  0  0  0
 10 12  1  0  0  0
 13 14  2  0  0  0
 13 15  1  0  0  0
 14  1  1  0  0  0
  1  2  1  0  0  0
  2  3  2  0  0  0
  2 19  1  0  0  0
 19 20  1  0  0  0
 20 21  1  0  0  0
 21 22  2  0  0  0
 21 24  1  0  0  0
 24 25  1  0  0  0
 24 33  1  0  0  0
 25 26  1  0  0  0
 26 27  2  0  0  0
 26 31  1  0  0  0
 27 28  1  0  0  0
 27 32  1  0  0  0
 28 29  2  0  0  0
 29 30  1  0  0  0
 30 31  2  0  0  0
 32 33  1  0  0  0
 15 16  2  0  0  0
 15 17  1  0  0  0
  1  4  1  0  0  0
 20 23  1  0  0  0
 17 18  1  0  0  0
M  END
> <minimizedAffinity>
-9.58338

$$$$
2330


 28 31  0  0  0  0  0  0  0  0999 V2000
    0.1844   14.2424  -12.7116 C   0  0  0  0  0  0  0  0  0  0  0  0
    0.8430   14.6118  -11.7124 O   0  0  0  0  0  0  0  0  0  0  0  0
   -0.5305   15.1886  -13.4481 N   0  0  0  0  0  0  0  0  0  0  0  0
   -1.0540   14.7659  -14.2957 H   0  0  0  0  0  0  0  0  0  0  0  0
    2.8781   12.9482  -12.7054 Cl  0  0  0  0  0  0  0  0  0  0  0  0
    1.3911   12.0883  -13.0768 C   0  0  0  0  0  0  0  0  0  0  0  0
    0.2136   12.8061  -13.0434 C   0  0  0  0  0  0  0  0  0  0  0  0
   -0.9413   12.1133  -13.3380 C   0  0  0  0  0  0  0  0  0  0  0  0
   -0.9833   10.7806  -13.6543 C   0  0  0  0  0  0  0  0  0  0  0  0
    0.2376   10.0970  -13.6751 C   0  0  0  0  0  0  0  0  0  0  0  0
    1.4182   10.7316  -13.3910 C   0  0  0  0  0  0  0  0  0  0  0  0
   -2.2150   10.0684  -13.9629 C   0  0  0  0  0  0  0  0  0  0  0  0
   -3.4084   10.5505  -14.3219 N   0  0  0  0  0  0  0  0  0  0  0  0
   -4.2550    9.5249  -14.5084 N   0  0  0  0  0  0  0  0  0  0  0  0
   -3.6015    8.4019  -14.2685 N   0  0  0  0  0  0  0  0  0  0  0  0
   -2.3521    8.7335  -13.9357 N   0  0  0  0  0  0  0  0  0  0  0  0
   -5.2598    9.5826  -14.7929 H   0  0  0  0  0  0  0  0  0  0  0  0
   -0.6830   16.5753  -13.2760 C   0  0  0  0  0  0  0  0  0  0  0  0
   -1.9895   17.1605  -12.9485 C   0  0  0  0  0  0  0  0  0  0  0  0
   -2.1016   18.1013  -11.8371 C   0  0  0  0  0  0  0  0  0  0  0  0
   -3.1337   18.8981  -11.5402 N   0  0  0  0  0  0  0  0  0  0  0  0
   -2.8439   19.5581  -10.4302 C   0  0  0  0  0  0  0  0  0  0  0  0
   -1.6245   19.1714  -10.0329 N   0  0  0  0  0  0  0  0  0  0  0  0
   -1.1792   18.2901  -10.8866 N   0  0  0  0  0  0  0  0  0  0  0  0
   -3.7112   20.4651   -9.8595 C   0  0  0  0  0  0  0  0  0  0  0  0
   -4.9222   20.6715  -10.4945 C   0  0  0  0  0  0  0  0  0  0  0  0
   -5.2127   19.9848  -11.6418 C   0  0  0  0  0  0  0  0  0  0  0  0
   -4.3140   19.0988  -12.1586 C   0  0  0  0  0  0  0  0  0  0  0  0
  5  6  1  0  0  0
  6  7  2  0  0  0
  6 11  1  0  0  0
  7  8  1  0  0  0
  7  1  1  0  0  0
  8  9  2  0  0  0
  9 10  1  0  0  0
  9 12  1  0  0  0
 10 11  2  0  0  0
 12 13  2  0  0  0
 12 16  1  0  0  0
 13 14  1  0  0  0
 14 15  1  0  0  0
 15 16  2  0  0  0
  1  2  2  0  0  0
  1  3  1  0  0  0
  3 18  1  0  0  0
 18 19  1  0  0  0
 19 20  1  0  0  0
 20 21  1  0  0  0
 20 24  2  0  0  0
 21 22  1  0  0  0
 21 28  1  0  0  0
 22 23  2  0  0  0
 22 25  1  0  0  0
 23 24  1  0  0  0
 25 26  2  0  0  0
 26 27  1  0  0  0
 27 28  2  0  0  0
 14 17  1  0  0  0
  3  4  1  0  0  0
M  END
> <minimizedAffinity>
-10.54318

$$$$
2334


 30 33  0  0  0  0  0  0  0  0999 V2000
    2.4764   10.3752  -13.5472 S   0  0  0  0  0  0  0  0  0  0  0  0
    3.7311    9.5721  -13.1962 O   0  0  0  0  0  0  0  0  0  0  0  0
    2.5874   10.5935  -15.0607 O   0  0  0  0  0  0  0  0  0  0  0  0
    2.5341   11.9090  -12.7868 C   0  0  0  0  0  0  0  0  0  0  0  0
    3.6307   12.3506  -12.0879 C   0  0  0  0  0  0  0  0  0  0  0  0
    3.6410   13.6290  -11.5503 C   0  0  0  0  0  0  0  0  0  0  0  0
    2.5506   14.4904  -11.7001 C   0  0  0  0  0  0  0  0  0  0  0  0
    1.4435   14.0595  -12.3959 C   0  0  0  0  0  0  0  0  0  0  0  0
    1.4528   12.7890  -12.9216 C   0  0  0  0  0  0  0  0  0  0  0  0
    5.0271   11.3494  -11.7527 Cl  0  0  0  0  0  0  0  0  0  0  0  0
    0.2925   14.9361  -12.5654 C   0  0  0  0  0  0  0  0  0  0  0  0
   -0.8376   14.6407  -13.2296 N   0  0  0  0  0  0  0  0  0  0  0  0
   -1.6577   15.6541  -13.1833 O   0  0  0  0  0  0  0  0  0  0  0  0
   -1.1013   16.6206  -12.5028 C   0  0  0  0  0  0  0  0  0  0  0  0
    0.1127   16.1875  -12.1128 N   0  0  0  0  0  0  0  0  0  0  0  0
   -1.6931   17.9708  -12.2038 C   0  0  0  0  0  0  0  0  0  0  0  0
    1.1522    9.3771  -13.1987 N   0  0  0  0  0  0  0  0  0  0  0  0
    0.7005    8.5278  -14.2427 C   0  0  0  0  0  0  0  0  0  0  0  0
   -0.4603    7.6494  -13.8382 C   0  0  0  0  0  0  0  0  0  0  0  0
   -0.1124    6.8507  -12.6295 C   0  0  0  0  0  0  0  0  0  0  0  0
    0.4635    7.7217  -11.5262 C   0  0  0  0  0  0  0  0  0  0  0  0
    1.5930    8.5175  -12.0807 C   0  0  0  0  0  0  0  0  0  0  0  0
   -1.7566    8.3537  -13.7700 C   0  0  0  0  0  0  0  0  0  0  0  0
   -1.7025    9.5494  -13.2986 O   0  0  0  0  0  0  0  0  0  0  0  0
   -3.0012    7.8756  -14.1551 N   0  0  0  0  0  0  0  0  0  0  0  0
   -4.1782    8.6822  -14.0696 C   0  0  0  0  0  0  0  0  0  0  0  0
   -5.1527    8.4513  -15.1907 C   0  0  0  0  0  0  0  0  0  0  0  0
   -5.0706    7.2379  -15.7989 O   0  0  0  0  0  0  0  0  0  0  0  0
   -3.8041    6.7467  -16.0384 C   0  0  0  0  0  0  0  0  0  0  0  0
   -3.1820    6.5321  -14.6483 C   0  0  0  0  0  0  0  0  0  0  0  0
  1  2  2  0  0  0
  1  3  2  0  0  0
  1 17  1  0  0  0
  1  4  1  0  0  0
 17 18  1  0  0  0
 17 22  1  0  0  0
 18 19  1  0  0  0
 19 20  1  0  0  0
 19 23  1  0  0  0
 20 21  1  0  0  0
 21 22  1  0  0  0
 23 24  2  0  0  0
 23 25  1  0  0  0
 25 26  1  0  0  0
 25 30  1  0  0  0
 26 27  1  0  0  0
 27 28  1  0  0  0
 28 29  1  0  0  0
 29 30  1  0  0  0
  4  5  2  0  0  0
  4  9  1  0  0  0
  5  6  1  0  0  0
  5 10  1  0  0  0
  6  7  2  0  0  0
  7  8  1  0  0  0
  8  9  2  0  0  0
  8 11  1  0  0  0
 11 12  2  0  0  0
 11 15  1  0  0  0
 12 13  1  0  0  0
 13 14  1  0  0  0
 14 15  2  0  0  0
 14 16  1  0  0  0
M  END
> <minimizedAffinity>
-8.70161

$$$$
2335


 35 38  0  0  0  0  0  0  0  0999 V2000
   -0.6372    7.4109  -13.7270 N   0  0  0  0  0  0  0  0  0  0  0  0
   -1.4871    8.5245  -13.5759 C   0  0  0  0  0  0  0  0  0  0  0  0
   -2.9586    8.1714  -13.5939 C   0  0  0  0  0  0  0  0  0  0  0  0
   -3.2805    6.9501  -14.3665 C   0  0  0  0  0  0  0  0  0  0  0  0
   -2.2460    6.4545  -15.3096 C   0  0  0  0  0  0  0  0  0  0  0  0
   -0.8189    6.5944  -14.8446 C   0  0  0  0  0  0  0  0  0  0  0  0
   -3.7721    9.3144  -14.0815 C   0  0  0  0  0  0  0  0  0  0  0  0
   -3.1848   10.2314  -14.7062 O   0  0  0  0  0  0  0  0  0  0  0  0
   -5.1962    9.3557  -13.8384 N   0  0  0  0  0  0  0  0  0  0  0  0
   -5.5729    8.5633  -13.3122 H   0  0  0  0  0  0  0  0  0  0  0  0
   -5.9098   10.4755  -14.3344 C   0  0  0  0  0  0  0  0  0  0  0  0
   -7.1023   10.9523  -13.5958 C   0  0  0  0  0  0  0  0  0  0  0  0
   -8.3504   11.0112  -14.2611 N   0  0  0  0  0  0  0  0  0  0  0  0
   -8.3870   10.7428  -15.6242 C   0  0  0  0  0  0  0  0  0  0  0  0
   -8.7639   11.8832  -16.5250 C   0  0  0  0  0  0  0  0  0  0  0  0
   -9.7760   12.6696  -15.9949 O   0  0  0  0  0  0  0  0  0  0  0  0
   -9.2659   13.2344  -14.8261 C   0  0  0  0  0  0  0  0  0  0  0  0
   -9.1599   12.1196  -13.8112 C   0  0  0  0  0  0  0  0  0  0  0  0
    0.4917    7.0616  -12.5585 S   0  0  0  0  0  0  0  0  0  0  0  0
    0.1887    5.6787  -11.9845 O   0  0  0  0  0  0  0  0  0  0  0  0
    0.2654    7.9941  -11.3748 O   0  0  0  0  0  0  0  0  0  0  0  0
    2.1504    7.1668  -13.0201 C   0  0  0  0  0  0  0  0  0  0  0  0
    2.9922    6.0781  -12.8509 C   0  0  0  0  0  0  0  0  0  0  0  0
    4.3168    6.1055  -13.2146 C   0  0  0  0  0  0  0  0  0  0  0  0
    4.8383    7.2769  -13.7764 C   0  0  0  0  0  0  0  0  0  0  0  0
    4.0071    8.3365  -13.9375 C   0  0  0  0  0  0  0  0  0  0  0  0
    2.6718    8.3067  -13.5708 C   0  0  0  0  0  0  0  0  0  0  0  0
    1.5868    9.8793  -13.8443 Br  0  0  0  0  0  0  0  0  0  0  0  0
    6.2808    7.0998  -14.0964 C   0  0  0  0  0  0  0  0  0  0  0  0
    6.6545    5.9462  -13.1882 C   0  0  0  0  0  0  0  0  0  0  0  0
    5.3992    5.1860  -13.1818 N   0  0  0  0  0  0  0  0  0  0  0  0
    5.3479    3.7940  -13.1510 C   0  0  0  0  0  0  0  0  0  0  0  0
    6.4347    3.1193  -13.1730 O   0  0  0  0  0  0  0  0  0  0  0  0
    4.1087    3.0215  -13.0954 C   0  0  0  0  0  0  0  0  0  0  0  0
    4.1991    1.7350  -13.9125 C   0  0  0  0  0  0  0  0  0  0  0  0
 19 20  2  0  0  0
 19 21  2  0  0  0
 19  1  1  0  0  0
 19 22  1  0  0  0
  1  2  1  0  0  0
  1  6  1  0  0  0
  2  3  1  0  0  0
  3  4  1  0  0  0
  3  7  1  0  0  0
  4  5  1  0  0  0
  5  6  1  0  0  0
  7  8  2  0  0  0
  7  9  1  0  0  0
  9 11  1  0  0  0
 11 12  1  0  0  0
 12 13  1  0  0  0
 13 14  1  0  0  0
 13 18  1  0  0  0
 14 15  1  0  0  0
 15 16  1  0  0  0
 16 17  1  0  0  0
 17 18  1  0  0  0
 22 23  2  0  0  0
 22 27  1  0  0  0
 23 24  1  0  0  0
 24 25  2  0  0  0
 24 31  1  0  0  0
 25 26  1  0  0  0
 25 29  1  0  0  0
 26 27  2  0  0  0
 27 28  1  0  0  0
 29 30  1  0  0  0
 30 31  1  0  0  0
 31 32  1  0  0  0
 32 33  2  0  0  0
 32 34  1  0  0  0
 34 35  1  0  0  0
  9 10  1  0  0  0
M  END
> <minimizedAffinity>
-9.59115

$$$$
2345


 27 30  0  0  0  0  0  0  0  0999 V2000
    1.7217    7.2475  -13.2151 C   0  0  0  0  0  0  0  0  0  0  0  0
    2.1533    6.7478  -12.1098 O   0  0  0  0  0  0  0  0  0  0  0  0
    2.2523    8.4894  -13.5797 N   0  0  0  0  0  0  0  0  0  0  0  0
    3.2242    9.1507  -12.7241 C   0  0  0  0  0  0  0  0  0  0  0  0
    2.7311   10.5386  -12.3272 C   0  0  0  0  0  0  0  0  0  0  0  0
    1.9929   11.1010  -13.4193 N   0  0  0  0  0  0  0  0  0  0  0  0
    2.2894   10.6618  -14.7487 C   0  0  0  0  0  0  0  0  0  0  0  0
    1.8832    9.1756  -14.7951 C   0  0  0  0  0  0  0  0  0  0  0  0
   -1.5586    7.0610  -14.1116 N   0  0  0  0  0  0  0  0  0  0  0  0
   -0.2620    7.2635  -14.7466 C   0  0  0  0  0  0  0  0  0  0  0  0
    0.7295    6.4579  -13.9545 C   0  0  0  0  0  0  0  0  0  0  0  0
   -0.0491    5.4742  -13.1463 C   0  0  0  0  0  0  0  0  0  0  0  0
   -1.4655    5.7762  -13.4588 C   0  0  0  0  0  0  0  0  0  0  0  0
   -2.5117    5.0852  -13.2319 O   0  0  0  0  0  0  0  0  0  0  0  0
   -6.2997   10.7343  -14.1472 Cl  0  0  0  0  0  0  0  0  0  0  0  0
   -4.9096    9.6496  -14.1381 C   0  0  0  0  0  0  0  0  0  0  0  0
   -4.9907    8.4013  -14.6955 C   0  0  0  0  0  0  0  0  0  0  0  0
   -3.8930    7.5607  -14.6818 C   0  0  0  0  0  0  0  0  0  0  0  0
   -2.6887    7.9275  -14.1206 C   0  0  0  0  0  0  0  0  0  0  0  0
   -2.6215    9.1872  -13.5641 C   0  0  0  0  0  0  0  0  0  0  0  0
   -3.7296   10.0465  -13.5726 C   0  0  0  0  0  0  0  0  0  0  0  0
    0.9858   12.0637  -13.1944 C   0  0  0  0  0  0  0  0  0  0  0  0
    1.1561   13.3185  -12.6936 N   0  0  0  0  0  0  0  0  0  0  0  0
   -0.0347   13.9295  -12.6358 C   0  0  0  0  0  0  0  0  0  0  0  0
   -0.9885   13.0573  -13.1041 C   0  0  0  0  0  0  0  0  0  0  0  0
   -0.3370   11.9540  -13.4272 N   0  0  0  0  0  0  0  0  0  0  0  0
    2.4391   13.9031  -12.2814 C   0  0  0  0  0  0  0  0  0  0  0  0
 15 16  1  0  0  0
 16 17  2  0  0  0
 16 21  1  0  0  0
 17 18  1  0  0  0
 18 19  2  0  0  0
 19 20  1  0  0  0
 19  9  1  0  0  0
 20 21  2  0  0  0
  9 10  1  0  0  0
  9 13  1  0  0  0
 10 11  1  0  0  0
 11 12  1  0  0  0
 11  1  1  0  0  0
 12 13  1  0  0  0
 13 14  2  0  0  0
  1  2  2  0  0  0
  1  3  1  0  0  0
  3  4  1  0  0  0
  3  8  1  0  0  0
  4  5  1  0  0  0
  5  6  1  0  0  0
  6  7  1  0  0  0
  6 22  1  0  0  0
  7  8  1  0  0  0
 22 23  1  0  0  0
 22 26  2  0  0  0
 23 24  1  0  0  0
 23 27  1  0  0  0
 24 25  2  0  0  0
 25 26  1  0  0  0
M  END
> <minimizedAffinity>
-7.97796

$$$$
2349


 28 31  0  0  0  0  0  0  0  0999 V2000
    4.9699    6.9586  -13.7973 N   0  0  0  0  0  0  0  0  0  0  0  0
    5.5768    8.0076  -14.5658 C   0  0  0  0  0  0  0  0  0  0  0  0
    6.8168    7.9505  -14.8005 O   0  0  0  0  0  0  0  0  0  0  0  0
    4.7241    9.0474  -15.0126 N   0  0  0  0  0  0  0  0  0  0  0  0
    3.4889    9.1254  -14.7814 C   0  0  0  0  0  0  0  0  0  0  0  0
    2.6817    8.1392  -13.9834 C   0  0  0  0  0  0  0  0  0  0  0  0
    2.2403    8.9073  -12.7697 C   0  0  0  0  0  0  0  0  0  0  0  0
    1.0789    8.4599  -12.1037 N   0  0  0  0  0  0  0  0  0  0  0  0
    0.0126    8.0293  -12.9281 C   0  0  0  0  0  0  0  0  0  0  0  0
    0.2508    7.6634  -14.2138 C   0  0  0  0  0  0  0  0  0  0  0  0
   -0.8235    7.2436  -14.9936 C   0  0  0  0  0  0  0  0  0  0  0  0
   -2.0936    7.2082  -14.4548 C   0  0  0  0  0  0  0  0  0  0  0  0
   -2.3357    7.5829  -13.1418 C   0  0  0  0  0  0  0  0  0  0  0  0
   -1.2514    8.0008  -12.3724 C   0  0  0  0  0  0  0  0  0  0  0  0
   -3.2710    6.7716  -15.2708 C   0  0  0  0  0  0  0  0  0  0  0  0
    1.5824    7.6714  -14.8575 C   0  0  0  0  0  0  0  0  0  0  0  0
    1.3004    7.4901  -11.0424 C   0  0  0  0  0  0  0  0  0  0  0  0
    3.5766    7.0363  -13.5556 C   0  0  0  0  0  0  0  0  0  0  0  0
    3.1056    6.0336  -12.9077 O   0  0  0  0  0  0  0  0  0  0  0  0
    2.7400   10.2055  -15.2846 O   0  0  0  0  0  0  0  0  0  0  0  0
    0.6797    9.3083  -11.5869 H   0  0  0  0  0  0  0  0  0  0  0  0
    8.5531    2.5538  -11.7978 Cl  0  0  0  0  0  0  0  0  0  0  0  0
    7.5200    3.8553  -12.3583 C   0  0  0  0  0  0  0  0  0  0  0  0
    6.4262    3.5928  -13.1838 C   0  0  0  0  0  0  0  0  0  0  0  0
    5.6141    4.5970  -13.6371 C   0  0  0  0  0  0  0  0  0  0  0  0
    5.8196    5.9391  -13.3109 C   0  0  0  0  0  0  0  0  0  0  0  0
    6.9072    6.1887  -12.4901 C   0  0  0  0  0  0  0  0  0  0  0  0
    7.7243    5.1823  -12.0339 C   0  0  0  0  0  0  0  0  0  0  0  0
 22 23  1  0  0  0
 23 24  2  0  0  0
 23 28  1  0  0  0
 24 25  1  0  0  0
 25 26  2  0  0  0
 26 27  1  0  0  0
 26  1  1  0  0  0
 27 28  2  0  0  0
  1  2  1  0  0  0
  1 18  1  0  0  0
  2  3  2  0  0  0
  2  4  1  0  0  0
  4  5  2  0  0  0
  5  6  1  0  0  0
  5 20  1  0  0  0
  6  7  1  0  0  0
  6 16  1  0  0  0
  6 18  1  0  0  0
  7  8  1  0  0  0
  8  9  1  0  0  0
  8 17  1  0  0  0
  9 10  2  0  0  0
  9 14  1  0  0  0
 10 11  1  0  0  0
 10 16  1  0  0  0
 11 12  2  0  0  0
 12 13  1  0  0  0
 12 15  1  0  0  0
 13 14  2  0  0  0
 18 19  2  0  0  0
  8 21  1  0  0  0
M  CHG 1   8   1
M  CHG 1  20  -1
M  END
> <minimizedAffinity>
-7.05238

$$$$
2350


 23 26  0  0  0  0  0  0  0  0999 V2000
    0.3230    9.9917  -13.7010 N   0  0  0  0  0  0  0  0  0  0  0  0
    1.0578    8.9783  -14.4066 C   0  0  0  0  0  0  0  0  0  0  0  0
    2.1638    9.1898  -14.9645 O   0  0  0  0  0  0  0  0  0  0  0  0
    0.3309    7.6846  -14.3759 C   0  0  0  0  0  0  0  0  0  0  0  0
    1.0536    6.6050  -13.6377 C   0  0  0  0  0  0  0  0  0  0  0  0
    1.8755    7.2708  -12.5540 C   0  0  0  0  0  0  0  0  0  0  0  0
    0.7822    7.8473  -11.6558 C   0  0  0  0  0  0  0  0  0  0  0  0
   -0.5273    7.3456  -12.2184 C   0  0  0  0  0  0  0  0  0  0  0  0
   -0.9013    7.9915  -13.5154 C   0  0  0  0  0  0  0  0  0  0  0  0
   -0.9748    9.4715  -13.4602 C   0  0  0  0  0  0  0  0  0  0  0  0
   -2.0262   10.1201  -13.2368 O   0  0  0  0  0  0  0  0  0  0  0  0
   -0.0391    5.9805  -12.7539 C   0  0  0  0  0  0  0  0  0  0  0  0
    0.8716    7.3276  -10.3660 O   0  0  0  0  0  0  0  0  0  0  0  0
    2.5190    6.2808  -11.8433 O   0  0  0  0  0  0  0  0  0  0  0  0
    1.4426    7.9577   -9.8321 H   0  0  0  0  0  0  0  0  0  0  0  0
    2.9411    5.5796  -12.3919 H   0  0  0  0  0  0  0  0  0  0  0  0
    2.0962   15.4630  -12.0094 Cl  0  0  0  0  0  0  0  0  0  0  0  0
    1.5878   13.8479  -12.4982 C   0  0  0  0  0  0  0  0  0  0  0  0
    0.2957   13.6217  -12.9332 C   0  0  0  0  0  0  0  0  0  0  0  0
   -0.1213   12.3712  -13.3221 C   0  0  0  0  0  0  0  0  0  0  0  0
    0.7566   11.2809  -13.2897 C   0  0  0  0  0  0  0  0  0  0  0  0
    2.0334   11.5438  -12.8516 C   0  0  0  0  0  0  0  0  0  0  0  0
    2.4773   12.7836  -12.4574 C   0  0  0  0  0  0  0  0  0  0  0  0
 17 18  1  0  0  0
 18 19  2  0  0  0
 18 23  1  0  0  0
 19 20  1  0  0  0
 20 21  2  0  0  0
 21 22  1  0  0  0
 21  1  1  0  0  0
 22 23  2  0  0  0
  1  2  1  0  0  0
  1 10  1  0  0  0
  2  3  2  0  0  0
  2  4  1  0  0  0
  4  5  1  0  0  0
  4  9  1  0  0  0
  5  6  1  0  0  0
  5 12  1  0  0  0
  6  7  1  0  0  0
  6 14  1  0  0  0
  7  8  1  0  0  0
  7 13  1  0  0  0
  8  9  1  0  0  0
  8 12  1  0  0  0
  9 10  1  0  0  0
 10 11  2  0  0  0
 13 15  1  0  0  0
 14 16  1  0  0  0
M  END
> <minimizedAffinity>
-8.99441

$$$$
2357


 36 39  0  0  0  0  0  0  0  0999 V2000
    3.1265    9.0571  -13.2993 C   0  0  0  0  0  0  0  0  0  0  0  0
    4.3975    9.2584  -13.5871 C   0  0  0  0  0  0  0  0  0  0  0  0
    4.8132    8.3689  -14.7004 C   0  0  0  0  0  0  0  0  0  0  0  0
    3.5589    7.9977  -15.2937 N   0  0  0  0  0  0  0  0  0  0  0  0
    2.6757    8.0557  -14.2050 N   0  0  0  0  0  0  0  0  0  0  0  0
    3.5562    7.1073  -15.7883 H   0  0  0  0  0  0  0  0  0  0  0  0
    1.8333    7.4565  -14.0956 H   0  0  0  0  0  0  0  0  0  0  0  0
   -0.0336    9.8982  -13.2313 N   0  0  0  0  0  0  0  0  0  0  0  0
    0.2623   11.2186  -13.6633 C   0  0  0  0  0  0  0  0  0  0  0  0
   -0.5917   11.7849  -14.4311 O   0  0  0  0  0  0  0  0  0  0  0  0
    1.4376   11.8593  -13.2593 N   0  0  0  0  0  0  0  0  0  0  0  0
    2.3611   11.2076  -12.4102 C   0  0  0  0  0  0  0  0  0  0  0  0
    3.2305   11.8580  -11.7988 O   0  0  0  0  0  0  0  0  0  0  0  0
    2.2993    9.7382  -12.2439 C   0  0  0  0  0  0  0  0  0  0  0  0
    0.9037    9.2567  -12.3792 C   0  0  0  0  0  0  0  0  0  0  0  0
    0.5500    8.2617  -11.7233 O   0  0  0  0  0  0  0  0  0  0  0  0
    1.6073   12.8459  -13.6107 H   0  0  0  0  0  0  0  0  0  0  0  0
   -5.1146    7.2847  -15.0063 Cl  0  0  0  0  0  0  0  0  0  0  0  0
   -3.6130    8.0575  -14.4807 C   0  0  0  0  0  0  0  0  0  0  0  0
   -3.6062    9.3551  -14.0342 C   0  0  0  0  0  0  0  0  0  0  0  0
   -2.4251    9.9420  -13.6277 C   0  0  0  0  0  0  0  0  0  0  0  0
   -1.2333    9.2643  -13.6534 C   0  0  0  0  0  0  0  0  0  0  0  0
   -1.2402    7.9721  -14.0988 C   0  0  0  0  0  0  0  0  0  0  0  0
   -2.4296    7.3593  -14.5147 C   0  0  0  0  0  0  0  0  0  0  0  0
    5.5806    7.2579  -14.1496 C   0  0  0  0  0  0  0  0  0  0  0  0
    6.9449    7.4040  -14.0172 C   0  0  0  0  0  0  0  0  0  0  0  0
    7.7580    6.4134  -13.5048 C   0  0  0  0  0  0  0  0  0  0  0  0
    7.1526    5.2138  -13.1080 C   0  0  0  0  0  0  0  0  0  0  0  0
    5.7932    5.0201  -13.2219 C   0  0  0  0  0  0  0  0  0  0  0  0
    5.0435    6.0558  -13.7432 C   0  0  0  0  0  0  0  0  0  0  0  0
    7.9210    4.1955  -12.5907 O   0  0  0  0  0  0  0  0  0  0  0  0
    8.9203    4.3164  -12.4981 H   0  0  0  0  0  0  0  0  0  0  0  0
    5.2544    3.8336  -12.8226 O   0  0  0  0  0  0  0  0  0  0  0  0
    3.9877    3.3396  -13.1475 C   0  0  0  0  0  0  0  0  0  0  0  0
    9.1331    6.5508  -13.3665 O   0  0  0  0  0  0  0  0  0  0  0  0
    9.9048    6.4602  -14.5467 C   0  0  0  0  0  0  0  0  0  0  0  0
 18 19  1  0  0  0
 19 20  2  0  0  0
 19 24  1  0  0  0
 20 21  1  0  0  0
 21 22  2  0  0  0
 22 23  1  0  0  0
 22  8  1  0  0  0
 23 24  2  0  0  0
  8  9  1  0  0  0
  8 15  1  0  0  0
  9 10  2  0  0  0
  9 11  1  0  0  0
 11 12  1  0  0  0
 12 13  2  0  0  0
 12 14  1  0  0  0
 14 15  1  0  0  0
 14  1  1  0  0  0
 15 16  2  0  0  0
  1  2  2  0  0  0
  1  5  1  0  0  0
  2  3  1  0  0  0
  3  4  1  0  0  0
  3 25  1  0  0  0
  4  5  1  0  0  0
 25 26  2  0  0  0
 25 30  1  0  0  0
 26 27  1  0  0  0
 27 28  2  0  0  0
 27 35  1  0  0  0
 28 29  1  0  0  0
 28 31  1  0  0  0
 29 30  2  0  0  0
 29 33  1  0  0  0
 33 34  1  0  0  0
 35 36  1  0  0  0
 11 17  1  0  0  0
  4  6  1  0  0  0
  5  7  1  0  0  0
 31 32  1  0  0  0
M  END
> <minimizedAffinity>
-8.72820

$$$$
2358


 34 37  0  0  0  0  0  0  0  0999 V2000
    0.6141    7.3294  -13.8722 N   0  0  0  0  0  0  0  0  0  0  0  0
    1.1514    6.4612  -12.8841 C   0  0  0  0  0  0  0  0  0  0  0  0
    0.3479    5.7501  -12.2121 O   0  0  0  0  0  0  0  0  0  0  0  0
    2.5419    6.3822  -12.6454 N   0  0  0  0  0  0  0  0  0  0  0  0
    3.4454    7.1737  -13.3921 C   0  0  0  0  0  0  0  0  0  0  0  0
    4.7106    6.9894  -13.3200 O   0  0  0  0  0  0  0  0  0  0  0  0
    2.9778    8.2371  -14.2806 C   0  0  0  0  0  0  0  0  0  0  0  0
    1.5505    8.1091  -14.6018 C   0  0  0  0  0  0  0  0  0  0  0  0
    1.0794    8.7355  -15.6130 O   0  0  0  0  0  0  0  0  0  0  0  0
    2.9199    5.7324  -11.9078 H   0  0  0  0  0  0  0  0  0  0  0  0
   -5.2356    7.7889  -14.9517 Cl  0  0  0  0  0  0  0  0  0  0  0  0
   -3.5155    7.6376  -14.6447 C   0  0  0  0  0  0  0  0  0  0  0  0
   -2.7955    6.5545  -15.1272 C   0  0  0  0  0  0  0  0  0  0  0  0
   -1.4605    6.4651  -14.8715 C   0  0  0  0  0  0  0  0  0  0  0  0
   -0.7791    7.4278  -14.1368 C   0  0  0  0  0  0  0  0  0  0  0  0
   -1.4977    8.5013  -13.6596 C   0  0  0  0  0  0  0  0  0  0  0  0
   -2.8673    8.6158  -13.9082 C   0  0  0  0  0  0  0  0  0  0  0  0
    3.3089    9.5744  -13.7052 C   0  0  0  0  0  0  0  0  0  0  0  0
    3.5363   10.6938  -14.3393 C   0  0  0  0  0  0  0  0  0  0  0  0
    3.8179   11.7287  -13.3146 C   0  0  0  0  0  0  0  0  0  0  0  0
    4.1500   10.9660  -12.1302 N   0  0  0  0  0  0  0  0  0  0  0  0
    3.4186    9.7853  -12.3018 N   0  0  0  0  0  0  0  0  0  0  0  0
    5.1788   10.7776  -12.0713 H   0  0  0  0  0  0  0  0  0  0  0  0
    3.0464    9.2066  -11.5048 H   0  0  0  0  0  0  0  0  0  0  0  0
    2.6114   12.5658  -13.0679 C   0  0  0  0  0  0  0  0  0  0  0  0
    2.6692   13.7525  -12.3736 C   0  0  0  0  0  0  0  0  0  0  0  0
    1.5548   14.5364  -12.1381 C   0  0  0  0  0  0  0  0  0  0  0  0
    0.3232   14.1388  -12.6063 C   0  0  0  0  0  0  0  0  0  0  0  0
    0.2446   12.9579  -13.3023 C   0  0  0  0  0  0  0  0  0  0  0  0
    1.3609   12.1843  -13.5312 C   0  0  0  0  0  0  0  0  0  0  0  0
    1.6759   15.7189  -11.4338 O   0  0  0  0  0  0  0  0  0  0  0  0
    2.5609   16.0275  -11.0837 H   0  0  0  0  0  0  0  0  0  0  0  0
   -0.8025   14.9063  -12.3826 O   0  0  0  0  0  0  0  0  0  0  0  0
   -1.0645   16.0164  -13.2102 C   0  0  0  0  0  0  0  0  0  0  0  0
 11 12  1  0  0  0
 12 13  2  0  0  0
 12 17  1  0  0  0
 13 14  1  0  0  0
 14 15  2  0  0  0
 15 16  1  0  0  0
 15  1  1  0  0  0
 16 17  2  0  0  0
  1  2  1  0  0  0
  1  8  1  0  0  0
  2  3  2  0  0  0
  2  4  1  0  0  0
  4  5  1  0  0  0
  5  6  2  0  0  0
  5  7  1  0  0  0
  7  8  1  0  0  0
  7 18  1  0  0  0
  8  9  2  0  0  0
 18 19  2  0  0  0
 18 22  1  0  0  0
 19 20  1  0  0  0
 20 21  1  0  0  0
 20 25  1  0  0  0
 21 22  1  0  0  0
 25 26  2  0  0  0
 25 30  1  0  0  0
 26 27  1  0  0  0
 27 28  2  0  0  0
 27 31  1  0  0  0
 28 29  1  0  0  0
 28 33  1  0  0  0
 29 30  2  0  0  0
 33 34  1  0  0  0
  4 10  1  0  0  0
 21 23  1  0  0  0
 22 24  1  0  0  0
 31 32  1  0  0  0
M  END
> <minimizedAffinity>
-8.55759

$$$$
2359


 32 35  0  0  0  0  0  0  0  0999 V2000
   -1.6808    8.5487  -13.8171 N   0  0  0  0  0  0  0  0  0  0  0  0
   -1.7325    7.2596  -14.4491 C   0  0  0  0  0  0  0  0  0  0  0  0
   -0.6768    6.5942  -14.6824 O   0  0  0  0  0  0  0  0  0  0  0  0
   -3.0191    6.7707  -14.7971 N   0  0  0  0  0  0  0  0  0  0  0  0
   -4.2045    7.5498  -14.5197 C   0  0  0  0  0  0  0  0  0  0  0  0
   -5.2690    6.9269  -14.4185 O   0  0  0  0  0  0  0  0  0  0  0  0
   -4.0926    8.9884  -14.3764 C   0  0  0  0  0  0  0  0  0  0  0  0
   -2.8726    9.2757  -13.5639 C   0  0  0  0  0  0  0  0  0  0  0  0
   -2.8276   10.1380  -12.6501 O   0  0  0  0  0  0  0  0  0  0  0  0
   -3.0777    5.8432  -15.2533 H   0  0  0  0  0  0  0  0  0  0  0  0
    3.7341   10.7030  -12.4020 Cl  0  0  0  0  0  0  0  0  0  0  0  0
    2.1704   10.0421  -12.7818 C   0  0  0  0  0  0  0  0  0  0  0  0
    1.3708   10.7274  -13.6860 C   0  0  0  0  0  0  0  0  0  0  0  0
    0.1244   10.2212  -14.0036 C   0  0  0  0  0  0  0  0  0  0  0  0
   -0.3736    9.0526  -13.4610 C   0  0  0  0  0  0  0  0  0  0  0  0
    0.4373    8.3850  -12.5638 C   0  0  0  0  0  0  0  0  0  0  0  0
    1.6899    8.8611  -12.2218 C   0  0  0  0  0  0  0  0  0  0  0  0
   -5.2562    9.7171  -13.9257 C   0  0  0  0  0  0  0  0  0  0  0  0
   -5.7281   10.8694  -14.3430 C   0  0  0  0  0  0  0  0  0  0  0  0
   -6.9540   11.2511  -13.5997 C   0  0  0  0  0  0  0  0  0  0  0  0
   -7.2810   10.0403  -12.8827 N   0  0  0  0  0  0  0  0  0  0  0  0
   -6.1274    9.2595  -12.8701 N   0  0  0  0  0  0  0  0  0  0  0  0
   -8.1100    9.5458  -13.2772 H   0  0  0  0  0  0  0  0  0  0  0  0
   -5.9765    8.4890  -12.1857 H   0  0  0  0  0  0  0  0  0  0  0  0
   -8.0854   11.5725  -14.4774 C   0  0  0  0  0  0  0  0  0  0  0  0
   -8.2437   10.8307  -15.6381 C   0  0  0  0  0  0  0  0  0  0  0  0
   -9.2939   11.1056  -16.4820 C   0  0  0  0  0  0  0  0  0  0  0  0
  -10.2003   12.1027  -16.2064 C   0  0  0  0  0  0  0  0  0  0  0  0
  -10.0570   12.8479  -15.0597 C   0  0  0  0  0  0  0  0  0  0  0  0
   -8.9896   12.5664  -14.2065 C   0  0  0  0  0  0  0  0  0  0  0  0
   -9.4656   10.3625  -17.6574 O   0  0  0  0  0  0  0  0  0  0  0  0
   -8.8127    9.6297  -17.8731 H   0  0  0  0  0  0  0  0  0  0  0  0
 11 12  1  0  0  0
 12 13  2  0  0  0
 12 17  1  0  0  0
 13 14  1  0  0  0
 14 15  2  0  0  0
 15 16  1  0  0  0
 15  1  1  0  0  0
 16 17  2  0  0  0
  1  2  1  0  0  0
  1  8  1  0  0  0
  2  3  2  0  0  0
  2  4  1  0  0  0
  4  5  1  0  0  0
  5  6  2  0  0  0
  5  7  1  0  0  0
  7  8  1  0  0  0
  7 18  1  0  0  0
  8  9  2  0  0  0
 18 19  2  0  0  0
 18 22  1  0  0  0
 19 20  1  0  0  0
 20 21  1  0  0  0
 20 25  1  0  0  0
 21 22  1  0  0  0
 25 26  2  0  0  0
 25 30  1  0  0  0
 26 27  1  0  0  0
 27 28  2  0  0  0
 27 31  1  0  0  0
 28 29  1  0  0  0
 29 30  2  0  0  0
  4 10  1  0  0  0
 21 23  1  0  0  0
 22 24  1  0  0  0
 31 32  1  0  0  0
M  END
> <minimizedAffinity>
-10.47008

$$$$
2361


 30 33  0  0  0  0  0  0  0  0999 V2000
    3.3207    7.4682  -13.5240 N   0  0  0  0  0  0  0  0  0  0  0  0
    2.2653    7.1470  -12.6366 C   0  0  0  0  0  0  0  0  0  0  0  0
    2.3934    6.2043  -11.8161 O   0  0  0  0  0  0  0  0  0  0  0  0
    1.0522    7.9178  -12.6919 N   0  0  0  0  0  0  0  0  0  0  0  0
    0.9050    8.9846  -13.6189 C   0  0  0  0  0  0  0  0  0  0  0  0
   -0.2442    9.4152  -13.8880 O   0  0  0  0  0  0  0  0  0  0  0  0
    2.1018    9.5664  -14.2476 C   0  0  0  0  0  0  0  0  0  0  0  0
    3.1394    8.5377  -14.4355 C   0  0  0  0  0  0  0  0  0  0  0  0
    3.9140    8.5985  -15.4523 O   0  0  0  0  0  0  0  0  0  0  0  0
    0.2499    7.7159  -12.0574 H   0  0  0  0  0  0  0  0  0  0  0  0
    8.4958    4.3901  -13.4514 Cl  0  0  0  0  0  0  0  0  0  0  0  0
    6.9835    5.2808  -13.4713 C   0  0  0  0  0  0  0  0  0  0  0  0
    5.7697    4.6310  -13.3980 C   0  0  0  0  0  0  0  0  0  0  0  0
    4.5743    5.3401  -13.4154 C   0  0  0  0  0  0  0  0  0  0  0  0
    4.5572    6.7152  -13.5058 C   0  0  0  0  0  0  0  0  0  0  0  0
    5.7717    7.3608  -13.5782 C   0  0  0  0  0  0  0  0  0  0  0  0
    6.9616    6.6562  -13.5607 C   0  0  0  0  0  0  0  0  0  0  0  0
    2.6422   10.6989  -13.4232 C   0  0  0  0  0  0  0  0  0  0  0  0
    2.2891   11.0684  -12.2197 C   0  0  0  0  0  0  0  0  0  0  0  0
    3.0923   12.2329  -11.8153 C   0  0  0  0  0  0  0  0  0  0  0  0
    4.1702   12.2575  -12.7633 N   0  0  0  0  0  0  0  0  0  0  0  0
    3.6743   11.5594  -13.8757 N   0  0  0  0  0  0  0  0  0  0  0  0
    5.0273   11.8319  -12.3981 H   0  0  0  0  0  0  0  0  0  0  0  0
    4.0535   11.7041  -14.8393 H   0  0  0  0  0  0  0  0  0  0  0  0
    2.2340   13.4335  -11.9845 C   0  0  0  0  0  0  0  0  0  0  0  0
    2.6725   14.6639  -11.5573 C   0  0  0  0  0  0  0  0  0  0  0  0
    1.8904   15.7683  -11.7088 N   0  0  0  0  0  0  0  0  0  0  0  0
    0.6725   15.7182  -12.2717 C   0  0  0  0  0  0  0  0  0  0  0  0
    0.2020   14.5013  -12.7107 C   0  0  0  0  0  0  0  0  0  0  0  0
    0.9949   13.3541  -12.5623 C   0  0  0  0  0  0  0  0  0  0  0  0
 11 12  1  0  0  0
 12 13  2  0  0  0
 12 17  1  0  0  0
 13 14  1  0  0  0
 14 15  2  0  0  0
 15 16  1  0  0  0
 15  1  1  0  0  0
 16 17  2  0  0  0
  1  2  1  0  0  0
  1  8  1  0  0  0
  2  3  2  0  0  0
  2  4  1  0  0  0
  4  5  1  0  0  0
  5  6  2  0  0  0
  5  7  1  0  0  0
  7  8  1  0  0  0
  7 18  1  0  0  0
  8  9  2  0  0  0
 18 19  2  0  0  0
 18 22  1  0  0  0
 19 20  1  0  0  0
 20 21  1  0  0  0
 20 25  1  0  0  0
 21 22  1  0  0  0
 25 26  2  0  0  0
 25 30  1  0  0  0
 26 27  1  0  0  0
 27 28  2  0  0  0
 28 29  1  0  0  0
 29 30  2  0  0  0
  4 10  1  0  0  0
 21 23  1  0  0  0
 22 24  1  0  0  0
M  END
> <minimizedAffinity>
-8.81098

$$$$
2363


 33 36  0  0  0  0  0  0  0  0999 V2000
    1.5784    7.8733  -13.6090 N   0  0  0  0  0  0  0  0  0  0  0  0
    1.4195    9.2759  -13.7578 C   0  0  0  0  0  0  0  0  0  0  0  0
    0.0447    9.7448  -13.6682 C   0  0  0  0  0  0  0  0  0  0  0  0
   -1.0166    8.8993  -13.5493 C   0  0  0  0  0  0  0  0  0  0  0  0
   -2.3221    9.4226  -13.4906 C   0  0  0  0  0  0  0  0  0  0  0  0
   -2.5878   10.7675  -13.5470 C   0  0  0  0  0  0  0  0  0  0  0  0
   -1.4965   11.6122  -13.6672 C   0  0  0  0  0  0  0  0  0  0  0  0
   -0.2352   11.1143  -13.7249 C   0  0  0  0  0  0  0  0  0  0  0  0
   -0.8517    7.4752  -13.4555 N   0  0  0  0  0  0  0  0  0  0  0  0
    0.4814    7.0065  -13.4918 C   0  0  0  0  0  0  0  0  0  0  0  0
    0.7124    5.7559  -13.4162 O   0  0  0  0  0  0  0  0  0  0  0  0
    1.8639    9.5415  -15.1013 O   0  0  0  0  0  0  0  0  0  0  0  0
   -1.6823    6.8633  -13.3690 H   0  0  0  0  0  0  0  0  0  0  0  0
    2.2419   10.4581  -15.1484 H   0  0  0  0  0  0  0  0  0  0  0  0
    7.1250    5.5672  -13.4938 Cl  0  0  0  0  0  0  0  0  0  0  0  0
    5.4958    6.2519  -13.5335 C   0  0  0  0  0  0  0  0  0  0  0  0
    4.5101    5.6797  -12.7616 C   0  0  0  0  0  0  0  0  0  0  0  0
    3.2255    6.2137  -12.7883 C   0  0  0  0  0  0  0  0  0  0  0  0
    2.9299    7.2986  -13.5700 C   0  0  0  0  0  0  0  0  0  0  0  0
    3.9369    7.8494  -14.3320 C   0  0  0  0  0  0  0  0  0  0  0  0
    5.2249    7.3439  -14.3291 C   0  0  0  0  0  0  0  0  0  0  0  0
    2.3418   10.0462  -12.8847 C   0  0  0  0  0  0  0  0  0  0  0  0
    2.2984    9.9044  -11.6611 O   0  0  0  0  0  0  0  0  0  0  0  0
    3.2503   10.9275  -13.5000 N   0  0  0  0  0  0  0  0  0  0  0  0
    3.2946   11.0555  -14.5490 H   0  0  0  0  0  0  0  0  0  0  0  0
    4.2035   11.7343  -12.7372 C   0  0  0  0  0  0  0  0  0  0  0  0
    4.0891   13.1810  -13.0302 C   0  0  0  0  0  0  0  0  0  0  0  0
    2.9899   13.8732  -12.4782 N   0  0  0  0  0  0  0  0  0  0  0  0
    2.7105   13.7222  -11.1099 C   0  0  0  0  0  0  0  0  0  0  0  0
    1.6674   14.7682  -10.7066 C   0  0  0  0  0  0  0  0  0  0  0  0
    0.7733   14.9987  -11.7675 O   0  0  0  0  0  0  0  0  0  0  0  0
    1.3879   15.6981  -12.8034 C   0  0  0  0  0  0  0  0  0  0  0  0
    2.8060   15.2113  -12.9284 C   0  0  0  0  0  0  0  0  0  0  0  0
 15 16  1  0  0  0
 16 17  2  0  0  0
 16 21  1  0  0  0
 17 18  1  0  0  0
 18 19  2  0  0  0
 19 20  1  0  0  0
 19  1  1  0  0  0
 20 21  2  0  0  0
  1  2  1  0  0  0
  1 10  1  0  0  0
  2  3  1  0  0  0
  2 12  1  0  0  0
  2 22  1  0  0  0
  3  4  1  0  0  0
  3  8  2  0  0  0
  4  5  2  0  0  0
  4  9  1  0  0  0
  5  6  1  0  0  0
  6  7  2  0  0  0
  7  8  1  0  0  0
  9 10  1  0  0  0
 10 11  2  0  0  0
 22 23  2  0  0  0
 22 24  1  0  0  0
 24 26  1  0  0  0
 26 27  1  0  0  0
 27 28  1  0  0  0
 28 29  1  0  0  0
 28 33  1  0  0  0
 29 30  1  0  0  0
 30 31  1  0  0  0
 31 32  1  0  0  0
 32 33  1  0  0  0
  9 13  1  0  0  0
 12 14  1  0  0  0
 24 25  1  0  0  0
M  END
> <minimizedAffinity>
-8.68339

$$$$
2364


 33 37  0  0  0  0  0  0  0  0999 V2000
   -5.1783    8.9655  -13.5418 N   0  0  0  0  0  0  0  0  0  0  0  0
   -4.9155    8.2274  -14.7287 C   0  0  0  0  0  0  0  0  0  0  0  0
   -5.8647    7.5946  -15.2935 O   0  0  0  0  0  0  0  0  0  0  0  0
   -3.5914    8.1506  -15.3542 C   0  0  0  0  0  0  0  0  0  0  0  0
   -2.5231    8.6735  -14.5685 N   0  0  0  0  0  0  0  0  0  0  0  0
   -2.8386    9.7737  -13.7166 C   0  0  0  0  0  0  0  0  0  0  0  0
   -2.7242   11.1444  -14.3377 C   0  0  0  0  0  0  0  0  0  0  0  0
   -1.5979   11.4218  -13.5062 N   0  0  0  0  0  0  0  0  0  0  0  0
   -1.6142   10.1501  -12.8993 C   0  0  0  0  0  0  0  0  0  0  0  0
   -4.0632    9.5716  -12.8993 C   0  0  0  0  0  0  0  0  0  0  0  0
   -4.1491    9.9085  -11.6910 O   0  0  0  0  0  0  0  0  0  0  0  0
   -1.9749    7.6032  -13.7862 C   0  0  0  0  0  0  0  0  0  0  0  0
   -2.6979    6.3386  -14.1555 C   0  0  0  0  0  0  0  0  0  0  0  0
   -3.2636    6.6588  -15.5095 C   0  0  0  0  0  0  0  0  0  0  0  0
   -1.8678    5.2261  -14.1736 O   0  0  0  0  0  0  0  0  0  0  0  0
   -1.8808    4.8352  -13.2663 H   0  0  0  0  0  0  0  0  0  0  0  0
   -6.5170    9.1017  -12.9958 C   0  0  0  0  0  0  0  0  0  0  0  0
   -9.0678   11.2581  -17.0145 Cl  0  0  0  0  0  0  0  0  0  0  0  0
   -8.3697   11.3554  -15.4130 C   0  0  0  0  0  0  0  0  0  0  0  0
   -7.7476   10.2618  -14.8463 C   0  0  0  0  0  0  0  0  0  0  0  0
   -7.1900   10.3088  -13.5886 C   0  0  0  0  0  0  0  0  0  0  0  0
   -7.2660   11.4947  -12.8921 C   0  0  0  0  0  0  0  0  0  0  0  0
   -7.8815   12.5644  -13.4621 C   0  0  0  0  0  0  0  0  0  0  0  0
   -8.4451   12.5385  -14.7175 C   0  0  0  0  0  0  0  0  0  0  0  0
   -0.4138   11.9398  -14.0885 C   0  0  0  0  0  0  0  0  0  0  0  0
    0.2629   13.0047  -13.3393 C   0  0  0  0  0  0  0  0  0  0  0  0
   -0.3383   14.2303  -13.1915 C   0  0  0  0  0  0  0  0  0  0  0  0
    0.2837   15.2621  -12.4829 C   0  0  0  0  0  0  0  0  0  0  0  0
    1.5220   15.0389  -11.9261 C   0  0  0  0  0  0  0  0  0  0  0  0
    2.1460   13.8216  -12.0583 C   0  0  0  0  0  0  0  0  0  0  0  0
    1.4980   12.8146  -12.7708 C   0  0  0  0  0  0  0  0  0  0  0  0
   -0.3177   16.4959  -12.3324 O   0  0  0  0  0  0  0  0  0  0  0  0
   -1.5033   16.7629  -13.0579 C   0  0  0  0  0  0  0  0  0  0  0  0
 18 19  1  0  0  0
 19 20  2  0  0  0
 19 24  1  0  0  0
 20 21  1  0  0  0
 21 22  2  0  0  0
 21 17  1  0  0  0
 22 23  1  0  0  0
 23 24  2  0  0  0
 17  1  1  0  0  0
  1  2  1  0  0  0
  1 10  1  0  0  0
  2  3  2  0  0  0
  2  4  1  0  0  0
  4  5  1  0  0  0
  4 14  1  0  0  0
  5  6  1  0  0  0
  5 12  1  0  0  0
  6  7  1  0  0  0
  6  9  1  0  0  0
  6 10  1  0  0  0
  7  8  1  0  0  0
  8  9  1  0  0  0
  8 25  1  0  0  0
 25 26  1  0  0  0
 26 27  2  0  0  0
 26 31  1  0  0  0
 27 28  1  0  0  0
 28 29  2  0  0  0
 28 32  1  0  0  0
 29 30  1  0  0  0
 30 31  2  0  0  0
 32 33  1  0  0  0
 10 11  2  0  0  0
 12 13  1  0  0  0
 13 14  1  0  0  0
 13 15  1  0  0  0
 15 16  1  0  0  0
M  END
> <minimizedAffinity>
-7.84692

$$$$
2365


 32 36  0  0  0  0  0  0  0  0999 V2000
   -1.2361    9.1045  -13.7641 N   0  0  0  0  0  0  0  0  0  0  0  0
   -0.1441    8.3457  -14.2117 C   0  0  0  0  0  0  0  0  0  0  0  0
   -0.3712    7.1999  -14.7063 O   0  0  0  0  0  0  0  0  0  0  0  0
   -1.0647   10.0544  -13.3536 H   0  0  0  0  0  0  0  0  0  0  0  0
    1.2672    8.7916  -14.1458 C   0  0  0  0  0  0  0  0  0  0  0  0
    1.3750   10.1210  -13.4267 C   0  0  0  0  0  0  0  0  0  0  0  0
    2.8034   10.5836  -13.3683 C   0  0  0  0  0  0  0  0  0  0  0  0
    3.5756    9.5514  -12.5442 C   0  0  0  0  0  0  0  0  0  0  0  0
    3.4864    8.2139  -13.2065 C   0  0  0  0  0  0  0  0  0  0  0  0
    2.0447    7.7791  -13.3332 C   0  0  0  0  0  0  0  0  0  0  0  0
    4.1069    8.3012  -14.5817 C   0  0  0  0  0  0  0  0  0  0  0  0
    3.3259    9.3198  -15.3789 C   0  0  0  0  0  0  0  0  0  0  0  0
    3.4483   10.6682  -14.7166 C   0  0  0  0  0  0  0  0  0  0  0  0
    1.8912    8.8860  -15.5206 C   0  0  0  0  0  0  0  0  0  0  0  0
    2.8162   11.8527  -12.6677 N   0  0  0  0  0  0  0  0  0  0  0  0
    3.7430   12.3851  -11.8908 N   0  0  0  0  0  0  0  0  0  0  0  0
    3.3891   13.5507  -11.4388 N   0  0  0  0  0  0  0  0  0  0  0  0
    2.1884   13.8241  -11.9176 C   0  0  0  0  0  0  0  0  0  0  0  0
    1.8269   12.7612  -12.6891 N   0  0  0  0  0  0  0  0  0  0  0  0
   -3.6269    9.3754  -14.3403 C   0  0  0  0  0  0  0  0  0  0  0  0
   -3.4865   10.5604  -14.7350 O   0  0  0  0  0  0  0  0  0  0  0  0
   -2.5256    8.6307  -13.8550 N   0  0  0  0  0  0  0  0  0  0  0  0
   -2.7240    7.6394  -13.5411 H   0  0  0  0  0  0  0  0  0  0  0  0
   -5.0029    8.8044  -14.4140 C   0  0  0  0  0  0  0  0  0  0  0  0
   -5.0085    7.3163  -14.3162 C   0  0  0  0  0  0  0  0  0  0  0  0
   -5.8612    9.4403  -13.3446 C   0  0  0  0  0  0  0  0  0  0  0  0
   -9.4644   11.7697  -16.7151 Br  0  0  0  0  0  0  0  0  0  0  0  0
   -8.3471   11.3149  -15.2396 C   0  0  0  0  0  0  0  0  0  0  0  0
   -7.4399   10.2815  -15.1173 C   0  0  0  0  0  0  0  0  0  0  0  0
   -6.8610   10.3280  -13.8900 N   0  0  0  0  0  0  0  0  0  0  0  0
   -7.3796   11.3469  -13.2608 N   0  0  0  0  0  0  0  0  0  0  0  0
   -8.2865   11.9902  -14.0183 C   0  0  0  0  0  0  0  0  0  0  0  0
 27 28  1  0  0  0
 28 29  2  0  0  0
 28 32  1  0  0  0
 29 30  1  0  0  0
 30 31  1  0  0  0
 30 26  1  0  0  0
 31 32  2  0  0  0
 26 24  1  0  0  0
 24 25  1  0  0  0
 24 20  1  0  0  0
 20 21  2  0  0  0
 20 22  1  0  0  0
 22  1  1  0  0  0
  1  2  1  0  0  0
  2  3  2  0  0  0
  2  5  1  0  0  0
  5  6  1  0  0  0
  5 10  1  0  0  0
  5 14  1  0  0  0
  6  7  1  0  0  0
  7  8  1  0  0  0
  7 13  1  0  0  0
  7 15  1  0  0  0
  8  9  1  0  0  0
  9 10  1  0  0  0
  9 11  1  0  0  0
 11 12  1  0  0  0
 12 13  1  0  0  0
 12 14  1  0  0  0
 15 16  1  0  0  0
 15 19  1  0  0  0
 16 17  2  0  0  0
 17 18  1  0  0  0
 18 19  2  0  0  0
 22 23  1  0  0  0
  1  4  1  0  0  0
M  END
> <minimizedAffinity>
-8.72591

$$$$
2373


 28 31  0  0  0  0  0  0  0  0999 V2000
    0.3825   13.9980  -12.6062 N   0  0  0  0  0  0  0  0  0  0  0  0
    1.4360   13.2887  -12.9714 C   0  0  0  0  0  0  0  0  0  0  0  0
    1.0724   12.0295  -13.3351 N   0  0  0  0  0  0  0  0  0  0  0  0
   -0.2314   11.9330  -13.1948 C   0  0  0  0  0  0  0  0  0  0  0  0
   -0.6695   13.1916  -12.7318 C   0  0  0  0  0  0  0  0  0  0  0  0
    1.9935   11.0436  -13.8260 C   0  0  0  0  0  0  0  0  0  0  0  0
    2.8332   10.4827  -12.6805 C   0  0  0  0  0  0  0  0  0  0  0  0
    3.0642   11.6753  -11.7466 C   0  0  0  0  0  0  0  0  0  0  0  0
    3.8048   12.7316  -12.5193 C   0  0  0  0  0  0  0  0  0  0  0  0
    2.8268   13.8378  -12.9459 C   0  0  0  0  0  0  0  0  0  0  0  0
   -1.1419   10.8158  -13.4625 C   0  0  0  0  0  0  0  0  0  0  0  0
   -0.8532    9.4965  -13.3254 C   0  0  0  0  0  0  0  0  0  0  0  0
   -1.7436    8.4784  -13.6644 C   0  0  0  0  0  0  0  0  0  0  0  0
   -2.9821    8.7785  -14.1613 C   0  0  0  0  0  0  0  0  0  0  0  0
   -3.3063   10.1053  -14.3098 C   0  0  0  0  0  0  0  0  0  0  0  0
   -2.4141   11.0994  -13.9716 C   0  0  0  0  0  0  0  0  0  0  0  0
   -3.8993    7.7725  -14.5110 O   0  0  0  0  0  0  0  0  0  0  0  0
   -4.4521    7.6641  -15.7952 C   0  0  0  0  0  0  0  0  0  0  0  0
    0.2631   15.3817  -12.1357 C   0  0  0  0  0  0  0  0  0  0  0  0
   -0.5157   16.1426  -13.1361 C   0  0  0  0  0  0  0  0  0  0  0  0
   -0.2360   15.9429  -14.3649 O   0  0  0  0  0  0  0  0  0  0  0  0
   -4.7869   20.0768  -11.5840 Cl  0  0  0  0  0  0  0  0  0  0  0  0
   -3.5293   18.9420  -12.0019 C   0  0  0  0  0  0  0  0  0  0  0  0
   -2.4755   18.6286  -11.1801 C   0  0  0  0  0  0  0  0  0  0  0  0
   -1.5116   17.7274  -11.5573 C   0  0  0  0  0  0  0  0  0  0  0  0
   -1.5595   17.0860  -12.8007 C   0  0  0  0  0  0  0  0  0  0  0  0
   -2.6060   17.3960  -13.6179 C   0  0  0  0  0  0  0  0  0  0  0  0
   -3.5677   18.3017  -13.2305 C   0  0  0  0  0  0  0  0  0  0  0  0
 22 23  1  0  0  0
 23 24  2  0  0  0
 23 28  1  0  0  0
 24 25  1  0  0  0
 25 26  2  0  0  0
 26 27  1  0  0  0
 26 20  1  0  0  0
 27 28  2  0  0  0
 20 21  2  0  0  0
 20 19  1  0  0  0
 19  1  1  0  0  0
  1  2  2  0  0  0
  1  5  1  0  0  0
  2  3  1  0  0  0
  2 10  1  0  0  0
  3  4  1  0  0  0
  3  6  1  0  0  0
  4  5  2  0  0  0
  4 11  1  0  0  0
 11 12  2  0  0  0
 11 16  1  0  0  0
 12 13  1  0  0  0
 13 14  2  0  0  0
 14 15  1  0  0  0
 14 17  1  0  0  0
 15 16  2  0  0  0
 17 18  1  0  0  0
  6  7  1  0  0  0
  7  8  1  0  0  0
  8  9  1  0  0  0
  9 10  1  0  0  0
M  END
> <minimizedAffinity>
-10.77834

$$$$
2375


 37 40  0  0  0  0  0  0  0  0999 V2000
    2.1235   11.6740  -13.0957 C   0  0  0  0  0  0  0  0  0  0  0  0
    3.1782   11.1365  -13.9042 C   0  0  0  0  0  0  0  0  0  0  0  0
   -0.1328   15.9574  -12.9339 C   0  0  0  0  0  0  0  0  0  0  0  0
    0.9670   16.3110  -12.0241 C   0  0  0  0  0  0  0  0  0  0  0  0
    1.7905   15.1819  -11.4566 C   0  0  0  0  0  0  0  0  0  0  0  0
    1.5202   13.8879  -11.9922 N   0  0  0  0  0  0  0  0  0  0  0  0
    0.0825   13.5650  -12.0856 C   0  0  0  0  0  0  0  0  0  0  0  0
   -0.6773   14.5550  -12.8210 C   0  0  0  0  0  0  0  0  0  0  0  0
    2.4492   12.8342  -12.1653 C   0  0  0  0  0  0  0  0  0  0  0  0
    3.5246   12.8306  -11.5714 O   0  0  0  0  0  0  0  0  0  0  0  0
    0.3624   16.1114  -14.2640 O   0  0  0  0  0  0  0  0  0  0  0  0
   -0.1693   16.7485  -14.7700 H   0  0  0  0  0  0  0  0  0  0  0  0
   -4.7953   19.7735  -12.1571 Cl  0  0  0  0  0  0  0  0  0  0  0  0
   -3.4529   18.6311  -12.4046 C   0  0  0  0  0  0  0  0  0  0  0  0
   -2.4901   18.4647  -11.4364 C   0  0  0  0  0  0  0  0  0  0  0  0
   -1.4296   17.5721  -11.6517 C   0  0  0  0  0  0  0  0  0  0  0  0
   -1.3185   16.8377  -12.8232 C   0  0  0  0  0  0  0  0  0  0  0  0
   -2.2834   17.0186  -13.7603 C   0  0  0  0  0  0  0  0  0  0  0  0
   -3.3416   17.8992  -13.5741 C   0  0  0  0  0  0  0  0  0  0  0  0
    0.7681   11.8070  -13.5749 N   0  0  0  0  0  0  0  0  0  0  0  0
   -0.2093   10.8158  -13.5033 C   0  0  0  0  0  0  0  0  0  0  0  0
    0.3412    9.6693  -12.9654 O   0  0  0  0  0  0  0  0  0  0  0  0
    0.6326   12.7589  -14.0565 H   0  0  0  0  0  0  0  0  0  0  0  0
   -1.5562   10.6350  -13.7778 C   0  0  0  0  0  0  0  0  0  0  0  0
   -2.5535    9.8425  -14.0363 C   0  0  0  0  0  0  0  0  0  0  0  0
   -3.8928   10.4161  -14.2245 N   0  0  0  0  0  0  0  0  0  0  0  0
   -4.9932    9.6672  -14.5921 N   0  0  0  0  0  0  0  0  0  0  0  0
   -4.9152    8.3014  -14.8126 C   0  0  0  0  0  0  0  0  0  0  0  0
   -5.8908    7.5802  -15.1417 O   0  0  0  0  0  0  0  0  0  0  0  0
   -3.6032    7.6312  -14.6472 C   0  0  0  0  0  0  0  0  0  0  0  0
   -2.5334    8.4141  -14.2837 C   0  0  0  0  0  0  0  0  0  0  0  0
   -1.2987    7.7571  -14.2388 C   0  0  0  0  0  0  0  0  0  0  0  0
   -1.1907    6.4054  -14.5327 C   0  0  0  0  0  0  0  0  0  0  0  0
   -2.2879    5.6619  -14.8812 C   0  0  0  0  0  0  0  0  0  0  0  0
   -3.5124    6.2922  -14.9406 C   0  0  0  0  0  0  0  0  0  0  0  0
   -3.9682   11.4571  -14.0621 H   0  0  0  0  0  0  0  0  0  0  0  0
   -5.9278   10.1476  -14.7090 H   0  0  0  0  0  0  0  0  0  0  0  0
 13 14  1  0  0  0
 14 15  2  0  0  0
 14 19  1  0  0  0
 15 16  1  0  0  0
 16 17  2  0  0  0
 17 18  1  0  0  0
 17  3  1  0  0  0
 18 19  2  0  0  0
  3  4  1  0  0  0
  3  8  1  0  0  0
  3 11  1  0  0  0
  4  5  1  0  0  0
  5  6  1  0  0  0
  6  7  1  0  0  0
  6  9  1  0  0  0
  7  8  1  0  0  0
  9 10  2  0  0  0
  9  1  1  0  0  0
  1 20  1  0  0  0
  1  2  1  0  0  0
 20 21  1  0  0  0
 21 22  2  0  0  0
 21 24  1  0  0  0
 24 25  2  0  0  0
 25 26  1  0  0  0
 25 31  1  0  0  0
 26 27  1  0  0  0
 27 28  1  0  0  0
 28 29  2  0  0  0
 28 30  1  0  0  0
 30 31  2  0  0  0
 30 35  1  0  0  0
 31 32  1  0  0  0
 32 33  2  0  0  0
 33 34  1  0  0  0
 34 35  2  0  0  0
 20 23  1  0  0  0
 26 36  1  0  0  0
 27 37  1  0  0  0
 11 12  1  0  0  0
M  END
> <minimizedAffinity>
-12.45045

$$$$
2377


 33 36  0  0  0  0  0  0  0  0999 V2000
    2.7384   13.8105  -12.2831 N   0  0  0  0  0  0  0  0  0  0  0  0
    3.0230   13.0381  -11.0778 C   0  0  0  0  0  0  0  0  0  0  0  0
    3.0078   11.5494  -11.3411 C   0  0  0  0  0  0  0  0  0  0  0  0
    3.1419   11.3493  -12.7636 N   0  0  0  0  0  0  0  0  0  0  0  0
    4.1416   12.1682  -13.4252 C   0  0  0  0  0  0  0  0  0  0  0  0
    3.5915   13.5934  -13.4599 C   0  0  0  0  0  0  0  0  0  0  0  0
    2.3769   10.4303  -13.5109 C   0  0  0  0  0  0  0  0  0  0  0  0
    2.5737   10.3352  -14.7421 O   0  0  0  0  0  0  0  0  0  0  0  0
    0.1867   12.7951  -13.5028 Cl  0  0  0  0  0  0  0  0  0  0  0  0
    0.4066   14.3813  -12.8080 C   0  0  0  0  0  0  0  0  0  0  0  0
    1.6506   14.7034  -12.3096 C   0  0  0  0  0  0  0  0  0  0  0  0
    1.7424   16.0015  -11.7874 C   0  0  0  0  0  0  0  0  0  0  0  0
    0.6866   16.8363  -11.7883 N   0  0  0  0  0  0  0  0  0  0  0  0
   -0.5040   16.5357  -12.2621 N   0  0  0  0  0  0  0  0  0  0  0  0
   -0.6413   15.3054  -12.7718 C   0  0  0  0  0  0  0  0  0  0  0  0
   -1.7462   14.9393  -13.2449 O   0  0  0  0  0  0  0  0  0  0  0  0
   -1.5677   17.4824  -12.2229 C   0  0  0  0  0  0  0  0  0  0  0  0
   -2.3784   17.7258  -13.3210 C   0  0  0  0  0  0  0  0  0  0  0  0
   -3.4128   18.6390  -13.3000 C   0  0  0  0  0  0  0  0  0  0  0  0
   -3.6430   19.3355  -12.1318 C   0  0  0  0  0  0  0  0  0  0  0  0
   -2.8530   19.1179  -11.0178 C   0  0  0  0  0  0  0  0  0  0  0  0
   -1.8113   18.1846  -11.0707 C   0  0  0  0  0  0  0  0  0  0  0  0
    1.3378    9.5575  -12.9127 C   0  0  0  0  0  0  0  0  0  0  0  0
    0.6444    8.7405  -13.9782 C   0  0  0  0  0  0  0  0  0  0  0  0
   -0.4254    7.8527  -13.4152 C   0  0  0  0  0  0  0  0  0  0  0  0
   -1.7622    8.2006  -13.8432 N   0  0  0  0  0  0  0  0  0  0  0  0
   -2.6300    7.3903  -14.6149 C   0  0  0  0  0  0  0  0  0  0  0  0
   -2.3786    6.2213  -15.0630 O   0  0  0  0  0  0  0  0  0  0  0  0
   -3.8623    8.0358  -14.8498 N   0  0  0  0  0  0  0  0  0  0  0  0
   -3.8181    9.3381  -14.2225 C   0  0  0  0  0  0  0  0  0  0  0  0
   -2.4850    9.4091  -13.5841 C   0  0  0  0  0  0  0  0  0  0  0  0
   -2.0458   10.3709  -12.9189 O   0  0  0  0  0  0  0  0  0  0  0  0
   -4.9876    7.5009  -15.5889 C   0  0  0  0  0  0  0  0  0  0  0  0
  9 10  1  0  0  0
 10 11  2  0  0  0
 10 15  1  0  0  0
 11 12  1  0  0  0
 11  1  1  0  0  0
 12 13  2  0  0  0
 13 14  1  0  0  0
 14 15  1  0  0  0
 14 17  1  0  0  0
 15 16  2  0  0  0
 17 18  2  0  0  0
 17 22  1  0  0  0
 18 19  1  0  0  0
 19 20  2  0  0  0
 20 21  1  0  0  0
 21 22  2  0  0  0
  1  2  1  0  0  0
  1  6  1  0  0  0
  2  3  1  0  0  0
  3  4  1  0  0  0
  4  5  1  0  0  0
  4  7  1  0  0  0
  5  6  1  0  0  0
  7  8  2  0  0  0
  7 23  1  0  0  0
 23 24  1  0  0  0
 24 25  1  0  0  0
 25 26  1  0  0  0
 26 27  1  0  0  0
 26 31  1  0  0  0
 27 28  2  0  0  0
 27 29  1  0  0  0
 29 30  1  0  0  0
 29 33  1  0  0  0
 30 31  1  0  0  0
 31 32  2  0  0  0
M  END
> <minimizedAffinity>
-8.49901

$$$$
2380


 27 30  0  0  0  0  0  0  0  0999 V2000
    3.6215   13.4544  -12.2678 Cl  0  0  0  0  0  0  0  0  0  0  0  0
    1.9005   13.6027  -12.6085 C   0  0  0  0  0  0  0  0  0  0  0  0
    1.2338   12.4782  -13.0335 C   0  0  0  0  0  0  0  0  0  0  0  0
   -0.1188   12.6291  -13.2940 C   0  0  0  0  0  0  0  0  0  0  0  0
   -0.7085   13.8258  -13.1275 N   0  0  0  0  0  0  0  0  0  0  0  0
   -0.0788   14.9151  -12.7190 N   0  0  0  0  0  0  0  0  0  0  0  0
    1.2355   14.8036  -12.4578 C   0  0  0  0  0  0  0  0  0  0  0  0
    1.9028   15.8019  -12.0629 O   0  0  0  0  0  0  0  0  0  0  0  0
    1.9319   11.2609  -13.1822 N   0  0  0  0  0  0  0  0  0  0  0  0
    2.2758   10.7299  -14.4963 C   0  0  0  0  0  0  0  0  0  0  0  0
    1.4187    9.4578  -14.6451 C   0  0  0  0  0  0  0  0  0  0  0  0
    1.6061    8.5974  -13.5191 N   0  0  0  0  0  0  0  0  0  0  0  0
    2.6138    9.0102  -12.5195 C   0  0  0  0  0  0  0  0  0  0  0  0
    2.3668   10.4361  -12.0696 C   0  0  0  0  0  0  0  0  0  0  0  0
    0.8866    7.3897  -13.3236 C   0  0  0  0  0  0  0  0  0  0  0  0
    1.0871    6.6583  -12.3080 O   0  0  0  0  0  0  0  0  0  0  0  0
   -0.1311    6.9042  -14.2721 C   0  0  0  0  0  0  0  0  0  0  0  0
   -0.2100    5.5455  -14.2553 O   0  0  0  0  0  0  0  0  0  0  0  0
   -1.5212    5.1799  -14.5323 C   0  0  0  0  0  0  0  0  0  0  0  0
   -2.2904    6.1875  -13.6897 C   0  0  0  0  0  0  0  0  0  0  0  0
   -1.5069    7.4531  -13.9679 C   0  0  0  0  0  0  0  0  0  0  0  0
   -0.7656   16.1656  -12.5604 C   0  0  0  0  0  0  0  0  0  0  0  0
   -1.6519   16.5991  -13.5247 C   0  0  0  0  0  0  0  0  0  0  0  0
   -2.3279   17.8144  -13.3833 C   0  0  0  0  0  0  0  0  0  0  0  0
   -2.1182   18.5985  -12.2774 C   0  0  0  0  0  0  0  0  0  0  0  0
   -1.2391   18.1806  -11.3113 C   0  0  0  0  0  0  0  0  0  0  0  0
   -0.5833   16.9834  -11.4645 C   0  0  0  0  0  0  0  0  0  0  0  0
  1  2  1  0  0  0
  2  3  2  0  0  0
  2  7  1  0  0  0
  3  4  1  0  0  0
  3  9  1  0  0  0
  4  5  2  0  0  0
  5  6  1  0  0  0
  6  7  1  0  0  0
  6 22  1  0  0  0
  7  8  2  0  0  0
 22 23  2  0  0  0
 22 27  1  0  0  0
 23 24  1  0  0  0
 24 25  2  0  0  0
 25 26  1  0  0  0
 26 27  2  0  0  0
  9 10  1  0  0  0
  9 14  1  0  0  0
 10 11  1  0  0  0
 11 12  1  0  0  0
 12 13  1  0  0  0
 12 15  1  0  0  0
 13 14  1  0  0  0
 15 16  2  0  0  0
 15 17  1  0  0  0
 17 18  1  0  0  0
 17 21  1  0  0  0
 18 19  1  0  0  0
 19 20  1  0  0  0
 20 21  1  0  0  0
M  END
> <minimizedAffinity>
-8.13846

$$$$
2381


 30 33  0  0  0  0  0  0  0  0999 V2000
    2.3846    7.1630  -13.2007 N   0  0  0  0  0  0  0  0  0  0  0  0
    1.7265    6.8821  -11.9551 C   0  0  0  0  0  0  0  0  0  0  0  0
    0.3742    6.2411  -12.1745 C   0  0  0  0  0  0  0  0  0  0  0  0
   -0.2689    6.7340  -13.3669 N   0  0  0  0  0  0  0  0  0  0  0  0
    0.2602    7.9169  -14.0011 C   0  0  0  0  0  0  0  0  0  0  0  0
    1.6899    7.6317  -14.3831 C   0  0  0  0  0  0  0  0  0  0  0  0
   -1.3989    6.0618  -13.8980 C   0  0  0  0  0  0  0  0  0  0  0  0
   -1.8700    5.0172  -13.3434 O   0  0  0  0  0  0  0  0  0  0  0  0
    3.3784    4.3669  -12.6853 Cl  0  0  0  0  0  0  0  0  0  0  0  0
    4.3899    5.7415  -13.0665 C   0  0  0  0  0  0  0  0  0  0  0  0
    3.7977    6.9698  -13.2813 C   0  0  0  0  0  0  0  0  0  0  0  0
    4.6542    8.0142  -13.5807 C   0  0  0  0  0  0  0  0  0  0  0  0
    5.9871    7.8434  -13.6586 N   0  0  0  0  0  0  0  0  0  0  0  0
    6.5715    6.6737  -13.4553 N   0  0  0  0  0  0  0  0  0  0  0  0
    5.7687    5.6349  -13.1619 C   0  0  0  0  0  0  0  0  0  0  0  0
    6.3120    4.5272  -12.9676 O   0  0  0  0  0  0  0  0  0  0  0  0
    7.9892    6.5018  -13.5389 C   0  0  0  0  0  0  0  0  0  0  0  0
    8.7573    6.3959  -12.3975 C   0  0  0  0  0  0  0  0  0  0  0  0
   10.1256    6.2302  -12.4691 C   0  0  0  0  0  0  0  0  0  0  0  0
   10.7881    6.1630  -13.6775 C   0  0  0  0  0  0  0  0  0  0  0  0
   10.0259    6.2675  -14.8220 C   0  0  0  0  0  0  0  0  0  0  0  0
    8.6618    6.4333  -14.7449 C   0  0  0  0  0  0  0  0  0  0  0  0
   -2.0993    6.5283  -15.1234 C   0  0  0  0  0  0  0  0  0  0  0  0
   -3.4716    6.7129  -14.9048 O   0  0  0  0  0  0  0  0  0  0  0  0
   -3.9699    7.9597  -14.5791 C   0  0  0  0  0  0  0  0  0  0  0  0
   -3.3214    9.0941  -14.2935 N   0  0  0  0  0  0  0  0  0  0  0  0
   -4.1638   10.0418  -14.0413 O   0  0  0  0  0  0  0  0  0  0  0  0
   -5.4071    9.6184  -14.1385 C   0  0  0  0  0  0  0  0  0  0  0  0
   -5.3156    8.2851  -14.4830 C   0  0  0  0  0  0  0  0  0  0  0  0
   -6.5840   10.4754  -13.9074 C   0  0  0  0  0  0  0  0  0  0  0  0
  9 10  1  0  0  0
 10 11  2  0  0  0
 10 15  1  0  0  0
 11 12  1  0  0  0
 11  1  1  0  0  0
 12 13  2  0  0  0
 13 14  1  0  0  0
 14 15  1  0  0  0
 14 17  1  0  0  0
 15 16  2  0  0  0
 17 18  2  0  0  0
 17 22  1  0  0  0
 18 19  1  0  0  0
 19 20  2  0  0  0
 20 21  1  0  0  0
 21 22  2  0  0  0
  1  2  1  0  0  0
  1  6  1  0  0  0
  2  3  1  0  0  0
  3  4  1  0  0  0
  4  5  1  0  0  0
  4  7  1  0  0  0
  5  6  1  0  0  0
  7  8  2  0  0  0
  7 23  1  0  0  0
 23 24  1  0  0  0
 24 25  1  0  0  0
 25 26  2  0  0  0
 25 29  1  0  0  0
 26 27  1  0  0  0
 27 28  1  0  0  0
 28 29  2  0  0  0
 28 30  1  0  0  0
M  END
> <minimizedAffinity>
-8.97408

$$$$
2386


 30 33  0  0  0  0  0  0  0  0999 V2000
   -4.5854   10.0056  -13.9420 Cl  0  0  0  0  0  0  0  0  0  0  0  0
   -2.8439    9.9840  -13.6843 C   0  0  0  0  0  0  0  0  0  0  0  0
   -2.1352   11.1292  -14.0405 C   0  0  0  0  0  0  0  0  0  0  0  0
   -0.7725   11.1279  -13.8455 C   0  0  0  0  0  0  0  0  0  0  0  0
   -0.1417   10.0129  -13.3098 C   0  0  0  0  0  0  0  0  0  0  0  0
   -0.8560    8.8743  -12.9572 C   0  0  0  0  0  0  0  0  0  0  0  0
   -2.2252    8.8762  -13.1543 C   0  0  0  0  0  0  0  0  0  0  0  0
    1.2222    9.9348  -13.0840 O   0  0  0  0  0  0  0  0  0  0  0  0
    2.2804   10.5741  -13.7424 C   0  0  0  0  0  0  0  0  0  0  0  0
    2.2741   12.0589  -13.7027 C   0  0  0  0  0  0  0  0  0  0  0  0
    1.0129   12.6907  -13.4868 N   0  0  0  0  0  0  0  0  0  0  0  0
   -0.1953   12.4280  -14.2801 C   0  0  0  0  0  0  0  0  0  0  0  0
    0.8947   13.6498  -12.4437 C   0  0  0  0  0  0  0  0  0  0  0  0
    1.9256   13.8875  -11.7735 O   0  0  0  0  0  0  0  0  0  0  0  0
    3.5979   10.0702  -13.1232 C   0  0  0  0  0  0  0  0  0  0  0  0
    3.5182    8.5675  -13.1206 C   0  0  0  0  0  0  0  0  0  0  0  0
    2.3978    8.0918  -13.7787 O   0  0  0  0  0  0  0  0  0  0  0  0
    2.3166    8.5360  -15.0866 C   0  0  0  0  0  0  0  0  0  0  0  0
    2.3461   10.0458  -15.1842 C   0  0  0  0  0  0  0  0  0  0  0  0
   -0.3527   14.3392  -12.1528 C   0  0  0  0  0  0  0  0  0  0  0  0
   -0.4100   15.7979  -12.3566 C   0  0  0  0  0  0  0  0  0  0  0  0
   -1.3915   16.3695  -13.2926 C   0  0  0  0  0  0  0  0  0  0  0  0
   -2.2857   17.3802  -12.8661 N   0  0  0  0  0  0  0  0  0  0  0  0
   -3.4649   17.7775  -13.5425 C   0  0  0  0  0  0  0  0  0  0  0  0
   -3.9475   17.3218  -14.6215 O   0  0  0  0  0  0  0  0  0  0  0  0
   -4.0521   18.8176  -12.7806 N   0  0  0  0  0  0  0  0  0  0  0  0
   -3.4529   18.8179  -11.4479 C   0  0  0  0  0  0  0  0  0  0  0  0
   -2.1488   18.1695  -11.7008 C   0  0  0  0  0  0  0  0  0  0  0  0
   -1.0995   18.3157  -10.9763 O   0  0  0  0  0  0  0  0  0  0  0  0
   -4.7863   19.4893  -13.0797 H   0  0  0  0  0  0  0  0  0  0  0  0
  1  2  1  0  0  0
  2  3  2  0  0  0
  2  7  1  0  0  0
  3  4  1  0  0  0
  4  5  2  0  0  0
  4 12  1  0  0  0
  5  6  1  0  0  0
  5  8  1  0  0  0
  6  7  2  0  0  0
  8  9  1  0  0  0
  9 10  1  0  0  0
  9 15  1  0  0  0
  9 19  1  0  0  0
 10 11  1  0  0  0
 11 12  1  0  0  0
 11 13  1  0  0  0
 13 14  2  0  0  0
 13 20  1  0  0  0
 20 21  1  0  0  0
 21 22  1  0  0  0
 22 23  1  0  0  0
 23 24  1  0  0  0
 23 28  1  0  0  0
 24 25  2  0  0  0
 24 26  1  0  0  0
 26 27  1  0  0  0
 27 28  1  0  0  0
 28 29  2  0  0  0
 15 16  1  0  0  0
 16 17  1  0  0  0
 17 18  1  0  0  0
 18 19  1  0  0  0
 26 30  1  0  0  0
M  END
> <minimizedAffinity>
-9.03540

$$$$
2402


 33 36  0  0  0  0  0  0  0  0999 V2000
    1.4883    8.5509  -13.0000 C   0  0  0  0  0  0  0  0  0  0  0  0
    2.0392    9.7292  -13.6002 N   0  0  0  0  0  0  0  0  0  0  0  0
    3.1549    9.4018  -14.4138 C   0  0  0  0  0  0  0  0  0  0  0  0
    3.7966   10.0975  -15.2376 O   0  0  0  0  0  0  0  0  0  0  0  0
    3.5181    7.9896  -14.1525 C   0  0  0  0  0  0  0  0  0  0  0  0
    4.4536    7.3407  -14.6841 O   0  0  0  0  0  0  0  0  0  0  0  0
    2.5630    7.5332  -13.1603 C   0  0  0  0  0  0  0  0  0  0  0  0
    2.6730    6.3546  -12.5345 C   0  0  0  0  0  0  0  0  0  0  0  0
    1.6350    6.0802  -11.6349 O   0  0  0  0  0  0  0  0  0  0  0  0
    3.7759    5.4263  -12.7550 C   0  0  0  0  0  0  0  0  0  0  0  0
    5.0502    5.6160  -12.7619 O   0  0  0  0  0  0  0  0  0  0  0  0
    5.7565    4.5511  -12.9994 C   0  0  0  0  0  0  0  0  0  0  0  0
    4.8760    3.4950  -13.1791 C   0  0  0  0  0  0  0  0  0  0  0  0
    3.6186    4.0800  -13.0179 C   0  0  0  0  0  0  0  0  0  0  0  0
    5.3638    2.2382  -13.4476 C   0  0  0  0  0  0  0  0  0  0  0  0
    6.7177    2.0125  -13.5410 C   0  0  0  0  0  0  0  0  0  0  0  0
    7.6071    3.0646  -13.3623 C   0  0  0  0  0  0  0  0  0  0  0  0
    7.1142    4.3027  -13.0958 C   0  0  0  0  0  0  0  0  0  0  0  0
    7.9706    5.3683  -12.9125 O   0  0  0  0  0  0  0  0  0  0  0  0
    8.3331    6.2957  -13.9265 C   0  0  0  0  0  0  0  0  0  0  0  0
   -4.2004    7.1690  -14.9473 Br  0  0  0  0  0  0  0  0  0  0  0  0
   -2.4085    7.5286  -14.3856 C   0  0  0  0  0  0  0  0  0  0  0  0
   -2.1965    8.6053  -13.5739 C   0  0  0  0  0  0  0  0  0  0  0  0
   -0.9316    8.8931  -13.1541 C   0  0  0  0  0  0  0  0  0  0  0  0
    0.1831    8.1530  -13.4998 C   0  0  0  0  0  0  0  0  0  0  0  0
   -0.0590    7.0714  -14.3192 C   0  0  0  0  0  0  0  0  0  0  0  0
   -1.3401    6.7517  -14.7657 C   0  0  0  0  0  0  0  0  0  0  0  0
    1.5559   11.0718  -13.4270 C   0  0  0  0  0  0  0  0  0  0  0  0
    2.4964   11.8963  -12.5671 C   0  0  0  0  0  0  0  0  0  0  0  0
    2.1312   13.2681  -12.4763 N   0  0  0  0  0  0  0  0  0  0  0  0
    0.7323   13.5516  -12.5795 C   0  0  0  0  0  0  0  0  0  0  0  0
    2.6910   13.8782  -11.2778 C   0  0  0  0  0  0  0  0  0  0  0  0
    2.5939   13.7707  -13.2915 H   0  0  0  0  0  0  0  0  0  0  0  0
 21 22  1  0  0  0
 22 23  2  0  0  0
 22 27  1  0  0  0
 23 24  1  0  0  0
 24 25  2  0  0  0
 25 26  1  0  0  0
 25  1  1  0  0  0
 26 27  2  0  0  0
  1  2  1  0  0  0
  1  7  1  0  0  0
  2  3  1  0  0  0
  2 28  1  0  0  0
  3  4  2  0  0  0
  3  5  1  0  0  0
  5  6  2  0  0  0
  5  7  1  0  0  0
  7  8  2  0  0  0
  8  9  1  0  0  0
  8 10  1  0  0  0
 10 11  1  0  0  0
 10 14  2  0  0  0
 11 12  1  0  0  0
 12 13  2  0  0  0
 12 18  1  0  0  0
 13 14  1  0  0  0
 13 15  1  0  0  0
 15 16  2  0  0  0
 16 17  1  0  0  0
 17 18  2  0  0  0
 18 19  1  0  0  0
 19 20  1  0  0  0
 28 29  1  0  0  0
 29 30  1  0  0  0
 30 31  1  0  0  0
 30 32  1  0  0  0
 30 33  1  0  0  0
M  CHG 1   9  -1
M  CHG 1  30   1
M  END
> <minimizedAffinity>
-9.25733

$$$$
2403


 26 29  0  0  0  0  0  0  0  0999 V2000
   -5.7077    8.6379  -14.4965 C   0  0  0  0  0  0  0  0  0  0  0  0
   -4.3667    9.1321  -14.2540 N   0  0  0  0  0  0  0  0  0  0  0  0
   -3.2025    8.4732  -14.1632 C   0  0  0  0  0  0  0  0  0  0  0  0
   -2.1567    9.3493  -13.8933 C   0  0  0  0  0  0  0  0  0  0  0  0
   -2.7328   10.5727  -13.8229 N   0  0  0  0  0  0  0  0  0  0  0  0
   -4.0449   10.4479  -14.0371 C   0  0  0  0  0  0  0  0  0  0  0  0
   -0.8734    8.9578  -13.7544 N   0  0  0  0  0  0  0  0  0  0  0  0
   -0.6336    7.6405  -13.8933 C   0  0  0  0  0  0  0  0  0  0  0  0
    0.5612    7.2559  -13.7664 O   0  0  0  0  0  0  0  0  0  0  0  0
   -1.6057    6.7535  -14.1549 N   0  0  0  0  0  0  0  0  0  0  0  0
   -2.8904    7.1424  -14.2936 C   0  0  0  0  0  0  0  0  0  0  0  0
   -3.8068    6.3339  -14.5389 O   0  0  0  0  0  0  0  0  0  0  0  0
   -1.3426    5.3330  -14.3044 C   0  0  0  0  0  0  0  0  0  0  0  0
    0.1717    9.9228  -13.4713 C   0  0  0  0  0  0  0  0  0  0  0  0
  -11.5502   14.0656  -16.5796 Br  0  0  0  0  0  0  0  0  0  0  0  0
  -10.2653   12.6780  -16.3460 C   0  0  0  0  0  0  0  0  0  0  0  0
   -9.4858   12.7035  -15.2218 C   0  0  0  0  0  0  0  0  0  0  0  0
   -8.5695   11.7302  -15.0364 N   0  0  0  0  0  0  0  0  0  0  0  0
   -8.4179   10.7468  -15.9360 C   0  0  0  0  0  0  0  0  0  0  0  0
   -7.4908    9.7623  -15.7477 N   0  0  0  0  0  0  0  0  0  0  0  0
   -6.7038    9.7498  -14.6571 C   0  0  0  0  0  0  0  0  0  0  0  0
   -6.8756   10.7651  -13.7493 C   0  0  0  0  0  0  0  0  0  0  0  0
   -7.8013   11.7727  -13.9093 C   0  0  0  0  0  0  0  0  0  0  0  0
   -7.9742   12.6995  -13.1031 O   0  0  0  0  0  0  0  0  0  0  0  0
   -9.2032   10.7126  -17.0771 C   0  0  0  0  0  0  0  0  0  0  0  0
  -10.1435   11.6886  -17.2944 C   0  0  0  0  0  0  0  0  0  0  0  0
 15 16  1  0  0  0
 16 17  2  0  0  0
 16 26  1  0  0  0
 17 18  1  0  0  0
 18 19  1  0  0  0
 18 23  1  0  0  0
 19 20  2  0  0  0
 19 25  1  0  0  0
 20 21  1  0  0  0
 21 22  2  0  0  0
 21  1  1  0  0  0
 22 23  1  0  0  0
 23 24  2  0  0  0
  1  2  1  0  0  0
  2  3  1  0  0  0
  2  6  1  0  0  0
  3  4  2  0  0  0
  3 11  1  0  0  0
  4  5  1  0  0  0
  4  7  1  0  0  0
  5  6  2  0  0  0
  7  8  1  0  0  0
  7 14  1  0  0  0
  8  9  2  0  0  0
  8 10  1  0  0  0
 10 11  1  0  0  0
 10 13  1  0  0  0
 11 12  2  0  0  0
 25 26  2  0  0  0
M  END
> <minimizedAffinity>
-9.77187

$$$$
2416


 34 37  0  0  0  0  0  0  0  0999 V2000
    0.8406   15.5489  -12.5851 N   0  0  0  0  0  0  0  0  0  0  0  0
    2.0026   15.9894  -13.2111 C   0  0  0  0  0  0  0  0  0  0  0  0
    3.2077   15.2741  -12.5855 C   0  0  0  0  0  0  0  0  0  0  0  0
    2.8712   13.8697  -12.3468 N   0  0  0  0  0  0  0  0  0  0  0  0
    1.7207   13.6241  -11.4996 C   0  0  0  0  0  0  0  0  0  0  0  0
    1.0251   14.9808  -11.3149 C   0  0  0  0  0  0  0  0  0  0  0  0
    3.6411   12.8339  -12.9460 C   0  0  0  0  0  0  0  0  0  0  0  0
    4.6004   13.1758  -13.6762 O   0  0  0  0  0  0  0  0  0  0  0  0
   -0.6699   15.9482  -13.1383 S   0  0  0  0  0  0  0  0  0  0  0  0
   -0.5598   16.3962  -14.5841 O   0  0  0  0  0  0  0  0  0  0  0  0
   -1.6512   14.7947  -13.1464 O   0  0  0  0  0  0  0  0  0  0  0  0
   -1.4247   17.2842  -12.2619 C   0  0  0  0  0  0  0  0  0  0  0  0
   -0.8699   17.7964  -11.1119 C   0  0  0  0  0  0  0  0  0  0  0  0
   -1.4981   18.8354  -10.4607 C   0  0  0  0  0  0  0  0  0  0  0  0
   -2.6766   19.4059  -10.9045 C   0  0  0  0  0  0  0  0  0  0  0  0
   -3.2347   18.8870  -12.0664 C   0  0  0  0  0  0  0  0  0  0  0  0
   -2.6034   17.8486  -12.7128 C   0  0  0  0  0  0  0  0  0  0  0  0
   -3.4721   20.7140  -10.0930 Cl  0  0  0  0  0  0  0  0  0  0  0  0
    3.3138   11.4277  -12.7126 C   0  0  0  0  0  0  0  0  0  0  0  0
    2.6277   10.7456  -13.8871 C   0  0  0  0  0  0  0  0  0  0  0  0
    1.2313   10.4800  -13.6623 N   0  0  0  0  0  0  0  0  0  0  0  0
    0.5042    9.2744  -13.4736 C   0  0  0  0  0  0  0  0  0  0  0  0
   -0.7364    9.2454  -13.6885 O   0  0  0  0  0  0  0  0  0  0  0  0
    1.0428    7.9690  -13.0338 C   0  0  0  0  0  0  0  0  0  0  0  0
    2.3587    7.5147  -13.1748 C   0  0  0  0  0  0  0  0  0  0  0  0
    2.6976    6.2782  -12.7037 C   0  0  0  0  0  0  0  0  0  0  0  0
    1.7797    5.4338  -12.0764 C   0  0  0  0  0  0  0  0  0  0  0  0
    0.4765    5.9156  -11.9490 C   0  0  0  0  0  0  0  0  0  0  0  0
    0.1206    7.1600  -12.4208 C   0  0  0  0  0  0  0  0  0  0  0  0
    3.4257    8.2296  -13.7797 N   0  0  0  0  0  0  0  0  0  0  0  0
    3.4176    9.5643  -14.2955 C   0  0  0  0  0  0  0  0  0  0  0  0
    4.2416    9.7158  -15.2653 O   0  0  0  0  0  0  0  0  0  0  0  0
    0.5763   11.3228  -13.6219 H   0  0  0  0  0  0  0  0  0  0  0  0
    4.3043    7.7166  -13.8469 H   0  0  0  0  0  0  0  0  0  0  0  0
  9 10  2  0  0  0
  9 11  2  0  0  0
  9  1  1  0  0  0
  9 12  1  0  0  0
  1  2  1  0  0  0
  1  6  1  0  0  0
  2  3  1  0  0  0
  3  4  1  0  0  0
  4  5  1  0  0  0
  4  7  1  0  0  0
  5  6  1  0  0  0
  7  8  2  0  0  0
  7 19  1  0  0  0
 19 20  1  0  0  0
 20 21  1  0  0  0
 20 31  1  0  0  0
 21 22  1  0  0  0
 22 23  2  0  0  0
 22 24  1  0  0  0
 24 25  2  0  0  0
 24 29  1  0  0  0
 25 26  1  0  0  0
 25 30  1  0  0  0
 26 27  2  0  0  0
 27 28  1  0  0  0
 28 29  2  0  0  0
 30 31  1  0  0  0
 31 32  2  0  0  0
 12 13  2  0  0  0
 12 17  1  0  0  0
 13 14  1  0  0  0
 14 15  2  0  0  0
 15 16  1  0  0  0
 15 18  1  0  0  0
 16 17  2  0  0  0
 21 33  1  0  0  0
 30 34  1  0  0  0
M  END
> <minimizedAffinity>
-9.68637

$$$$
2417


 27 30  0  0  0  0  0  0  0  0999 V2000
    1.7336    8.5387  -13.0553 N   0  0  0  0  0  0  0  0  0  0  0  0
    2.5163    9.6364  -12.4415 C   0  0  0  0  0  0  0  0  0  0  0  0
    2.0888   10.8025  -13.2086 C   0  0  0  0  0  0  0  0  0  0  0  0
    2.2984   10.2995  -14.6280 C   0  0  0  0  0  0  0  0  0  0  0  0
    1.5978    8.8927  -14.4030 C   0  0  0  0  0  0  0  0  0  0  0  0
    3.7349    9.9416  -14.8785 C   0  0  0  0  0  0  0  0  0  0  0  0
    3.8009    8.6306  -15.4193 O   0  0  0  0  0  0  0  0  0  0  0  0
    3.2976    8.6846  -16.3201 H   0  0  0  0  0  0  0  0  0  0  0  0
    0.5210    8.3980  -12.2349 C   0  0  0  0  0  0  0  0  0  0  0  0
    0.3112    5.5752  -13.3658 Cl  0  0  0  0  0  0  0  0  0  0  0  0
   -1.1842    6.2762  -13.9751 C   0  0  0  0  0  0  0  0  0  0  0  0
   -1.4097    7.6092  -13.7273 C   0  0  0  0  0  0  0  0  0  0  0  0
   -2.5295    8.1776  -14.2887 C   0  0  0  0  0  0  0  0  0  0  0  0
   -2.5432    9.4475  -13.8278 N   0  0  0  0  0  0  0  0  0  0  0  0
   -1.5244    9.6372  -13.0325 N   0  0  0  0  0  0  0  0  0  0  0  0
   -0.7449    8.5013  -12.9159 C   0  0  0  0  0  0  0  0  0  0  0  0
   -3.5018   10.4755  -14.2696 C   0  0  0  0  0  0  0  0  0  0  0  0
   -3.4082    7.4742  -15.0550 C   0  0  0  0  0  0  0  0  0  0  0  0
   -3.1659    6.1179  -15.2921 C   0  0  0  0  0  0  0  0  0  0  0  0
   -2.0376    5.5236  -14.7361 C   0  0  0  0  0  0  0  0  0  0  0  0
    2.8785   12.0673  -12.9796 C   0  0  0  0  0  0  0  0  0  0  0  0
    2.0546   12.9919  -12.2664 N   0  0  0  0  0  0  0  0  0  0  0  0
    2.7389   14.2255  -11.9409 C   0  0  0  0  0  0  0  0  0  0  0  0
    2.0668   15.4570  -12.5023 C   0  0  0  0  0  0  0  0  0  0  0  0
    0.7351   15.5675  -12.1737 O   0  0  0  0  0  0  0  0  0  0  0  0
    0.0863   14.3370  -12.1269 C   0  0  0  0  0  0  0  0  0  0  0  0
    0.8392   13.3469  -12.9619 C   0  0  0  0  0  0  0  0  0  0  0  0
 10 11  1  0  0  0
 11 12  2  0  0  0
 11 20  1  0  0  0
 12 13  1  0  0  0
 12 16  1  0  0  0
 13 14  1  0  0  0
 13 18  2  0  0  0
 14 15  1  0  0  0
 14 17  1  0  0  0
 15 16  2  0  0  0
 16  9  1  0  0  0
  9  1  1  0  0  0
  1  2  1  0  0  0
  1  5  1  0  0  0
  2  3  1  0  0  0
  3  4  1  0  0  0
  3 21  1  0  0  0
  4  5  1  0  0  0
  4  6  1  0  0  0
  6  7  1  0  0  0
 21 22  1  0  0  0
 22 23  1  0  0  0
 22 27  1  0  0  0
 23 24  1  0  0  0
 24 25  1  0  0  0
 25 26  1  0  0  0
 26 27  1  0  0  0
 18 19  1  0  0  0
 19 20  2  0  0  0
  7  8  1  0  0  0
M  END
> <minimizedAffinity>
-7.99198

$$$$
2419


 32 36  0  0  0  0  0  0  0  0999 V2000
    1.9230    7.7137  -13.3856 C   0  0  0  0  0  0  0  0  0  0  0  0
    0.7303    7.1480  -13.8656 C   0  0  0  0  0  0  0  0  0  0  0  0
   -0.2076    8.0793  -13.7481 N   0  0  0  0  0  0  0  0  0  0  0  0
   -1.5443    8.2397  -13.9920 C   0  0  0  0  0  0  0  0  0  0  0  0
   -1.8338    9.5200  -13.5925 C   0  0  0  0  0  0  0  0  0  0  0  0
   -0.7101   10.0574  -13.1428 N   0  0  0  0  0  0  0  0  0  0  0  0
    0.3182    9.1661  -13.2348 C   0  0  0  0  0  0  0  0  0  0  0  0
    1.6486    8.9648  -12.9998 N   0  0  0  0  0  0  0  0  0  0  0  0
   -3.1274   10.0400  -13.6951 C   0  0  0  0  0  0  0  0  0  0  0  0
   -4.1382    9.2569  -14.2092 C   0  0  0  0  0  0  0  0  0  0  0  0
   -3.8217    7.9766  -14.6031 C   0  0  0  0  0  0  0  0  0  0  0  0
   -2.5385    7.4518  -14.5034 C   0  0  0  0  0  0  0  0  0  0  0  0
   -0.6585   11.0234  -12.7679 H   0  0  0  0  0  0  0  0  0  0  0  0
    7.1174    4.3827  -13.0854 Br  0  0  0  0  0  0  0  0  0  0  0  0
    5.5085    5.4366  -13.1853 C   0  0  0  0  0  0  0  0  0  0  0  0
    4.3327    4.9957  -12.6603 C   0  0  0  0  0  0  0  0  0  0  0  0
    3.1950    5.7469  -12.7335 C   0  0  0  0  0  0  0  0  0  0  0  0
    3.1727    6.9863  -13.3405 C   0  0  0  0  0  0  0  0  0  0  0  0
    4.3411    7.4263  -13.8632 C   0  0  0  0  0  0  0  0  0  0  0  0
    5.5296    6.6594  -13.7955 C   0  0  0  0  0  0  0  0  0  0  0  0
    2.4658    9.9889  -12.4247 C   0  0  0  0  0  0  0  0  0  0  0  0
    3.3261   10.7649  -13.3380 C   0  0  0  0  0  0  0  0  0  0  0  0
    3.4481   12.2320  -13.1353 C   0  0  0  0  0  0  0  0  0  0  0  0
    2.8892   12.6527  -11.8695 N   0  0  0  0  0  0  0  0  0  0  0  0
    2.6579   11.9157  -11.2081 H   0  0  0  0  0  0  0  0  0  0  0  0
    3.6896   13.1933  -11.3755 H   0  0  0  0  0  0  0  0  0  0  0  0
    1.8340   13.6123  -12.0073 C   0  0  0  0  0  0  0  0  0  0  0  0
    2.2795   14.9996  -12.3744 C   0  0  0  0  0  0  0  0  0  0  0  0
    1.1211   15.9337  -11.9943 C   0  0  0  0  0  0  0  0  0  0  0  0
   -0.0720   15.5629  -12.8051 C   0  0  0  0  0  0  0  0  0  0  0  0
   -0.4350   14.0984  -12.7215 C   0  0  0  0  0  0  0  0  0  0  0  0
    0.7829   13.2232  -13.0388 C   0  0  0  0  0  0  0  0  0  0  0  0
 14 15  1  0  0  0
 15 16  2  0  0  0
 15 20  1  0  0  0
 16 17  1  0  0  0
 17 18  2  0  0  0
 18 19  1  0  0  0
 18  1  1  0  0  0
 19 20  2  0  0  0
  1  2  2  0  0  0
  1  8  1  0  0  0
  2  3  1  0  0  0
  3  4  1  0  0  0
  3  7  1  0  0  0
  4  5  2  0  0  0
  4 12  1  0  0  0
  5  6  1  0  0  0
  5  9  1  0  0  0
  6  7  2  0  0  0
  7  8  1  0  0  0
  8 21  1  0  0  0
 21 22  1  0  0  0
 22 23  1  0  0  0
 23 24  1  0  0  0
 24 27  1  0  0  0
 27 28  1  0  0  0
 27 32  1  0  0  0
 28 29  1  0  0  0
 29 30  1  0  0  0
 30 31  1  0  0  0
 31 32  1  0  0  0
  9 10  2  0  0  0
 10 11  1  0  0  0
 11 12  2  0  0  0
  6 13  1  0  0  0
 24 25  1  0  0  0
 24 26  1  0  0  0
M  CHG 1  24   1
M  END
> <minimizedAffinity>
-9.36617

$$$$
2420


 29 32  0  0  0  0  0  0  0  0999 V2000
    1.1376   15.3966  -12.5312 N   0  0  0  0  0  0  0  0  0  0  0  0
    1.1460   14.4895  -11.3851 C   0  0  0  0  0  0  0  0  0  0  0  0
    2.1834   13.4603  -11.7751 C   0  0  0  0  0  0  0  0  0  0  0  0
    3.2859   14.3263  -12.3728 C   0  0  0  0  0  0  0  0  0  0  0  0
    2.5140   15.5038  -12.9057 C   0  0  0  0  0  0  0  0  0  0  0  0
    3.0011   16.4545  -13.5871 O   0  0  0  0  0  0  0  0  0  0  0  0
   -3.9271   20.1037  -11.0714 Br  0  0  0  0  0  0  0  0  0  0  0  0
   -2.6435   18.8183  -11.6391 C   0  0  0  0  0  0  0  0  0  0  0  0
   -2.6952   18.2812  -12.9059 C   0  0  0  0  0  0  0  0  0  0  0  0
   -1.7840   17.3600  -13.3293 C   0  0  0  0  0  0  0  0  0  0  0  0
   -1.5764   16.6669  -14.4846 N   0  0  0  0  0  0  0  0  0  0  0  0
   -0.5170   15.8845  -14.3462 N   0  0  0  0  0  0  0  0  0  0  0  0
    0.0101   16.0217  -13.1224 C   0  0  0  0  0  0  0  0  0  0  0  0
   -0.7891   16.9555  -12.4736 C   0  0  0  0  0  0  0  0  0  0  0  0
   -0.7134   17.4812  -11.1898 C   0  0  0  0  0  0  0  0  0  0  0  0
   -1.6343   18.4117  -10.7641 C   0  0  0  0  0  0  0  0  0  0  0  0
   -2.2192   16.8071  -15.3033 H   0  0  0  0  0  0  0  0  0  0  0  0
    1.6669   12.5119  -12.7906 C   0  0  0  0  0  0  0  0  0  0  0  0
    0.4377   12.5309  -13.0486 O   0  0  0  0  0  0  0  0  0  0  0  0
    2.5008   11.5956  -13.4708 N   0  0  0  0  0  0  0  0  0  0  0  0
    3.5240   11.6074  -13.2270 H   0  0  0  0  0  0  0  0  0  0  0  0
    2.0059   10.6720  -14.4588 C   0  0  0  0  0  0  0  0  0  0  0  0
    2.3760    9.2590  -14.0603 C   0  0  0  0  0  0  0  0  0  0  0  0
    1.2454    8.3636  -14.0499 N   0  0  0  0  0  0  0  0  0  0  0  0
    1.6001    7.2236  -13.2118 C   0  0  0  0  0  0  0  0  0  0  0  0
    1.3376    7.5441  -11.7428 C   0  0  0  0  0  0  0  0  0  0  0  0
   -0.0017    7.6767  -11.4605 O   0  0  0  0  0  0  0  0  0  0  0  0
   -0.6859    7.9840  -12.6134 C   0  0  0  0  0  0  0  0  0  0  0  0
    0.0659    8.9739  -13.4797 C   0  0  0  0  0  0  0  0  0  0  0  0
  7  8  1  0  0  0
  8  9  2  0  0  0
  8 16  1  0  0  0
  9 10  1  0  0  0
 10 11  1  0  0  0
 10 14  2  0  0  0
 11 12  1  0  0  0
 12 13  2  0  0  0
 13 14  1  0  0  0
 13  1  1  0  0  0
 14 15  1  0  0  0
 15 16  2  0  0  0
  1  2  1  0  0  0
  1  5  1  0  0  0
  2  3  1  0  0  0
  3  4  1  0  0  0
  3 18  1  0  0  0
  4  5  1  0  0  0
  5  6  2  0  0  0
 18 19  2  0  0  0
 18 20  1  0  0  0
 20 22  1  0  0  0
 22 23  1  0  0  0
 23 24  1  0  0  0
 24 25  1  0  0  0
 24 29  1  0  0  0
 25 26  1  0  0  0
 26 27  1  0  0  0
 27 28  1  0  0  0
 28 29  1  0  0  0
 11 17  1  0  0  0
 20 21  1  0  0  0
M  END
> <minimizedAffinity>
-8.17204

$$$$
2432


 26 29  0  0  0  0  0  0  0  0999 V2000
   -0.2584    7.8905  -13.0869 C   0  0  0  0  0  0  0  0  0  0  0  0
   -0.3213    7.3835  -11.8696 O   0  0  0  0  0  0  0  0  0  0  0  0
    1.0053    8.1157  -13.6090 N   0  0  0  0  0  0  0  0  0  0  0  0
    2.1736    7.8135  -12.7470 C   0  0  0  0  0  0  0  0  0  0  0  0
    2.9043    9.1172  -12.5672 C   0  0  0  0  0  0  0  0  0  0  0  0
    2.3982   10.1992  -13.3510 N   0  0  0  0  0  0  0  0  0  0  0  0
    1.7915   10.0449  -14.6649 C   0  0  0  0  0  0  0  0  0  0  0  0
    1.3807    8.5972  -14.8864 C   0  0  0  0  0  0  0  0  0  0  0  0
    2.4704   11.5280  -12.8510 C   0  0  0  0  0  0  0  0  0  0  0  0
    3.5773   11.9794  -12.2319 N   0  0  0  0  0  0  0  0  0  0  0  0
    3.6625   13.2410  -11.7477 C   0  0  0  0  0  0  0  0  0  0  0  0
    2.6279   14.0894  -11.8753 N   0  0  0  0  0  0  0  0  0  0  0  0
    1.4887   13.7161  -12.4803 C   0  0  0  0  0  0  0  0  0  0  0  0
    0.3330   14.3580  -12.7327 N   0  0  0  0  0  0  0  0  0  0  0  0
   -0.4533   13.5074  -13.3614 N   0  0  0  0  0  0  0  0  0  0  0  0
    0.1672   12.3160  -13.5273 C   0  0  0  0  0  0  0  0  0  0  0  0
    1.4174   12.4091  -12.9748 C   0  0  0  0  0  0  0  0  0  0  0  0
   -0.0203   15.7360  -12.3897 C   0  0  0  0  0  0  0  0  0  0  0  0
   -4.8188    7.3456  -15.7237 Cl  0  0  0  0  0  0  0  0  0  0  0  0
   -3.5110    7.9536  -14.7318 C   0  0  0  0  0  0  0  0  0  0  0  0
   -2.3202    7.3578  -14.4448 N   0  0  0  0  0  0  0  0  0  0  0  0
   -1.5636    8.1174  -13.6511 C   0  0  0  0  0  0  0  0  0  0  0  0
   -2.3445    9.2603  -13.4359 C   0  0  0  0  0  0  0  0  0  0  0  0
   -3.5455    9.1661  -14.0983 C   0  0  0  0  0  0  0  0  0  0  0  0
   -4.8519   10.3306  -14.1386 Cl  0  0  0  0  0  0  0  0  0  0  0  0
   -2.1201    6.4251  -14.8577 H   0  0  0  0  0  0  0  0  0  0  0  0
 19 20  1  0  0  0
 20 21  1  0  0  0
 20 24  2  0  0  0
 21 22  1  0  0  0
 22 23  2  0  0  0
 22  1  1  0  0  0
 23 24  1  0  0  0
 24 25  1  0  0  0
  1  2  2  0  0  0
  1  3  1  0  0  0
  3  4  1  0  0  0
  3  8  1  0  0  0
  4  5  1  0  0  0
  5  6  1  0  0  0
  6  7  1  0  0  0
  6  9  1  0  0  0
  7  8  1  0  0  0
  9 10  2  0  0  0
  9 17  1  0  0  0
 10 11  1  0  0  0
 11 12  2  0  0  0
 12 13  1  0  0  0
 13 14  1  0  0  0
 13 17  2  0  0  0
 14 15  1  0  0  0
 14 18  1  0  0  0
 15 16  2  0  0  0
 16 17  1  0  0  0
 21 26  1  0  0  0
M  END
> <minimizedAffinity>
-8.23429

$$$$
2439


 30 34  0  0  0  0  0  0  0  0999 V2000
    1.6581    7.9466  -13.4850 C   0  0  0  0  0  0  0  0  0  0  0  0
    0.4982    7.2920  -13.9371 C   0  0  0  0  0  0  0  0  0  0  0  0
   -0.5337    8.1285  -13.8498 N   0  0  0  0  0  0  0  0  0  0  0  0
   -1.8708    8.2179  -14.0724 C   0  0  0  0  0  0  0  0  0  0  0  0
   -2.2427    9.4668  -13.7088 C   0  0  0  0  0  0  0  0  0  0  0  0
   -1.1405   10.0991  -13.2801 N   0  0  0  0  0  0  0  0  0  0  0  0
   -0.0682    9.2800  -13.3624 C   0  0  0  0  0  0  0  0  0  0  0  0
    1.2825    9.1842  -13.1327 N   0  0  0  0  0  0  0  0  0  0  0  0
   -3.5618    9.8693  -13.8198 C   0  0  0  0  0  0  0  0  0  0  0  0
   -4.5276    9.0018  -14.3037 C   0  0  0  0  0  0  0  0  0  0  0  0
   -4.1456    7.7202  -14.6771 C   0  0  0  0  0  0  0  0  0  0  0  0
   -2.8241    7.3544  -14.5537 C   0  0  0  0  0  0  0  0  0  0  0  0
   -1.1049   11.0878  -12.9190 H   0  0  0  0  0  0  0  0  0  0  0  0
    6.9810    4.7813  -13.1549 Br  0  0  0  0  0  0  0  0  0  0  0  0
    5.3595    5.7598  -13.2585 C   0  0  0  0  0  0  0  0  0  0  0  0
    4.1965    5.2818  -12.7289 C   0  0  0  0  0  0  0  0  0  0  0  0
    3.0342    6.0219  -12.8228 C   0  0  0  0  0  0  0  0  0  0  0  0
    2.9588    7.2691  -13.4418 C   0  0  0  0  0  0  0  0  0  0  0  0
    4.1245    7.7353  -13.9654 C   0  0  0  0  0  0  0  0  0  0  0  0
    5.3192    6.9808  -13.8733 C   0  0  0  0  0  0  0  0  0  0  0  0
    2.0725   10.2393  -12.5901 C   0  0  0  0  0  0  0  0  0  0  0  0
    2.3376   11.3975  -13.5174 C   0  0  0  0  0  0  0  0  0  0  0  0
    2.5190   12.7135  -12.9037 C   0  0  0  0  0  0  0  0  0  0  0  0
    1.5001   13.2438  -12.0463 N   0  0  0  0  0  0  0  0  0  0  0  0
    1.9606   14.3851  -11.2759 C   0  0  0  0  0  0  0  0  0  0  0  0
    1.8163   15.7018  -11.9123 C   0  0  0  0  0  0  0  0  0  0  0  0
    0.9847   15.7646  -13.1390 C   0  0  0  0  0  0  0  0  0  0  0  0
   -0.1362   14.7881  -13.0813 C   0  0  0  0  0  0  0  0  0  0  0  0
    0.2276   13.4161  -12.6518 C   0  0  0  0  0  0  0  0  0  0  0  0
    1.3807   12.5174  -11.3049 H   0  0  0  0  0  0  0  0  0  0  0  0
 14 15  1  0  0  0
 15 16  2  0  0  0
 15 20  1  0  0  0
 16 17  1  0  0  0
 17 18  2  0  0  0
 18 19  1  0  0  0
 18  1  1  0  0  0
 19 20  2  0  0  0
  1  2  2  0  0  0
  1  8  1  0  0  0
  2  3  1  0  0  0
  3  4  1  0  0  0
  3  7  1  0  0  0
  4  5  2  0  0  0
  4 12  1  0  0  0
  5  6  1  0  0  0
  5  9  1  0  0  0
  6  7  2  0  0  0
  7  8  1  0  0  0
  8 21  1  0  0  0
 21 22  1  0  0  0
 22 23  1  0  0  0
 23 24  1  0  0  0
 24 25  1  0  0  0
 24 29  1  0  0  0
 25 26  1  0  0  0
 26 27  1  0  0  0
 27 28  1  0  0  0
 28 29  1  0  0  0
  9 10  2  0  0  0
 10 11  1  0  0  0
 11 12  2  0  0  0
  6 13  1  0  0  0
 24 30  1  0  0  0
M  CHG 1  24   1
M  END
> <minimizedAffinity>
-9.04723

$$$$
2440


 33 36  0  0  0  0  0  0  0  0999 V2000
    4.5476   12.4931  -13.8458 Cl  0  0  0  0  0  0  0  0  0  0  0  0
    2.8744   12.5027  -13.2970 C   0  0  0  0  0  0  0  0  0  0  0  0
    2.0903   11.3829  -13.6116 C   0  0  0  0  0  0  0  0  0  0  0  0
    0.7911   11.3944  -13.1830 C   0  0  0  0  0  0  0  0  0  0  0  0
    0.2648   12.4843  -12.4580 C   0  0  0  0  0  0  0  0  0  0  0  0
    1.0414   13.5742  -12.1566 C   0  0  0  0  0  0  0  0  0  0  0  0
    2.3492   13.5571  -12.5902 C   0  0  0  0  0  0  0  0  0  0  0  0
    0.1661   10.1339  -13.6062 C   0  0  0  0  0  0  0  0  0  0  0  0
   -1.0501   10.2868  -14.3211 N   0  0  0  0  0  0  0  0  0  0  0  0
   -1.8973    9.1919  -14.1373 C   0  0  0  0  0  0  0  0  0  0  0  0
   -1.3676    8.4881  -12.9069 C   0  0  0  0  0  0  0  0  0  0  0  0
   -0.2168    9.2896  -12.3922 C   0  0  0  0  0  0  0  0  0  0  0  0
    0.8583    8.3374  -12.0085 C   0  0  0  0  0  0  0  0  0  0  0  0
    1.9240    8.6755  -11.4425 O   0  0  0  0  0  0  0  0  0  0  0  0
    0.4446    7.0277  -12.3999 N   0  0  0  0  0  0  0  0  0  0  0  0
   -0.7255    7.1914  -13.2150 C   0  0  0  0  0  0  0  0  0  0  0  0
   -1.1222    6.3594  -14.0463 O   0  0  0  0  0  0  0  0  0  0  0  0
    1.2050    9.4144  -14.3490 C   0  0  0  0  0  0  0  0  0  0  0  0
    1.1330    8.2895  -14.9350 O   0  0  0  0  0  0  0  0  0  0  0  0
    2.3875   10.1907  -14.3283 N   0  0  0  0  0  0  0  0  0  0  0  0
   -0.9714   10.6837  -15.2720 H   0  0  0  0  0  0  0  0  0  0  0  0
    3.3237    9.9726  -14.7439 H   0  0  0  0  0  0  0  0  0  0  0  0
    1.0460    5.7745  -12.0612 C   0  0  0  0  0  0  0  0  0  0  0  0
    2.4778    5.6165  -12.4283 C   0  0  0  0  0  0  0  0  0  0  0  0
    3.0224    4.2325  -12.4052 C   0  0  0  0  0  0  0  0  0  0  0  0
    4.3542    4.1348  -13.1407 C   0  0  0  0  0  0  0  0  0  0  0  0
   -3.3607    9.4053  -14.1049 C   0  0  0  0  0  0  0  0  0  0  0  0
   -4.1918    8.7252  -15.1179 C   0  0  0  0  0  0  0  0  0  0  0  0
   -4.2283    7.2593  -15.0925 C   0  0  0  0  0  0  0  0  0  0  0  0
   -5.0438    6.6586  -14.3683 O   0  0  0  0  0  0  0  0  0  0  0  0
   -3.3560    6.4501  -15.8771 N   0  0  0  0  0  0  0  0  0  0  0  0
   -3.4036    6.3930  -16.9098 H   0  0  0  0  0  0  0  0  0  0  0  0
   -2.6346    5.8887  -15.3941 H   0  0  0  0  0  0  0  0  0  0  0  0
  1  2  1  0  0  0
  2  3  2  0  0  0
  2  7  1  0  0  0
  3  4  1  0  0  0
  3 20  1  0  0  0
  4  5  2  0  0  0
  4  8  1  0  0  0
  5  6  1  0  0  0
  6  7  2  0  0  0
  8  9  1  0  0  0
  8 12  1  0  0  0
  8 18  1  0  0  0
  9 10  1  0  0  0
 10 11  1  0  0  0
 10 27  1  0  0  0
 11 12  1  0  0  0
 11 16  1  0  0  0
 12 13  1  0  0  0
 13 14  2  0  0  0
 13 15  1  0  0  0
 15 16  1  0  0  0
 15 23  1  0  0  0
 16 17  2  0  0  0
 23 24  1  0  0  0
 24 25  1  0  0  0
 25 26  1  0  0  0
 27 28  1  0  0  0
 28 29  1  0  0  0
 29 30  2  0  0  0
 29 31  1  0  0  0
 18 19  2  0  0  0
 18 20  1  0  0  0
  9 21  1  0  0  0
 31 32  1  0  0  0
 31 33  1  0  0  0
 20 22  1  0  0  0
M  END
> <minimizedAffinity>
-6.66595

$$$$
2447


 33 36  0  0  0  0  0  0  0  0999 V2000
   -3.7686    9.2493  -14.0312 C   0  0  0  0  0  0  0  0  0  0  0  0
   -3.4289    9.9838  -12.7782 C   0  0  0  0  0  0  0  0  0  0  0  0
   -4.2760   10.2246  -11.8853 O   0  0  0  0  0  0  0  0  0  0  0  0
   -2.0940   10.3717  -12.6988 O   0  0  0  0  0  0  0  0  0  0  0  0
   -1.0465    9.7091  -13.3038 C   0  0  0  0  0  0  0  0  0  0  0  0
   -1.3330    8.6035  -14.0254 C   0  0  0  0  0  0  0  0  0  0  0  0
   -2.7126    8.1779  -14.1202 C   0  0  0  0  0  0  0  0  0  0  0  0
   -3.0362    6.9872  -14.2659 O   0  0  0  0  0  0  0  0  0  0  0  0
   -5.1386    8.6696  -14.0199 C   0  0  0  0  0  0  0  0  0  0  0  0
   -8.5614   10.7045  -15.0966 N   0  0  0  0  0  0  0  0  0  0  0  0
   -7.7922   10.7304  -13.8981 C   0  0  0  0  0  0  0  0  0  0  0  0
   -6.3216   10.7638  -14.2653 C   0  0  0  0  0  0  0  0  0  0  0  0
   -5.9903    9.4756  -14.8220 N   0  0  0  0  0  0  0  0  0  0  0  0
   -7.0361    8.8314  -15.5259 C   0  0  0  0  0  0  0  0  0  0  0  0
   -7.9469    9.9114  -16.1116 C   0  0  0  0  0  0  0  0  0  0  0  0
   -9.1266   12.2218  -15.6121 S   0  0  0  0  0  0  0  0  0  0  0  0
   -8.9752   13.3049  -14.5656 O   0  0  0  0  0  0  0  0  0  0  0  0
   -8.2740   12.6644  -16.7938 O   0  0  0  0  0  0  0  0  0  0  0  0
  -10.7945   12.2114  -16.1525 C   0  0  0  0  0  0  0  0  0  0  0  0
   -0.2704    7.8330  -14.6856 C   0  0  0  0  0  0  0  0  0  0  0  0
    1.0414    8.1701  -14.3130 N   0  0  0  0  0  0  0  0  0  0  0  0
    1.4129    8.2525  -12.9656 C   0  0  0  0  0  0  0  0  0  0  0  0
    2.6760    9.1290  -12.8076 C   0  0  0  0  0  0  0  0  0  0  0  0
    2.4007   10.3162  -13.5756 N   0  0  0  0  0  0  0  0  0  0  0  0
    2.3740   10.1057  -15.0159 C   0  0  0  0  0  0  0  0  0  0  0  0
    1.9165    8.6823  -15.3038 C   0  0  0  0  0  0  0  0  0  0  0  0
    2.1646   11.5714  -12.9816 C   0  0  0  0  0  0  0  0  0  0  0  0
    1.0406   12.3305  -13.2158 C   0  0  0  0  0  0  0  0  0  0  0  0
    0.8594   13.5495  -12.6051 C   0  0  0  0  0  0  0  0  0  0  0  0
    1.7817   14.0775  -11.7323 C   0  0  0  0  0  0  0  0  0  0  0  0
    2.9121   13.3447  -11.4788 C   0  0  0  0  0  0  0  0  0  0  0  0
    3.0985   12.1150  -12.0932 C   0  0  0  0  0  0  0  0  0  0  0  0
   -0.5849   14.4647  -12.9432 Cl  0  0  0  0  0  0  0  0  0  0  0  0
 16 17  2  0  0  0
 16 18  2  0  0  0
 16 10  1  0  0  0
 16 19  1  0  0  0
 10 11  1  0  0  0
 10 15  1  0  0  0
 11 12  1  0  0  0
 12 13  1  0  0  0
 13 14  1  0  0  0
 13  9  1  0  0  0
 14 15  1  0  0  0
  9  1  1  0  0  0
  1  2  1  0  0  0
  1  7  1  0  0  0
  2  3  2  0  0  0
  2  4  1  0  0  0
  4  5  1  0  0  0
  5  6  2  0  0  0
  6  7  1  0  0  0
  6 20  1  0  0  0
  7  8  2  0  0  0
 20 21  1  0  0  0
 21 22  1  0  0  0
 21 26  1  0  0  0
 22 23  1  0  0  0
 23 24  1  0  0  0
 24 25  1  0  0  0
 24 27  1  0  0  0
 25 26  1  0  0  0
 27 28  2  0  0  0
 27 32  1  0  0  0
 28 29  1  0  0  0
 29 30  2  0  0  0
 29 33  1  0  0  0
 30 31  1  0  0  0
 31 32  2  0  0  0
M  END
> <minimizedAffinity>
-7.41734

$$$$
