MODEL 1
REMARK VINA RESULT:    -8.923      0.000      0.000
REMARK INTER + INTRA:         -14.159
REMARK INTER:                 -12.575
REMARK INTRA:                  -1.584
REMARK UNBOUND:                -1.584
REMARK  8 active torsions:
REMARK  status: ('A' for Active; 'I' for Inactive)
REMARK    1  A    between atoms: C_6  and  C_9 
REMARK    2  A    between atoms: C_7  and  O_8 
REMARK    3  A    between atoms: N_10  and  N_11 
REMARK       I    between atoms: N_11  and  C_12 
REMARK    4  A    between atoms: C_12  and  C_14 
REMARK    5  A    between atoms: N_17  and  C_26 
REMARK    6  A    between atoms: C_18  and  C_19 
REMARK    7  A    between atoms: C_19  and  N_20 
REMARK    8  A    between atoms: C_30  and  N_31 
ROOT
ATOM      1  C   UNK d   1      16.724 -55.035  37.867  0.00  0.00     0.162 A 
ATOM      2  N   UNK d   1      17.376 -54.267  38.809  0.00  0.00    -0.125 NA
ATOM      3  N   UNK d   1      18.300 -53.595  38.201  0.00  0.00    -0.058 NA
ATOM      4  N   UNK d   1      18.279 -53.899  36.873  0.00  0.00    -0.191 N 
ATOM      5  C   UNK d   1      17.315 -54.786  36.636  0.00  0.00     0.101 A 
ENDROOT
BRANCH   1   6
ATOM      6  C   UNK d   1      15.624 -55.907  38.203  0.00  0.00     0.228 C 
ATOM      7  N   UNK d   1      15.461 -57.281  37.994  0.00  0.00    -0.253 N 
ATOM      8  H   UNK d   1      16.133 -57.892  37.560  0.00  0.00     0.191 HD
ATOM      9  O   UNK d   1      14.629 -55.307  38.798  0.00  0.00    -0.168 OA
BRANCH   7  10
ATOM     10  N   UNK d   1      14.225 -57.855  38.453  0.00  0.00    -0.184 NA
ATOM     11  C   UNK d   1      13.853 -59.008  38.039  0.00  0.00     0.153 C 
BRANCH  11  12
ATOM     12  C   UNK d   1      12.600 -59.636  38.478  0.00  0.00     0.019 A 
ATOM     13  C   UNK d   1      11.883 -59.179  39.565  0.00  0.00     0.038 A 
ATOM     14  C   UNK d   1      10.702 -59.777  39.972  0.00  0.00     0.049 A 
ATOM     15  C   UNK d   1      10.197 -60.865  39.294  0.00  0.00     0.144 A 
ATOM     16 Br   UNK d   1       9.710 -59.141  41.478  0.00  0.00    -0.048 Br
ATOM     17  C   UNK d   1      10.912 -61.327  38.206  0.00  0.00     0.082 A 
ATOM     18  O   UNK d   1       9.011 -61.493  39.677  0.00  0.00    -0.189 OA
ATOM     19 Br   UNK d   1      10.234 -62.843  37.242  0.00  0.00    -0.045 Br
ATOM     20  C   UNK d   1      12.088 -60.726  37.805  0.00  0.00     0.097 A 
BRANCH  20  21
ATOM     21  O   UNK d   1      12.822 -61.190  36.698  0.00  0.00    -0.358 OA
ATOM     22  H   UNK d   1      12.397 -61.178  35.783  0.00  0.00     0.217 HD
ENDBRANCH  20  21
ENDBRANCH  11  12
ENDBRANCH   7  10
ENDBRANCH   1   6
BRANCH   5  23
ATOM     23  C   UNK d   1      16.916 -55.397  35.368  0.00  0.00     0.296 C 
BRANCH  23  24
ATOM     24  N   UNK d   1      17.770 -56.334  34.741  0.00  0.00    -0.062 N 
ATOM     25  C   UNK d   1      17.839 -56.177  33.296  0.00  0.00     0.261 C 
ATOM     26  C   UNK d   1      16.492 -56.142  32.694  0.00  0.00     0.195 C 
ATOM     27  O   UNK d   1      15.491 -56.847  33.225  0.00  0.00    -0.388 OA
ATOM     28  C   UNK d   1      15.698 -57.558  34.362  0.00  0.00     0.195 C 
ATOM     29  C   UNK d   1      17.085 -57.664  34.850  0.00  0.00     0.261 C 
ATOM     30  H   UNK d   1      18.676 -56.408  35.179  0.00  0.00     0.280 HD
ENDBRANCH  23  24
ENDBRANCH   5  23
BRANCH   4  31
ATOM     31  C   UNK d   1      19.222 -53.280  35.995  0.00  0.00     0.229 A 
ATOM     32  N   UNK d   1      19.951 -53.761  34.996  0.00  0.00    -0.081 NA
ATOM     33  O   UNK d   1      20.624 -52.779  34.495  0.00  0.00    -0.103 OA
ATOM     34  N   UNK d   1      20.381 -51.664  35.111  0.00  0.00    -0.083 NA
ATOM     35  C   UNK d   1      19.501 -51.906  36.073  0.00  0.00     0.201 A 
BRANCH  35  36
ATOM     36  N   UNK d   1      18.925 -51.014  37.013  0.00  0.00    -0.379 N 
ATOM     37  H   UNK d   1      18.103 -51.322  37.574  0.00  0.00     0.158 HD
ATOM     38  H   UNK d   1      19.298 -50.034  37.173  0.00  0.00     0.158 HD
ENDBRANCH  35  36
ENDBRANCH   4  31
TORSDOF 8
ENDMDL
