/Users/jonathanwahrer/Desktop/Msc/3_Semester/Drug_Design_Praktikum/waehrer_HTS_screening/HTS_experiment/out/docking_results/vina_output/6s1j/0003_docked.pdbqt
 OpenBabel03162215473D

 38 41  0  0  0  0  0  0  0  0999 V2000
   16.6090  -55.0090   38.0870 C   0  0  0  0  0  0  0  0  0  0  0  0
   17.3250  -54.2980   39.0180 N   0  0  0  0  0  0  0  0  0  0  0  0
   18.2730  -53.6330   38.4200 N   0  0  0  0  0  0  0  0  0  0  0  0
   18.2590  -53.8390   37.1150 N   0  0  0  0  0  0  0  0  0  0  0  0
   17.2430  -54.6870   36.8820 C   0  0  0  0  0  0  0  0  0  0  0  0
   15.4800  -55.8710   38.3790 C   0  0  0  0  0  0  0  0  0  0  0  0
   15.3730  -57.2480   38.2430 N   0  0  0  0  0  0  0  0  0  0  0  0
   16.1060  -57.9110   37.8950 H   0  0  0  0  0  0  0  0  0  0  0  0
   14.4400  -55.2540   38.8250 O   0  0  0  0  0  0  0  0  0  0  0  0
   14.1220  -57.8480   38.6130 N   0  0  0  0  0  0  0  0  0  0  0  0
   13.7570  -58.9400   38.0410 C   0  0  0  0  0  3  0  0  0  0  0  0
   12.5120  -59.6300   38.3420 C   0  0  0  0  0  0  0  0  0  0  0  0
   11.7120  -59.2300   39.3790 C   0  0  0  0  0  3  0  0  0  0  0  0
   10.5180  -59.8770   39.6820 C   0  0  0  0  0  0  0  0  0  0  0  0
   10.1110  -60.9660   38.9160 C   0  0  0  0  0  0  0  0  0  0  0  0
    9.4420  -59.2900   41.1280 Br  0  0  0  0  0  0  0  0  0  0  0  0
   10.9020  -61.3700   37.8810 C   0  0  0  0  0  0  0  0  0  0  0  0
   10.3840  -62.8460   36.8120 Br  0  0  0  0  0  0  0  0  0  0  0  0
   12.0970  -60.7080   37.5920 C   0  0  0  0  0  0  0  0  0  0  0  0
    8.9180  -61.5960   39.2350 O   0  0  0  0  0  0  0  0  0  0  0  0
    8.8920  -62.5780   39.4560 H   0  0  0  0  0  0  0  0  0  0  0  0
   12.9140  -61.1040   36.5450 O   0  0  0  0  0  0  0  0  0  0  0  0
   13.7510  -61.6440   36.7280 H   0  0  0  0  0  0  0  0  0  0  0  0
   16.7990  -55.1930   35.5800 C   0  0  0  0  0  2  0  0  0  0  0  0
   17.2500  -56.5530   35.2750 N   0  0  0  0  0  0  0  0  0  0  0  0
   18.1220  -56.5010   34.0850 C   0  0  0  0  0  2  0  0  0  0  0  0
   17.4830  -55.6720   33.0270 C   0  0  0  0  0  2  0  0  0  0  0  0
   16.2180  -56.1420   32.7730 O   0  0  0  0  0  0  0  0  0  0  0  0
   15.9280  -57.3390   33.3720 C   0  0  0  0  0  2  0  0  0  0  0  0
   16.0660  -57.3490   34.8720 C   0  0  0  0  0  2  0  0  0  0  0  0
   19.1530  -53.2230   36.2050 C   0  0  0  0  0  0  0  0  0  0  0  0
   19.8840  -53.7760   35.2140 N   0  0  0  0  0  0  0  0  0  0  0  0
   20.5720  -52.8490   34.6010 O   0  0  0  0  0  0  0  0  0  0  0  0
   20.3370  -51.6780   35.1370 N   0  0  0  0  0  0  0  0  0  0  0  0
   19.4600  -51.8730   36.1350 C   0  0  0  0  0  0  0  0  0  0  0  0
   18.9550  -50.8440   36.9600 N   0  0  0  0  0  0  0  0  0  0  0  0
   19.6160  -50.1570   37.3650 H   0  0  0  0  0  0  0  0  0  0  0  0
   17.9470  -50.7480   37.1780 H   0  0  0  0  0  0  0  0  0  0  0  0
  1  6  1  0  0  0  0
  1  2  1  0  0  0  0
  3  2  2  0  0  0  0
  4  3  1  0  0  0  0
  5  4  1  0  0  0  0
  5  1  2  0  0  0  0
  6  9  2  0  0  0  0
  7  6  1  0  0  0  0
  7 10  1  0  0  0  0
  8  7  1  0  0  0  0
 11 12  1  0  0  0  0
 11 10  2  0  0  0  0
 12 13  1  0  0  0  0
 13 14  2  0  0  0  0
 14 16  1  0  0  0  0
 15 20  1  0  0  0  0
 15 14  1  0  0  0  0
 17 15  2  0  0  0  0
 18 17  1  0  0  0  0
 19 17  1  0  0  0  0
 19 12  2  0  0  0  0
 20 21  1  0  0  0  0
 22 23  1  0  0  0  0
 22 19  1  0  0  0  0
 24  5  1  0  0  0  0
 25 24  1  0  0  0  0
 26 25  1  0  0  0  0
 27 26  1  0  0  0  0
 28 27  1  0  0  0  0
 28 29  1  0  0  0  0
 29 30  1  0  0  0  0
 30 25  1  0  0  0  0
 31  4  1  0  0  0  0
 32 31  2  0  0  0  0
 33 34  1  0  0  0  0
 33 32  1  0  0  0  0
 34 35  2  0  0  0  0
 35 31  1  0  0  0  0
 35 36  1  0  0  0  0
 36 38  1  0  0  0  0
 36 37  1  0  0  0  0
M  END
>  <Pose>
1

>  <Score>
-8.610

$$$$
