MODEL 1
REMARK VINA RESULT:    -8.610      0.000      0.000
REMARK INTER + INTRA:         -13.780
REMARK INTER:                 -12.385
REMARK INTRA:                  -1.395
REMARK UNBOUND:                -1.395
REMARK  9 active torsions:
REMARK  status: ('A' for Active; 'I' for Inactive)
REMARK    1  A    between atoms: C_3  and  O_33 
REMARK    2  A    between atoms: C_6  and  C_9 
REMARK    3  A    between atoms: C_7  and  O_8 
REMARK    4  A    between atoms: N_10  and  N_11 
REMARK       I    between atoms: N_11  and  C_12 
REMARK    5  A    between atoms: C_12  and  C_14 
REMARK    6  A    between atoms: N_17  and  C_26 
REMARK    7  A    between atoms: C_18  and  C_19 
REMARK    8  A    between atoms: C_19  and  N_20 
REMARK    9  A    between atoms: C_30  and  N_31 
ROOT
ATOM      1  C   UNK d   1      16.609 -55.009  38.087  0.00  0.00     0.176 A 
ATOM      2  N   UNK d   1      17.325 -54.298  39.018  0.00  0.00    -0.124 NA
ATOM      3  N   UNK d   1      18.273 -53.633  38.420  0.00  0.00    -0.058 NA
ATOM      4  N   UNK d   1      18.259 -53.839  37.115  0.00  0.00    -0.191 N 
ATOM      5  C   UNK d   1      17.243 -54.687  36.882  0.00  0.00     0.104 A 
ENDROOT
BRANCH   1   6
ATOM      6  C   UNK d   1      15.480 -55.871  38.379  0.00  0.00     0.294 C 
ATOM      7  N   UNK d   1      15.373 -57.248  38.243  0.00  0.00    -0.242 N 
ATOM      8  H   UNK d   1      16.106 -57.911  37.895  0.00  0.00     0.192 HD
ATOM      9  O   UNK d   1      14.440 -55.254  38.825  0.00  0.00    -0.264 OA
BRANCH   7  10
ATOM     10  N   UNK d   1      14.122 -57.848  38.613  0.00  0.00    -0.183 NA
ATOM     11  C   UNK d   1      13.757 -58.940  38.041  0.00  0.00     0.153 C 
BRANCH  11  12
ATOM     12  C   UNK d   1      12.512 -59.630  38.342  0.00  0.00     0.019 A 
ATOM     13  C   UNK d   1      11.712 -59.230  39.379  0.00  0.00     0.038 A 
ATOM     14  C   UNK d   1      10.518 -59.877  39.682  0.00  0.00     0.046 A 
ATOM     15  C   UNK d   1      10.111 -60.966  38.916  0.00  0.00     0.103 A 
ATOM     16 Br   UNK d   1       9.442 -59.290  41.128  0.00  0.00    -0.048 Br
ATOM     17  C   UNK d   1      10.902 -61.370  37.881  0.00  0.00     0.079 A 
ATOM     18 Br   UNK d   1      10.384 -62.846  36.812  0.00  0.00    -0.045 Br
ATOM     19  C   UNK d   1      12.097 -60.708  37.592  0.00  0.00     0.097 A 
BRANCH  15  20
ATOM     20  O   UNK d   1       8.918 -61.596  39.235  0.00  0.00    -0.358 OA
ATOM     21  H   UNK d   1       8.892 -62.578  39.456  0.00  0.00     0.217 HD
ENDBRANCH  15  20
BRANCH  19  22
ATOM     22  O   UNK d   1      12.914 -61.104  36.545  0.00  0.00    -0.358 OA
ATOM     23  H   UNK d   1      13.751 -61.644  36.728  0.00  0.00     0.217 HD
ENDBRANCH  19  22
ENDBRANCH  11  12
ENDBRANCH   7  10
ENDBRANCH   1   6
BRANCH   5  24
ATOM     24  C   UNK d   1      16.799 -55.193  35.580  0.00  0.00     0.334 C 
BRANCH  24  25
ATOM     25  N   UNK d   1      17.250 -56.553  35.275  0.00  0.00     0.098 N 
ATOM     26  C   UNK d   1      18.122 -56.501  34.085  0.00  0.00     0.299 C 
ATOM     27  C   UNK d   1      17.483 -55.672  33.027  0.00  0.00     0.198 C 
ATOM     28  O   UNK d   1      16.218 -56.142  32.773  0.00  0.00    -0.388 OA
ATOM     29  C   UNK d   1      15.928 -57.339  33.372  0.00  0.00     0.198 C 
ATOM     30  C   UNK d   1      16.066 -57.349  34.872  0.00  0.00     0.299 C 
ENDBRANCH  24  25
ENDBRANCH   5  24
BRANCH   4  31
ATOM     31  C   UNK d   1      19.153 -53.223  36.205  0.00  0.00     0.229 A 
ATOM     32  N   UNK d   1      19.884 -53.776  35.214  0.00  0.00    -0.081 NA
ATOM     33  O   UNK d   1      20.572 -52.849  34.601  0.00  0.00    -0.103 OA
ATOM     34  N   UNK d   1      20.337 -51.678  35.137  0.00  0.00    -0.083 NA
ATOM     35  C   UNK d   1      19.460 -51.873  36.135  0.00  0.00     0.201 A 
BRANCH  35  36
ATOM     36  N   UNK d   1      18.955 -50.844  36.960  0.00  0.00    -0.379 N 
ATOM     37  H   UNK d   1      19.616 -50.157  37.365  0.00  0.00     0.158 HD
ATOM     38  H   UNK d   1      17.947 -50.748  37.178  0.00  0.00     0.158 HD
ENDBRANCH  35  36
ENDBRANCH   4  31
TORSDOF 9
ENDMDL
