/Users/jonathanwahrer/Desktop/Msc/3_Semester/Drug_Design_Praktikum/waehrer_HTS_screening/HTS_experiment/out/docking_results/vina_output/6s1j/0004_docked.pdbqt
 OpenBabel03222220543D

 34 37  0  0  0  0  0  0  0  0999 V2000
   14.1600  -58.1500   35.2710 C   0  0  0  0  0  0  0  0  0  0  0  0
   14.8610  -57.2820   35.9960 N   0  0  0  0  0  4  0  0  0  0  0  0
   14.6960  -57.1470   37.3440 C   0  0  0  0  0  0  0  0  0  0  0  0
   13.7870  -57.9400   37.9050 N   0  0  0  0  0  0  0  0  0  0  0  0
   13.0340  -58.8490   37.2440 C   0  0  0  0  0  0  0  0  0  0  0  0
   13.2620  -58.9180   35.8980 N   0  0  0  0  0  2  0  0  0  0  0  0
   14.3620  -58.2600   33.8670 N   0  0  0  0  0  0  0  0  0  0  0  0
   13.6740  -58.6480   33.2130 H   0  0  0  0  0  0  0  0  0  0  0  0
   15.5770  -57.8130   33.3120 N   0  0  0  0  0  0  0  0  0  0  0  0
   15.8500  -56.5820   33.1310 C   0  0  0  0  0  3  0  0  0  0  0  0
   17.0950  -56.0960   32.5610 C   0  0  0  0  0  0  0  0  0  0  0  0
   17.9070  -55.2650   33.2950 C   0  0  0  0  0  3  0  0  0  0  0  0
   19.0980  -54.7890   32.7750 C   0  0  0  0  0  0  0  0  0  0  0  0
   19.5150  -55.1270   31.5070 C   0  0  0  0  0  0  0  0  0  0  0  0
   20.2110  -53.6320   33.8190 Br  0  0  0  0  0  0  0  0  0  0  0  0
   18.7060  -55.9620   30.7620 C   0  0  0  0  0  0  0  0  0  0  0  0
   19.2900  -56.4270   29.0030 Br  0  0  0  0  0  0  0  0  0  0  0  0
   17.5140  -56.4340   31.2910 C   0  0  0  0  0  0  0  0  0  0  0  0
   20.7110  -54.6580   30.9670 O   0  0  0  0  0  0  0  0  0  0  0  0
   20.7470  -53.7330   30.5730 H   0  0  0  0  0  0  0  0  0  0  0  0
   16.7180  -57.2640   30.5380 O   0  0  0  0  0  0  0  0  0  0  0  0
   15.7250  -57.3840   30.7640 H   0  0  0  0  0  0  0  0  0  0  0  0
   15.4500  -56.2200   38.0950 N   0  0  0  0  0  0  0  0  0  0  0  0
   14.9630  -55.7470   39.3610 C   0  0  0  0  0  2  0  0  0  0  0  0
   15.1240  -54.2350   39.3690 C   0  0  0  0  0  2  0  0  0  0  0  0
   16.3810  -53.8430   38.9260 O   0  0  0  0  0  0  0  0  0  0  0  0
   16.6470  -54.2150   37.6280 C   0  0  0  0  0  2  0  0  0  0  0  0
   16.7080  -55.7480   37.5920 C   0  0  0  0  0  2  0  0  0  0  0  0
   12.0830  -59.6670   37.8810 N   0  0  0  0  0  0  0  0  0  0  0  0
   10.8000  -59.8920   37.2920 C   0  0  0  0  0  2  0  0  0  0  0  0
    9.7510  -59.5880   38.3660 C   0  0  0  0  0  2  0  0  0  0  0  0
   10.3240  -59.1220   39.5300 O   0  0  0  0  0  0  0  0  0  0  0  0
   11.2470  -59.9700   40.0890 C   0  0  0  0  0  2  0  0  0  0  0  0
   12.3900  -60.2870   39.1330 C   0  0  0  0  0  2  0  0  0  0  0  0
  1  6  1  0  0  0  0
  1  2  2  0  0  0  0
  2  3  2  0  0  0  0
  3  4  1  0  0  0  0
  3 23  1  0  0  0  0
  5 29  1  0  0  0  0
  5  4  2  0  0  0  0
  6  5  1  0  0  0  0
  7  1  1  0  0  0  0
  8  7  1  0  0  0  0
  9  7  1  0  0  0  0
 10  9  2  0  0  0  0
 11 10  1  0  0  0  0
 11 12  1  0  0  0  0
 13 12  2  0  0  0  0
 13 15  1  0  0  0  0
 14 13  1  0  0  0  0
 16 18  1  0  0  0  0
 16 14  2  0  0  0  0
 17 16  1  0  0  0  0
 18 11  2  0  0  0  0
 19 14  1  0  0  0  0
 20 19  1  0  0  0  0
 21 22  1  0  0  0  0
 21 18  1  0  0  0  0
 23 24  1  0  0  0  0
 24 25  1  0  0  0  0
 26 25  1  0  0  0  0
 27 26  1  0  0  0  0
 28 27  1  0  0  0  0
 28 23  1  0  0  0  0
 29 34  1  0  0  0  0
 30 29  1  0  0  0  0
 30 31  1  0  0  0  0
 31 32  1  0  0  0  0
 32 33  1  0  0  0  0
 34 33  1  0  0  0  0
M  END
>  <Pose>
1

>  <Score>
-8.876

$$$$
