MODEL 1
REMARK VINA RESULT:    -8.876      0.000      0.000
REMARK INTER + INTRA:         -12.898
REMARK INTER:                 -11.990
REMARK INTRA:                  -0.908
REMARK UNBOUND:                -0.908
REMARK  7 active torsions:
REMARK  status: ('A' for Active; 'I' for Inactive)
REMARK    1  A    between atoms: C_3  and  O_31 
REMARK    2  A    between atoms: C_6  and  C_9 
REMARK    3  A    between atoms: C_7  and  O_8 
REMARK    4  A    between atoms: N_10  and  N_11 
REMARK    5  A    between atoms: N_11  and  C_12 
REMARK    6  A    between atoms: C_14  and  N_24 
REMARK    7  A    between atoms: C_16  and  N_18 
ROOT
ATOM      1  C   UNK d   1      14.160 -58.150  35.271  0.00  0.00     0.774 A 
ATOM      2  N   UNK d   1      14.861 -57.282  35.996  0.00  0.00     0.133 NA
ATOM      3  C   UNK d   1      14.696 -57.147  37.344  0.00  0.00     0.756 A 
ATOM      4  N   UNK d   1      13.787 -57.940  37.905  0.00  0.00     0.131 NA
ATOM      5  C   UNK d   1      13.034 -58.849  37.244  0.00  0.00     0.756 A 
ATOM      6  N   UNK d   1      13.262 -58.918  35.898  0.00  0.00     0.133 NA
ENDROOT
BRANCH   1   7
ATOM      7  N   UNK d   1      14.362 -58.260  33.867  0.00  0.00    -0.105 N 
ATOM      8  H   UNK d   1      13.674 -58.648  33.213  0.00  0.00     0.208 HD
BRANCH   7   9
ATOM      9  N   UNK d   1      15.577 -57.813  33.312  0.00  0.00    -0.171 NA
ATOM     10  C   UNK d   1      15.850 -56.582  33.131  0.00  0.00     0.153 C 
BRANCH  10  11
ATOM     11  C   UNK d   1      17.095 -56.096  32.561  0.00  0.00     0.019 A 
ATOM     12  C   UNK d   1      17.907 -55.265  33.295  0.00  0.00     0.038 A 
ATOM     13  C   UNK d   1      19.098 -54.789  32.775  0.00  0.00     0.046 A 
ATOM     14  C   UNK d   1      19.515 -55.127  31.507  0.00  0.00     0.103 A 
ATOM     15 Br   UNK d   1      20.211 -53.632  33.819  0.00  0.00    -0.048 Br
ATOM     16  C   UNK d   1      18.706 -55.962  30.762  0.00  0.00     0.079 A 
ATOM     17 Br   UNK d   1      19.290 -56.427  29.003  0.00  0.00    -0.045 Br
ATOM     18  C   UNK d   1      17.514 -56.434  31.291  0.00  0.00     0.097 A 
BRANCH  14  19
ATOM     19  O   UNK d   1      20.711 -54.658  30.967  0.00  0.00    -0.358 OA
ATOM     20  H   UNK d   1      20.747 -53.733  30.573  0.00  0.00     0.217 HD
ENDBRANCH  14  19
BRANCH  18  21
ATOM     21  O   UNK d   1      16.718 -57.264  30.538  0.00  0.00    -0.358 OA
ATOM     22  H   UNK d   1      15.725 -57.384  30.764  0.00  0.00     0.217 HD
ENDBRANCH  18  21
ENDBRANCH  10  11
ENDBRANCH   7   9
ENDBRANCH   1   7
BRANCH   3  23
ATOM     23  N   UNK d   1      15.450 -56.220  38.095  0.00  0.00    -0.209 N 
ATOM     24  C   UNK d   1      14.963 -55.747  39.361  0.00  0.00     0.167 C 
ATOM     25  C   UNK d   1      15.124 -54.235  39.369  0.00  0.00     0.188 C 
ATOM     26  O   UNK d   1      16.381 -53.843  38.926  0.00  0.00    -0.388 OA
ATOM     27  C   UNK d   1      16.647 -54.215  37.628  0.00  0.00     0.188 C 
ATOM     28  C   UNK d   1      16.708 -55.748  37.592  0.00  0.00     0.167 C 
ENDBRANCH   3  23
BRANCH   5  29
ATOM     29  N   UNK d   1      12.083 -59.667  37.881  0.00  0.00    -0.209 N 
ATOM     30  C   UNK d   1      10.800 -59.892  37.292  0.00  0.00     0.167 C 
ATOM     31  C   UNK d   1       9.751 -59.588  38.366  0.00  0.00     0.188 C 
ATOM     32  O   UNK d   1      10.324 -59.122  39.530  0.00  0.00    -0.388 OA
ATOM     33  C   UNK d   1      11.247 -59.970  40.089  0.00  0.00     0.188 C 
ATOM     34  C   UNK d   1      12.390 -60.287  39.133  0.00  0.00     0.167 C 
ENDBRANCH   5  29
TORSDOF 7
ENDMDL
