MODEL 1
REMARK VINA RESULT:    -8.201      0.000      0.000
REMARK INTER + INTRA:         -13.968
REMARK INTER:                 -12.516
REMARK INTRA:                  -1.452
REMARK UNBOUND:                -1.452
REMARK  10 active torsions:
REMARK  status: ('A' for Active; 'I' for Inactive)
REMARK    1  A    between atoms: C_3  and  O_10 
REMARK    2  A    between atoms: O_10  and  C_11 
REMARK    3  A    between atoms: C_11  and  C_12 
REMARK    4  A    between atoms: C_12  and  O_13 
REMARK    5  A    between atoms: C_12  and  C_14 
REMARK    6  A    between atoms: C_14  and  N_15 
REMARK    7  A    between atoms: C_19  and  N_20 
REMARK    8  A    between atoms: N_23  and  C_26 
REMARK    9  A    between atoms: C_26  and  C_27 
REMARK   10  A    between atoms: C_27  and  O_28 
ROOT
ATOM      1  N   UNK d   1      13.867 -58.641  36.592  0.00  0.00    -0.171 N 
ATOM      2  C   UNK d   1      12.875 -59.477  37.001  0.00  0.00     0.154 A 
ATOM      3  C   UNK d   1      12.485 -59.137  38.269  0.00  0.00     0.184 A 
ATOM      4  N   UNK d   1      13.239 -58.109  38.601  0.00  0.00    -0.044 NA
ATOM      5  C   UNK d   1      14.095 -57.775  37.597  0.00  0.00     0.707 A 
ATOM      6  N   UNK d   1      11.495 -59.772  38.969  0.00  0.00    -0.284 N 
ATOM      7  C   UNK d   1      10.880 -60.786  38.348  0.00  0.00     0.352 A 
ATOM      8  O   UNK d   1       9.967 -61.371  38.997  0.00  0.00    -0.244 OA
ATOM      9  N   UNK d   1      11.224 -61.157  37.100  0.00  0.00    -0.164 NA
ATOM     10  C   UNK d   1      12.194 -60.544  36.402  0.00  0.00     0.236 A 
ATOM     11  O   UNK d   1      12.521 -60.939  35.126  0.00  0.00    -0.167 OA
ATOM     12  C   UNK d   1      11.170 -59.329  40.318  0.00  0.00     0.163 C 
ENDROOT
BRANCH   1  13
ATOM     13  C   UNK d   1      14.523 -58.686  35.334  0.00  0.00     0.182 C 
BRANCH  13  14
ATOM     14  C   UNK d   1      14.144 -57.828  34.223  0.00  0.00     0.161 C 
BRANCH  14  15
ATOM     15  C   UNK d   1      15.050 -56.943  33.478  0.00  0.00     0.209 C 
BRANCH  15  16
ATOM     16  O   UNK d   1      16.408 -57.314  33.702  0.00  0.00    -0.346 OA
BRANCH  16  17
ATOM     17  C   UNK d   1      17.400 -57.323  32.784  0.00  0.00     0.103 A 
ATOM     18  C   UNK d   1      18.260 -56.217  32.698  0.00  0.00     0.047 A 
ATOM     19 Br   UNK d   1      17.959 -54.763  33.905  0.00  0.00    -0.048 Br
ATOM     20  C   UNK d   1      19.283 -56.171  31.785  0.00  0.00     0.041 A 
ATOM     21  C   UNK d   1      19.496 -57.221  30.918  0.00  0.00     0.013 A 
ATOM     22  C   UNK d   1      18.666 -58.317  30.983  0.00  0.00     0.041 A 
ATOM     23 Br   UNK d   1      20.940 -57.069  29.685  0.00  0.00    -0.051 Br
ATOM     24  C   UNK d   1      17.626 -58.346  31.921  0.00  0.00     0.047 A 
ATOM     25 Br   UNK d   1      16.530 -59.877  31.923  0.00  0.00    -0.048 Br
ENDBRANCH  16  17
ENDBRANCH  15  16
ENDBRANCH  14  15
BRANCH  14  26
ATOM     26  O   UNK d   1      13.207 -58.307  33.290  0.00  0.00    -0.392 OA
ATOM     27  H   UNK d   1      13.456 -58.084  32.375  0.00  0.00     0.210 HD
ENDBRANCH  14  26
ENDBRANCH  13  14
ENDBRANCH   1  13
BRANCH   5  28
ATOM     28  N   UNK d   1      14.941 -56.612  37.668  0.00  0.00    -0.212 N 
ATOM     29  C   UNK d   1      16.247 -56.464  37.152  0.00  0.00     0.169 C 
ATOM     30  C   UNK d   1      16.689 -54.996  37.405  0.00  0.00     0.255 C 
ATOM     31  N   UNK d   1      16.700 -54.861  38.849  0.00  0.00    -0.066 N 
ATOM     32  C   UNK d   1      15.277 -54.652  39.176  0.00  0.00     0.255 C 
ATOM     33  H   UNK d   1      16.976 -55.732  39.350  0.00  0.00     0.280 HD
ATOM     34  C   UNK d   1      14.363 -55.427  38.314  0.00  0.00     0.169 C 
BRANCH  31  35
ATOM     35  C   UNK d   1      17.472 -53.710  39.273  0.00  0.00     0.260 C 
BRANCH  35  36
ATOM     36  C   UNK d   1      16.804 -52.457  38.751  0.00  0.00     0.192 C 
BRANCH  36  37
ATOM     37  O   UNK d   1      17.752 -51.682  38.072  0.00  0.00    -0.399 OA
ATOM     38  H   UNK d   1      18.552 -51.522  38.644  0.00  0.00     0.209 HD
ENDBRANCH  36  37
ENDBRANCH  35  36
ENDBRANCH  31  35
ENDBRANCH   5  28
TORSDOF 10
ENDMDL
