/Users/jonathanwahrer/Desktop/Msc/3_Semester/Drug_Design_Praktikum/waehrer_HTS_screening/HTS_experiment/out/docking_results/vina_output/6s1j/0005_docked.pdbqt
 OpenBabel03222220553D

 38 41  0  0  1  0  0  0  0  0999 V2000
   13.8670  -58.6410   36.5920 N   0  0  0  0  0  0  0  0  0  0  0  0
   12.8750  -59.4770   37.0010 C   0  0  0  0  0  0  0  0  0  0  0  0
   12.4850  -59.1370   38.2690 C   0  0  0  0  0  0  0  0  0  0  0  0
   13.2390  -58.1090   38.6010 N   0  0  0  0  0  0  0  0  0  0  0  0
   14.0950  -57.7750   37.5970 C   0  0  0  0  0  0  0  0  0  0  0  0
   11.4950  -59.7720   38.9690 N   0  0  0  0  0  0  0  0  0  0  0  0
   10.8800  -60.7860   38.3480 C   0  0  0  0  0  0  0  0  0  0  0  0
    9.9670  -61.3710   38.9970 O   0  0  0  0  0  0  0  0  0  0  0  0
   11.2240  -61.1570   37.1000 N   0  0  0  0  0  2  0  0  0  0  0  0
   12.1940  -60.5440   36.4020 C   0  0  0  0  0  0  0  0  0  0  0  0
   12.5210  -60.9390   35.1260 O   0  0  0  0  0  0  0  0  0  0  0  0
   11.1700  -59.3290   40.3180 C   0  0  0  0  0  1  0  0  0  0  0  0
   14.5230  -58.6860   35.3340 C   0  0  0  0  0  2  0  0  0  0  0  0
   14.1440  -57.8280   34.2230 C   0  0  1  0  0  3  0  0  0  0  0  0
   15.0500  -56.9430   33.4780 C   0  0  0  0  0  2  0  0  0  0  0  0
   16.4080  -57.3140   33.7020 O   0  0  0  0  0  0  0  0  0  0  0  0
   17.4000  -57.3230   32.7840 C   0  0  0  0  0  0  0  0  0  0  0  0
   18.2600  -56.2170   32.6980 C   0  0  0  0  0  0  0  0  0  0  0  0
   17.9590  -54.7630   33.9050 Br  0  0  0  0  0  0  0  0  0  0  0  0
   19.2830  -56.1710   31.7850 C   0  0  0  0  0  3  0  0  0  0  0  0
   19.4960  -57.2210   30.9180 C   0  0  0  0  0  0  0  0  0  0  0  0
   18.6660  -58.3170   30.9830 C   0  0  0  0  0  3  0  0  0  0  0  0
   20.9400  -57.0690   29.6850 Br  0  0  0  0  0  0  0  0  0  0  0  0
   17.6260  -58.3460   31.9210 C   0  0  0  0  0  0  0  0  0  0  0  0
   16.5300  -59.8770   31.9230 Br  0  0  0  0  0  0  0  0  0  0  0  0
   13.2070  -58.3070   33.2900 O   0  0  0  0  0  0  0  0  0  0  0  0
   13.4560  -58.0840   32.3750 H   0  0  0  0  0  0  0  0  0  0  0  0
   14.9410  -56.6120   37.6680 N   0  0  0  0  0  0  0  0  0  0  0  0
   16.2470  -56.4640   37.1520 C   0  0  0  0  0  2  0  0  0  0  0  0
   16.6890  -54.9960   37.4050 C   0  0  0  0  0  2  0  0  0  0  0  0
   16.7000  -54.8610   38.8490 N   0  0  0  0  0  4  0  0  0  0  0  0
   15.2770  -54.6520   39.1760 C   0  0  0  0  0  2  0  0  0  0  0  0
   16.9760  -55.7320   39.3500 H   0  0  0  0  0  0  0  0  0  0  0  0
   14.3630  -55.4270   38.3140 C   0  0  0  0  0  2  0  0  0  0  0  0
   17.4720  -53.7100   39.2730 C   0  0  0  0  0  2  0  0  0  0  0  0
   16.8040  -52.4570   38.7510 C   0  0  0  0  0  2  0  0  0  0  0  0
   17.7520  -51.6820   38.0720 O   0  0  0  0  0  0  0  0  0  0  0  0
   18.5520  -51.5220   38.6440 H   0  0  0  0  0  0  0  0  0  0  0  0
  1  2  1  0  0  0  0
  1  5  1  0  0  0  0
  2  3  2  0  0  0  0
  3  4  1  0  0  0  0
  3  6  1  0  0  0  0
  5 28  1  0  0  0  0
  5  4  2  0  0  0  0
  6 12  1  0  0  0  0
  7  6  1  0  0  0  0
  7  8  2  0  0  0  0
  9  7  1  0  0  0  0
 10  2  1  0  0  0  0
 10  9  1  0  0  0  0
 11 10  2  0  0  0  0
 13  1  1  0  0  0  0
 14 15  1  6  0  0  0
 14 13  1  0  0  0  0
 15 16  1  0  0  0  0
 17 16  1  0  0  0  0
 18 17  1  0  0  0  0
 18 19  1  0  0  0  0
 20 18  2  0  0  0  0
 21 22  2  0  0  0  0
 21 20  1  0  0  0  0
 22 24  1  0  0  0  0
 23 21  1  0  0  0  0
 24 25  1  0  0  0  0
 24 17  2  0  0  0  0
 26 14  1  0  0  0  0
 27 26  1  0  0  0  0
 28 34  1  0  0  0  0
 29 30  1  0  0  0  0
 29 28  1  0  0  0  0
 30 31  1  0  0  0  0
 31 32  1  0  0  0  0
 31 35  1  0  0  0  0
 31 33  1  0  0  0  0
 34 32  1  0  0  0  0
 36 35  1  0  0  0  0
 37 38  1  0  0  0  0
 37 36  1  0  0  0  0
M  END
>  <Pose>
1

>  <Score>
-8.201

$$$$
