MODEL 1
REMARK VINA RESULT:    -8.596      0.000      0.000
REMARK INTER + INTRA:         -12.377
REMARK INTER:                 -11.360
REMARK INTRA:                  -1.017
REMARK UNBOUND:                -1.017
REMARK  6 active torsions:
REMARK  status: ('A' for Active; 'I' for Inactive)
REMARK    1  A    between atoms: C_4  and  C_9 
REMARK    2  A    between atoms: N_10  and  N_11 
REMARK       I    between atoms: N_11  and  C_12 
REMARK    3  A    between atoms: C_12  and  C_14 
REMARK    4  A    between atoms: C_14  and  N_15 
REMARK    5  A    between atoms: C_19  and  C_20 
REMARK    6  A    between atoms: C_24  and  N_25 
ROOT
ATOM      1  N   UNK d   1      17.365 -55.736  35.442  0.00  0.00    -0.319 N 
ATOM      2  C   UNK d   1      17.576 -55.052  36.597  0.00  0.00     0.065 A 
ATOM      3  C   UNK d   1      18.861 -54.585  36.638  0.00  0.00     0.086 A 
ATOM      4  N   UNK d   1      19.424 -54.996  35.491  0.00  0.00    -0.226 NA
ATOM      5  C   UNK d   1      18.509 -55.703  34.755  0.00  0.00     0.167 A 
ATOM      6  C   UNK d   1      19.269 -53.861  37.739  0.00  0.00     0.034 A 
ATOM      7  C   UNK d   1      18.418 -53.596  38.799  0.00  0.00     0.002 A 
ATOM      8  C   UNK d   1      17.124 -54.081  38.730  0.00  0.00     0.002 A 
ATOM      9  C   UNK d   1      16.713 -54.805  37.629  0.00  0.00     0.032 A 
ENDROOT
BRANCH   1  10
ATOM     10  C   UNK d   1      16.160 -56.376  35.016  0.00  0.00     0.235 C 
BRANCH  10  11
ATOM     11  C   UNK d   1      15.676 -57.449  35.850  0.00  0.00     0.256 C 
ATOM     12  N   UNK d   1      14.405 -57.437  36.475  0.00  0.00    -0.246 N 
ATOM     13  H   UNK d   1      13.801 -56.603  36.316  0.00  0.00     0.192 HD
ATOM     14  O   UNK d   1      16.394 -58.457  36.051  0.00  0.00    -0.270 OA
BRANCH  12  15
ATOM     15  N   UNK d   1      13.915 -58.451  37.281  0.00  0.00    -0.184 NA
ATOM     16  C   UNK d   1      12.686 -58.799  37.320  0.00  0.00     0.153 C 
BRANCH  16  17
ATOM     17  C   UNK d   1      12.284 -59.877  38.203  0.00  0.00     0.022 A 
ATOM     18  C   UNK d   1      12.104 -61.132  37.707  0.00  0.00     0.136 A 
ATOM     19  C   UNK d   1      11.722 -62.150  38.555  0.00  0.00     0.049 A 
ATOM     20  O   UNK d   1      12.301 -61.396  36.363  0.00  0.00    -0.190 OA
ATOM     21 Br   UNK d   1      11.477 -63.891  37.844  0.00  0.00    -0.048 Br
ATOM     22  C   UNK d   1      11.522 -61.898  39.901  0.00  0.00     0.041 A 
ATOM     23  C   UNK d   1      11.708 -60.625  40.381  0.00  0.00     0.013 A 
ATOM     24  C   UNK d   1      12.090 -59.593  39.559  0.00  0.00     0.035 A 
ATOM     25 Br   UNK d   1      11.429 -60.292  42.244  0.00  0.00    -0.051 Br
ENDBRANCH  16  17
ENDBRANCH  12  15
ENDBRANCH  10  11
ENDBRANCH   1  10
BRANCH   5  26
ATOM     26  C   UNK d   1      18.796 -56.289  33.452  0.00  0.00     0.187 A 
ATOM     27  N   UNK d   1      19.064 -55.606  32.332  0.00  0.00    -0.097 NA
ATOM     28  O   UNK d   1      19.274 -56.464  31.349  0.00  0.00    -0.104 OA
ATOM     29  N   UNK d   1      19.153 -57.679  31.782  0.00  0.00    -0.077 NA
ATOM     30  C   UNK d   1      18.852 -57.618  33.098  0.00  0.00     0.285 A 
BRANCH  30  31
ATOM     31  N   UNK d   1      18.635 -58.718  33.962  0.00  0.00    -0.028 N 
ATOM     32  H   UNK d   1      19.365 -58.812  34.681  0.00  0.00     0.283 HD
ATOM     33  H   UNK d   1      18.700 -59.582  33.357  0.00  0.00     0.283 HD
ATOM     34  H   UNK d   1      17.671 -58.718  34.387  0.00  0.00     0.283 HD
ENDBRANCH  30  31
ENDBRANCH   5  26
TORSDOF 6
ENDMDL
