MODEL 1
REMARK VINA RESULT:    -8.877      0.000      0.000
REMARK INTER + INTRA:         -15.252
REMARK INTER:                 -13.288
REMARK INTRA:                  -1.964
REMARK UNBOUND:                -1.964
REMARK  9 active torsions:
REMARK  status: ('A' for Active; 'I' for Inactive)
REMARK    1  A    between atoms: C_4  and  O_29 
REMARK    2  A    between atoms: C_6  and  C_8 
REMARK    3  A    between atoms: C_8  and  N_9 
REMARK    4  A    between atoms: N_9  and  N_10 
REMARK       I    between atoms: N_10  and  C_11 
REMARK    5  A    between atoms: C_11  and  C_13 
REMARK    6  A    between atoms: C_13  and  N_14 
REMARK    7  A    between atoms: C_18  and  C_19 
REMARK    8  A    between atoms: C_23  and  N_24 
REMARK    9  A    between atoms: O_29  and  C_30 
ROOT
ATOM      1  N   UNK d   1      17.822 -55.078  36.128  0.00  0.00    -0.319 N 
ATOM      2  C   UNK d   1      18.203 -53.778  36.427  0.00  0.00     0.065 A 
ATOM      3  C   UNK d   1      17.454 -53.376  37.468  0.00  0.00     0.086 A 
ATOM      4  N   UNK d   1      16.659 -54.386  37.786  0.00  0.00    -0.226 NA
ATOM      5  C   UNK d   1      16.881 -55.467  36.945  0.00  0.00     0.167 A 
ATOM      6  C   UNK d   1      17.574 -52.118  38.036  0.00  0.00     0.034 A 
ATOM      7  C   UNK d   1      18.510 -51.281  37.478  0.00  0.00     0.002 A 
ATOM      8  C   UNK d   1      19.303 -51.641  36.405  0.00  0.00     0.002 A 
ATOM      9  C   UNK d   1      19.141 -52.920  35.874  0.00  0.00     0.032 A 
ENDROOT
BRANCH   1  10
ATOM     10  C   UNK d   1      18.461 -55.770  35.086  0.00  0.00     0.236 C 
BRANCH  10  11
ATOM     11  C   UNK d   1      17.763 -55.549  33.726  0.00  0.00     0.264 C 
ATOM     12  N   UNK d   1      16.556 -56.166  33.694  0.00  0.00    -0.202 N 
ATOM     13  H   UNK d   1      16.384 -55.662  32.393  0.00  0.00     0.205 HD
ATOM     14  O   UNK d   1      18.434 -54.868  32.953  0.00  0.00    -0.269 OA
BRANCH  12  15
ATOM     15  N   UNK d   1      15.458 -56.726  33.661  0.00  0.00    -0.335 NA
BRANCH  15  16
ATOM     16  C   UNK d   1      14.424 -57.295  33.711  0.00  0.00     0.220 C 
BRANCH  16  17
ATOM     17  C   UNK d   1      14.021 -58.605  34.091  0.00  0.00    -0.001 A 
ATOM     18  C   UNK d   1      12.834 -58.796  34.813  0.00  0.00     0.053 A 
ATOM     19  C   UNK d   1      12.344 -60.004  35.214  0.00  0.00     0.107 A 
ATOM     20  C   UNK d   1      13.092 -61.158  34.876  0.00  0.00     0.157 A 
ATOM     21  C   UNK d   1      14.266 -61.016  34.170  0.00  0.00     0.051 A 
ATOM     22  O   UNK d   1      12.595 -62.364  35.276  0.00  0.00    -0.188 OA
ATOM     23 Br   UNK d   1      15.277 -62.545  33.676  0.00  0.00    -0.048 Br
ATOM     24  C   UNK d   1      14.706 -59.762  33.793  0.00  0.00     0.036 A 
BRANCH  19  25
ATOM     25  O   UNK d   1      11.169 -60.177  35.922  0.00  0.00    -0.348 OA
BRANCH  25  26
ATOM     26  C   UNK d   1      11.044 -59.865  37.267  0.00  0.00     0.171 C 
ATOM     27  C   UNK d   1      12.047 -60.498  38.191  0.00  0.00     0.034 C 
ENDBRANCH  25  26
ENDBRANCH  19  25
ENDBRANCH  16  17
ENDBRANCH  15  16
ENDBRANCH  12  15
ENDBRANCH  10  11
ENDBRANCH   1  10
BRANCH   5  28
ATOM     28  C   UNK d   1      16.082 -56.652  37.199  0.00  0.00     0.187 A 
ATOM     29  N   UNK d   1      16.482 -57.922  36.789  0.00  0.00    -0.097 NA
ATOM     30  O   UNK d   1      15.631 -58.795  37.147  0.00  0.00    -0.104 OA
ATOM     31  N   UNK d   1      14.667 -58.248  37.772  0.00  0.00    -0.077 NA
ATOM     32  C   UNK d   1      14.915 -56.895  37.827  0.00  0.00     0.285 A 
BRANCH  32  33
ATOM     33  N   UNK d   1      14.038 -56.003  38.480  0.00  0.00    -0.028 N 
ATOM     34  H   UNK d   1      14.625 -55.166  38.854  0.00  0.00     0.283 HD
ATOM     35  H   UNK d   1      13.670 -56.433  39.337  0.00  0.00     0.283 HD
ATOM     36  H   UNK d   1      13.403 -55.550  37.828  0.00  0.00     0.283 HD
ENDBRANCH  32  33
ENDBRANCH   5  28
TORSDOF 9
ENDMDL
