/Users/jonathanwahrer/Desktop/Msc/3_Semester/Drug_Design_Praktikum/waehrer_HTS_screening/HTS_experiment/out/docking_results/vina_output/6s1j/0017_docked.pdbqt
 OpenBabel03222220573D

 38 41  0  0  0  0  0  0  0  0999 V2000
   16.8720  -54.9840   37.8390 C   0  0  0  0  0  0  0  0  0  0  0  0
   17.6390  -54.3330   38.7230 N   0  0  0  0  0  0  0  0  0  0  0  0
   18.5630  -53.6540   38.0880 N   0  0  0  0  0  0  0  0  0  0  0  0
   18.4470  -53.8250   36.7580 N   0  0  0  0  0  0  0  0  0  0  0  0
   17.4070  -54.6450   36.5820 C   0  0  0  0  0  0  0  0  0  0  0  0
   15.7320  -55.8570   38.0860 C   0  0  0  0  0  0  0  0  0  0  0  0
   15.8100  -57.2550   37.8980 N   0  0  0  0  0  0  0  0  0  0  0  0
   16.7310  -57.6650   37.5690 H   0  0  0  0  0  0  0  0  0  0  0  0
   14.6580  -55.3560   38.4730 O   0  0  0  0  0  0  0  0  0  0  0  0
   14.7760  -58.1330   38.1120 N   0  0  0  0  0  0  0  0  0  0  0  0
   13.9410  -58.5350   37.2270 C   0  0  0  0  0  3  0  0  0  0  0  0
   12.8740  -59.4700   37.5480 C   0  0  0  0  0  0  0  0  0  0  0  0
   12.2790  -59.5470   38.7970 C   0  0  0  0  0  3  0  0  0  0  0  0
   11.2720  -60.4410   39.0730 C   0  0  0  0  0  0  0  0  0  0  0  0
   10.8630  -61.2720   38.0550 C   0  0  0  0  0  0  0  0  0  0  0  0
   11.4380  -61.2230   36.7900 C   0  0  0  0  0  0  0  0  0  0  0  0
   10.8640  -62.3770   35.3860 Br  0  0  0  0  0  0  0  0  0  0  0  0
   12.4340  -60.3210   36.5580 C   0  0  0  0  0  3  0  0  0  0  0  0
   10.6590  -60.5460   40.2980 O   0  0  0  0  0  0  0  0  0  0  0  0
   11.1440  -61.2020   41.4230 C   0  0  0  0  0  2  0  0  0  0  0  0
   11.6300  -60.3080   42.5180 C   0  0  0  0  0  1  0  0  0  0  0  0
    9.8470  -62.1980   38.2750 O   0  0  0  0  0  0  0  0  0  0  0  0
    9.4580  -62.3060   39.2040 H   0  0  0  0  0  0  0  0  0  0  0  0
   16.8590  -55.1850   35.3360 C   0  0  0  0  0  2  0  0  0  0  0  0
   17.6160  -56.2240   34.6850 N   0  0  0  0  0  0  0  0  0  0  0  0
   16.7580  -57.4130   34.7690 C   0  0  0  0  0  2  0  0  0  0  0  0
   15.4520  -57.2890   34.0890 C   0  0  0  0  0  2  0  0  0  0  0  0
   15.5370  -56.4750   32.9700 O   0  0  0  0  0  0  0  0  0  0  0  0
   16.7890  -56.6300   32.4150 C   0  0  0  0  0  2  0  0  0  0  0  0
   17.7940  -55.8840   33.2720 C   0  0  0  0  0  2  0  0  0  0  0  0
   19.3350  -53.2210   35.8120 C   0  0  0  0  0  0  0  0  0  0  0  0
   19.9800  -53.7860   34.7790 N   0  0  0  0  0  0  0  0  0  0  0  0
   20.6880  -52.8710   34.1610 O   0  0  0  0  0  0  0  0  0  0  0  0
   20.5400  -51.7060   34.7460 N   0  0  0  0  0  0  0  0  0  0  0  0
   19.7000  -51.8970   35.7790 C   0  0  0  0  0  0  0  0  0  0  0  0
   19.2900  -50.8580   36.6550 N   0  0  0  0  0  0  0  0  0  0  0  0
   18.4350  -50.8990   37.2460 H   0  0  0  0  0  0  0  0  0  0  0  0
   19.8560  -49.9760   36.7450 H   0  0  0  0  0  0  0  0  0  0  0  0
  1  6  1  0  0  0  0
  1  2  1  0  0  0  0
  3  2  2  0  0  0  0
  4  3  1  0  0  0  0
  5  4  1  0  0  0  0
  5  1  2  0  0  0  0
  6  9  2  0  0  0  0
  7  6  1  0  0  0  0
  7 10  1  0  0  0  0
  8  7  1  0  0  0  0
 11 12  1  0  0  0  0
 11 10  2  0  0  0  0
 12 13  1  0  0  0  0
 13 14  2  0  0  0  0
 14 19  1  0  0  0  0
 15 22  1  0  0  0  0
 15 14  1  0  0  0  0
 16 15  2  0  0  0  0
 17 16  1  0  0  0  0
 18 16  1  0  0  0  0
 18 12  2  0  0  0  0
 19 20  1  0  0  0  0
 20 21  1  0  0  0  0
 22 23  1  0  0  0  0
 24  5  1  0  0  0  0
 25 26  1  0  0  0  0
 25 24  1  0  0  0  0
 27 26  1  0  0  0  0
 28 27  1  0  0  0  0
 29 28  1  0  0  0  0
 29 30  1  0  0  0  0
 30 25  1  0  0  0  0
 31  4  1  0  0  0  0
 32 31  2  0  0  0  0
 33 34  1  0  0  0  0
 33 32  1  0  0  0  0
 34 35  2  0  0  0  0
 35 31  1  0  0  0  0
 35 36  1  0  0  0  0
 36 38  1  0  0  0  0
 36 37  1  0  0  0  0
M  END
>  <Pose>
1

>  <Score>
-8.333

$$$$
