MODEL 1
REMARK VINA RESULT:    -8.333      0.000      0.000
REMARK INTER + INTRA:         -14.162
REMARK INTER:                 -12.718
REMARK INTRA:                  -1.444
REMARK UNBOUND:                -1.444
REMARK  10 active torsions:
REMARK  status: ('A' for Active; 'I' for Inactive)
REMARK    1  A    between atoms: C_3  and  O_34 
REMARK    2  A    between atoms: C_4  and  O_31 
REMARK    3  A    between atoms: C_6  and  C_8 
REMARK    4  A    between atoms: N_9  and  N_10 
REMARK       I    between atoms: N_10  and  C_11 
REMARK    5  A    between atoms: C_11  and  C_13 
REMARK    6  A    between atoms: N_16  and  C_25 
REMARK    7  A    between atoms: C_17  and  C_18 
REMARK    8  A    between atoms: C_18  and  N_19 
REMARK    9  A    between atoms: C_29  and  N_30 
REMARK   10  A    between atoms: O_31  and  C_32 
ROOT
ATOM      1  C   UNK d   1      16.872 -54.984  37.839  0.00  0.00     0.176 A 
ATOM      2  N   UNK d   1      17.639 -54.333  38.723  0.00  0.00    -0.124 NA
ATOM      3  N   UNK d   1      18.563 -53.654  38.088  0.00  0.00    -0.058 NA
ATOM      4  N   UNK d   1      18.447 -53.825  36.758  0.00  0.00    -0.191 N 
ATOM      5  C   UNK d   1      17.407 -54.645  36.582  0.00  0.00     0.104 A 
ENDROOT
BRANCH   1   6
ATOM      6  C   UNK d   1      15.732 -55.857  38.086  0.00  0.00     0.294 C 
ATOM      7  N   UNK d   1      15.810 -57.255  37.898  0.00  0.00    -0.242 N 
ATOM      8  H   UNK d   1      16.731 -57.665  37.569  0.00  0.00     0.192 HD
ATOM      9  O   UNK d   1      14.658 -55.356  38.473  0.00  0.00    -0.264 OA
BRANCH   7  10
ATOM     10  N   UNK d   1      14.776 -58.133  38.112  0.00  0.00    -0.183 NA
ATOM     11  C   UNK d   1      13.941 -58.535  37.227  0.00  0.00     0.150 C 
BRANCH  11  12
ATOM     12  C   UNK d   1      12.874 -59.470  37.548  0.00  0.00    -0.013 A 
ATOM     13  C   UNK d   1      12.279 -59.547  38.797  0.00  0.00     0.052 A 
ATOM     14  C   UNK d   1      11.272 -60.441  39.073  0.00  0.00     0.104 A 
ATOM     15  C   UNK d   1      10.863 -61.272  38.055  0.00  0.00     0.116 A 
ATOM     16  C   UNK d   1      11.438 -61.223  36.790  0.00  0.00     0.047 A 
ATOM     17 Br   UNK d   1      10.864 -62.377  35.386  0.00  0.00    -0.048 Br
ATOM     18  C   UNK d   1      12.434 -60.321  36.558  0.00  0.00     0.035 A 
BRANCH  14  19
ATOM     19  O   UNK d   1      10.659 -60.546  40.298  0.00  0.00    -0.349 OA
BRANCH  19  20
ATOM     20  C   UNK d   1      11.144 -61.202  41.423  0.00  0.00     0.171 C 
ATOM     21  C   UNK d   1      11.630 -60.308  42.518  0.00  0.00     0.034 C 
ENDBRANCH  19  20
ENDBRANCH  14  19
BRANCH  15  22
ATOM     22  O   UNK d   1       9.847 -62.198  38.275  0.00  0.00    -0.357 OA
ATOM     23  H   UNK d   1       9.458 -62.306  39.204  0.00  0.00     0.218 HD
ENDBRANCH  15  22
ENDBRANCH  11  12
ENDBRANCH   7  10
ENDBRANCH   1   6
BRANCH   5  24
ATOM     24  C   UNK d   1      16.859 -55.185  35.336  0.00  0.00     0.334 C 
BRANCH  24  25
ATOM     25  N   UNK d   1      17.616 -56.224  34.685  0.00  0.00     0.098 N 
ATOM     26  C   UNK d   1      16.758 -57.413  34.769  0.00  0.00     0.299 C 
ATOM     27  C   UNK d   1      15.452 -57.289  34.089  0.00  0.00     0.198 C 
ATOM     28  O   UNK d   1      15.537 -56.475  32.970  0.00  0.00    -0.388 OA
ATOM     29  C   UNK d   1      16.789 -56.630  32.415  0.00  0.00     0.198 C 
ATOM     30  C   UNK d   1      17.794 -55.884  33.272  0.00  0.00     0.299 C 
ENDBRANCH  24  25
ENDBRANCH   5  24
BRANCH   4  31
ATOM     31  C   UNK d   1      19.335 -53.221  35.812  0.00  0.00     0.229 A 
ATOM     32  N   UNK d   1      19.980 -53.786  34.779  0.00  0.00    -0.081 NA
ATOM     33  O   UNK d   1      20.688 -52.871  34.161  0.00  0.00    -0.103 OA
ATOM     34  N   UNK d   1      20.540 -51.706  34.746  0.00  0.00    -0.083 NA
ATOM     35  C   UNK d   1      19.700 -51.897  35.779  0.00  0.00     0.201 A 
BRANCH  35  36
ATOM     36  N   UNK d   1      19.290 -50.858  36.655  0.00  0.00    -0.379 N 
ATOM     37  H   UNK d   1      18.435 -50.899  37.246  0.00  0.00     0.158 HD
ATOM     38  H   UNK d   1      19.856 -49.976  36.745  0.00  0.00     0.158 HD
ENDBRANCH  35  36
ENDBRANCH   4  31
TORSDOF 10
ENDMDL
