/Users/jonathanwahrer/Desktop/Msc/3_Semester/Drug_Design_Praktikum/waehrer_HTS_screening/HTS_experiment/out/docking_results/vina_output/6s1j/0018_docked.pdbqt
 OpenBabel03222220573D

 37 40  0  0  0  0  0  0  0  0999 V2000
   17.2710  -54.8930   38.2110 C   0  0  0  0  0  0  0  0  0  0  0  0
   18.1010  -54.2780   38.9790 N   0  0  0  0  0  0  0  0  0  0  0  0
   19.0920  -53.7770   38.2620 N   0  0  0  0  0  0  0  0  0  0  0  0
   18.8960  -54.0870   36.9890 N   0  0  0  0  0  0  0  0  0  0  0  0
   17.7940  -54.8030   36.8190 C   0  0  0  0  0  0  0  0  0  0  0  0
   15.8730  -55.2560   38.2790 C   0  0  0  0  0  0  0  0  0  0  0  0
   15.4710  -56.6380   38.1390 N   0  0  0  0  0  0  0  0  0  0  0  0
   15.7040  -57.4790   37.8120 H   0  0  0  0  0  0  0  0  0  0  0  0
   15.0360  -54.3920   38.5350 O   0  0  0  0  0  0  0  0  0  0  0  0
   14.0640  -56.6560   38.8910 N   0  0  0  0  0  2  0  0  0  0  0  0
   13.7100  -57.8820   38.4610 C   0  0  0  0  0  2  0  0  0  0  0  0
   12.7490  -58.8530   38.4940 C   0  0  0  0  0  0  0  0  0  0  0  0
   11.9410  -59.2460   39.5460 C   0  0  0  0  0  3  0  0  0  0  0  0
   10.9960  -60.2430   39.4700 C   0  0  0  0  0  0  0  0  0  0  0  0
   10.8420  -60.8890   38.2750 C   0  0  0  0  0  0  0  0  0  0  0  0
   11.6240  -60.5370   37.1960 C   0  0  0  0  0  0  0  0  0  0  0  0
   11.3960  -61.4930   35.5340 Br  0  0  0  0  0  0  0  0  0  0  0  0
   12.5380  -59.5760   37.2620 C   0  0  0  0  0  3  0  0  0  0  0  0
   10.2340  -60.5830   40.5940 O   0  0  0  0  0  0  0  0  0  0  0  0
    9.1930  -59.6820   41.0230 C   0  0  0  0  0  1  0  0  0  0  0  0
    9.8940  -61.9070   38.1380 O   0  0  0  0  0  0  0  0  0  0  0  0
    8.8870  -61.6490   38.2060 H   0  0  0  0  0  0  0  0  0  0  0  0
   17.0480  -55.2690   35.6860 C   0  0  0  0  0  2  0  0  0  0  0  0
   17.5070  -56.4870   35.0140 N   0  0  0  0  0  0  0  0  0  0  0  0
   18.0200  -56.2270   33.7090 C   0  0  0  0  0  2  0  0  0  0  0  0
   16.9960  -55.7860   32.7040 C   0  0  0  0  0  2  0  0  0  0  0  0
   16.2150  -56.8680   32.3320 O   0  0  0  0  0  0  0  0  0  0  0  0
   16.2160  -57.8440   33.3340 C   0  0  0  0  0  2  0  0  0  0  0  0
   16.1940  -57.1880   34.6730 C   0  0  0  0  0  2  0  0  0  0  0  0
   19.5650  -53.3350   35.9460 C   0  0  0  0  0  0  0  0  0  0  0  0
   20.2240  -53.6520   34.9110 N   0  0  0  0  0  0  0  0  0  0  0  0
   20.7040  -52.5880   34.2670 O   0  0  0  0  0  0  0  0  0  0  0  0
   20.3220  -51.5600   34.9340 N   0  0  0  0  0  0  0  0  0  0  0  0
   19.6050  -51.9080   36.0030 C   0  0  0  0  0  0  0  0  0  0  0  0
   19.0340  -51.0730   36.9780 N   0  0  0  0  0  0  0  0  0  0  0  0
   18.2580  -50.4180   36.7740 H   0  0  0  0  0  0  0  0  0  0  0  0
   19.3660  -51.0800   38.0010 H   0  0  0  0  0  0  0  0  0  0  0  0
  1  6  1  0  0  0  0
  1  2  1  0  0  0  0
  3  2  2  0  0  0  0
  4  3  1  0  0  0  0
  5  4  1  0  0  0  0
  5  1  2  0  0  0  0
  6  9  2  0  0  0  0
  7  6  1  0  0  0  0
  7 10  1  0  0  0  0
  8  7  1  0  0  0  0
 11 12  1  0  0  0  0
 11 10  1  0  0  0  0
 12 13  1  0  0  0  0
 14 13  2  0  0  0  0
 14 19  1  0  0  0  0
 15 14  1  0  0  0  0
 16 18  1  0  0  0  0
 16 15  2  0  0  0  0
 17 16  1  0  0  0  0
 18 12  2  0  0  0  0
 19 20  1  0  0  0  0
 21 22  1  0  0  0  0
 21 15  1  0  0  0  0
 23  5  1  0  0  0  0
 24 23  1  0  0  0  0
 25 24  1  0  0  0  0
 26 25  1  0  0  0  0
 27 26  1  0  0  0  0
 27 28  1  0  0  0  0
 28 29  1  0  0  0  0
 29 24  1  0  0  0  0
 30 34  1  0  0  0  0
 30  4  1  0  0  0  0
 31 30  2  0  0  0  0
 32 31  1  0  0  0  0
 32 33  1  0  0  0  0
 33 34  2  0  0  0  0
 34 35  1  0  0  0  0
 35 37  1  0  0  0  0
 36 35  1  0  0  0  0
M  END
>  <Pose>
1

>  <Score>
-8.759

$$$$
