MODEL 1
REMARK VINA RESULT:    -8.759      0.000      0.000
REMARK INTER + INTRA:         -14.258
REMARK INTER:                 -12.856
REMARK INTRA:                  -1.402
REMARK UNBOUND:                -1.402
REMARK  9 active torsions:
REMARK  status: ('A' for Active; 'I' for Inactive)
REMARK    1  A    between atoms: C_3  and  O_33 
REMARK    2  A    between atoms: C_4  and  O_31 
REMARK    3  A    between atoms: C_6  and  C_8 
REMARK    4  A    between atoms: N_9  and  N_10 
REMARK       I    between atoms: N_10  and  C_11 
REMARK    5  A    between atoms: C_11  and  C_13 
REMARK    6  A    between atoms: N_16  and  C_25 
REMARK    7  A    between atoms: C_17  and  C_18 
REMARK    8  A    between atoms: C_18  and  N_19 
REMARK    9  A    between atoms: C_29  and  N_30 
ROOT
ATOM      1  C   UNK d   1      17.271 -54.893  38.211  0.00  0.00     0.170 A 
ATOM      2  N   UNK d   1      18.101 -54.278  38.979  0.00  0.00    -0.152 NA
ATOM      3  N   UNK d   1      19.092 -53.777  38.262  0.00  0.00     0.012 NA
ATOM      4  N   UNK d   1      18.896 -54.087  36.989  0.00  0.00    -0.215 N 
ATOM      5  C   UNK d   1      17.794 -54.803  36.819  0.00  0.00     0.098 A 
ENDROOT
BRANCH   1   6
ATOM      6  C   UNK d   1      15.873 -55.256  38.279  0.00  0.00     0.293 C 
ATOM      7  N   UNK d   1      15.471 -56.638  38.139  0.00  0.00    -0.242 N 
ATOM      8  H   UNK d   1      15.704 -57.479  37.812  0.00  0.00     0.192 HD
ATOM      9  O   UNK d   1      15.036 -54.392  38.535  0.00  0.00    -0.264 OA
BRANCH   7  10
ATOM     10  N   UNK d   1      14.064 -56.656  38.891  0.00  0.00    -0.183 NA
ATOM     11  C   UNK d   1      13.710 -57.882  38.461  0.00  0.00     0.150 C 
BRANCH  11  12
ATOM     12  C   UNK d   1      12.749 -58.853  38.494  0.00  0.00    -0.013 A 
ATOM     13  C   UNK d   1      11.941 -59.246  39.546  0.00  0.00     0.052 A 
ATOM     14  C   UNK d   1      10.996 -60.243  39.470  0.00  0.00     0.103 A 
ATOM     15  C   UNK d   1      10.842 -60.889  38.275  0.00  0.00     0.116 A 
ATOM     16  C   UNK d   1      11.624 -60.537  37.196  0.00  0.00     0.047 A 
ATOM     17 Br   UNK d   1      11.396 -61.493  35.534  0.00  0.00    -0.048 Br
ATOM     18  C   UNK d   1      12.538 -59.576  37.262  0.00  0.00     0.035 A 
BRANCH  14  19
ATOM     19  O   UNK d   1      10.234 -60.583  40.594  0.00  0.00    -0.353 OA
ATOM     20  C   UNK d   1       9.193 -59.682  41.023  0.00  0.00     0.210 C 
ENDBRANCH  14  19
BRANCH  15  21
ATOM     21  O   UNK d   1       9.894 -61.907  38.138  0.00  0.00    -0.357 OA
ATOM     22  H   UNK d   1       8.887 -61.649  38.206  0.00  0.00     0.218 HD
ENDBRANCH  15  21
ENDBRANCH  11  12
ENDBRANCH   7  10
ENDBRANCH   1   6
BRANCH   5  23
ATOM     23  C   UNK d   1      17.048 -55.269  35.686  0.00  0.00     0.334 C 
BRANCH  23  24
ATOM     24  N   UNK d   1      17.507 -56.487  35.014  0.00  0.00     0.098 N 
ATOM     25  C   UNK d   1      18.020 -56.227  33.709  0.00  0.00     0.299 C 
ATOM     26  C   UNK d   1      16.996 -55.786  32.704  0.00  0.00     0.198 C 
ATOM     27  O   UNK d   1      16.215 -56.868  32.332  0.00  0.00    -0.388 OA
ATOM     28  C   UNK d   1      16.216 -57.844  33.334  0.00  0.00     0.198 C 
ATOM     29  C   UNK d   1      16.194 -57.188  34.673  0.00  0.00     0.299 C 
ENDBRANCH  23  24
ENDBRANCH   5  23
BRANCH   4  30
ATOM     30  C   UNK d   1      19.565 -53.335  35.946  0.00  0.00     0.225 A 
ATOM     31  N   UNK d   1      20.224 -53.652  34.911  0.00  0.00    -0.081 NA
ATOM     32  O   UNK d   1      20.704 -52.588  34.267  0.00  0.00    -0.103 OA
ATOM     33  N   UNK d   1      20.322 -51.560  34.934  0.00  0.00    -0.083 NA
ATOM     34  C   UNK d   1      19.605 -51.908  36.003  0.00  0.00     0.201 A 
BRANCH  34  35
ATOM     35  N   UNK d   1      19.034 -51.073  36.978  0.00  0.00    -0.379 N 
ATOM     36  H   UNK d   1      18.258 -50.418  36.774  0.00  0.00     0.158 HD
ATOM     37  H   UNK d   1      19.366 -51.080  38.001  0.00  0.00     0.158 HD
ENDBRANCH  34  35
ENDBRANCH   4  30
TORSDOF 9
ENDMDL
