/Users/jonathanwahrer/Desktop/Msc/3_Semester/Drug_Design_Praktikum/waehrer_HTS_screening/HTS_experiment/out/docking_results/vina_output/6s1j/0023_docked.pdbqt
 OpenBabel03222220583D

 37 40  0  0  1  0  0  0  0  0999 V2000
   16.4590  -57.6250   35.5790 C   0  0  1  0  0  3  0  0  0  0  0  0
   15.0350  -57.6670   35.3170 N   0  0  0  0  0  0  0  0  0  0  0  0
   14.7510  -57.3970   33.9740 C   0  0  0  0  0  0  0  0  0  0  0  0
   13.6240  -57.2400   33.4800 O   0  0  0  0  0  0  0  0  0  0  0  0
   16.0240  -57.3310   33.2560 C   0  0  0  0  0  0  0  0  0  0  0  0
   16.0960  -57.0980   32.0220 O   0  0  0  0  0  0  0  0  0  0  0  0
   17.0870  -57.5740   34.2080 C   0  0  1  0  0  3  0  0  0  0  0  0
   18.3550  -57.6770   33.9130 C   0  0  1  0  0  3  0  0  0  0  0  0
   19.1520  -58.5670   34.6150 O   0  0  0  0  0  1  0  0  0  0  0  0
   18.9640  -56.8950   32.8650 C   0  0  0  0  0  0  0  0  0  0  0  0
   19.3690  -57.6310   31.7440 C   0  0  0  0  0  3  0  0  0  0  0  0
   19.9310  -57.0130   30.6550 C   0  0  0  0  0  0  0  0  0  0  0  0
   20.1080  -55.6490   30.6500 C   0  0  0  0  0  0  0  0  0  0  0  0
   20.4340  -57.6090   29.3750 C   0  0  0  0  0  2  0  0  0  0  0  0
   19.7010  -54.9440   31.7680 C   0  0  0  0  0  3  0  0  0  0  0  0
   20.7000  -55.2890   29.4220 O   0  0  0  0  0  0  0  0  0  0  0  0
   19.1330  -55.5470   32.8690 C   0  0  0  0  0  3  0  0  0  0  0  0
   21.2470  -56.4610   28.8250 C   0  0  1  0  0  3  0  0  0  0  0  0
   22.6910  -56.6850   29.2320 C   0  0  0  0  0  1  0  0  0  0  0  0
   16.7290  -56.3730   36.3320 C   0  0  0  0  0  0  0  0  0  0  0  0
   15.9740  -56.1710   37.4770 C   0  0  0  0  0  3  0  0  0  0  0  0
   16.1240  -55.0760   38.2600 C   0  0  0  0  0  0  0  0  0  0  0  0
   17.0690  -54.1240   37.9010 C   0  0  0  0  0  0  0  0  0  0  0  0
   17.8320  -54.3290   36.7430 C   0  0  0  0  0  0  0  0  0  0  0  0
   19.1230  -53.0290   36.2550 Br  0  0  0  0  0  0  0  0  0  0  0  0
   17.6710  -55.4490   35.9520 C   0  0  0  0  0  3  0  0  0  0  0  0
   15.3600  -54.8760   39.4130 O   0  0  0  0  0  0  0  0  0  0  0  0
   14.4250  -55.8060   39.8870 C   0  0  0  0  0  1  0  0  0  0  0  0
   17.2310  -53.0100   38.6860 O   0  0  0  0  0  0  0  0  0  0  0  0
   18.0400  -52.4460   38.5980 H   0  0  0  0  0  0  0  0  0  0  0  0
   14.0840  -57.9540   36.3710 C   0  0  0  0  0  2  0  0  0  0  0  0
   13.5110  -59.3070   36.3910 C   0  0  0  0  0  2  0  0  0  0  0  0
   12.2240  -59.5320   35.6900 C   0  0  0  0  0  2  0  0  0  0  0  0
   12.3440  -60.2520   34.4460 N   0  0  0  0  0  4  0  0  0  0  0  0
   11.3290  -61.3150   34.4090 C   0  0  0  0  0  1  0  0  0  0  0  0
   13.6410  -60.9040   34.4500 C   0  0  0  0  0  1  0  0  0  0  0  0
   12.2910  -59.6760   33.6010 H   0  0  0  0  0  0  0  0  0  0  0  0
  1 20  1  1  0  0  0
  2  1  1  0  0  0  0
  2 31  1  0  0  0  0
  3  2  1  0  0  0  0
  4  3  2  0  0  0  0
  5  3  1  0  0  0  0
  5  7  1  0  0  0  0
  6  5  2  0  0  0  0
  7  8  1  1  0  0  0
  7  1  1  0  0  0  0
  8  9  1  6  0  0  0
 10 17  1  0  0  0  0
 10  8  1  0  0  0  0
 11 10  2  0  0  0  0
 12 11  1  0  0  0  0
 13 12  2  0  0  0  0
 13 15  1  0  0  0  0
 14 12  1  0  0  0  0
 15 17  2  0  0  0  0
 16 13  1  0  0  0  0
 18 19  1  1  0  0  0
 18 14  1  0  0  0  0
 18 16  1  0  0  0  0
 20 21  1  0  0  0  0
 21 22  2  0  0  0  0
 22 27  1  0  0  0  0
 23 22  1  0  0  0  0
 23 29  1  0  0  0  0
 24 23  2  0  0  0  0
 25 24  1  0  0  0  0
 26 20  2  0  0  0  0
 26 24  1  0  0  0  0
 27 28  1  0  0  0  0
 30 29  1  0  0  0  0
 31 32  1  0  0  0  0
 33 32  1  0  0  0  0
 34 36  1  0  0  0  0
 34 33  1  0  0  0  0
 35 34  1  0  0  0  0
 37 34  1  0  0  0  0
M  END
>  <Pose>
1

>  <Score>
-9.444

$$$$
