MODEL 1
REMARK VINA RESULT:    -9.444      0.000      0.000
REMARK INTER + INTRA:         -14.720
REMARK INTER:                 -14.137
REMARK INTRA:                  -0.583
REMARK UNBOUND:                -0.583
REMARK  9 active torsions:
REMARK  status: ('A' for Active; 'I' for Inactive)
REMARK    1  A    between atoms: C_3  and  O_35 
REMARK    2  A    between atoms: C_4  and  O_33 
REMARK    3  A    between atoms: C_6  and  C_8 
REMARK    4  A    between atoms: N_9  and  C_27 
REMARK    5  A    between atoms: C_14  and  C_15 
REMARK    6  A    between atoms: C_15  and  C_17 
REMARK    7  A    between atoms: C_27  and  C_28 
REMARK    8  A    between atoms: C_28  and  C_29 
REMARK    9  A    between atoms: C_29  and  N_30 
ROOT
ATOM      1  C   UNK d   1      16.459 -57.625  35.579  0.00  0.00     0.161 C 
ATOM      2  N   UNK d   1      15.035 -57.667  35.317  0.00  0.00    -0.332 N 
ATOM      3  C   UNK d   1      14.751 -57.397  33.974  0.00  0.00     0.295 C 
ATOM      4  O   UNK d   1      13.624 -57.240  33.480  0.00  0.00    -0.264 OA
ATOM      5  C   UNK d   1      16.024 -57.331  33.256  0.00  0.00     0.250 C 
ATOM      6  O   UNK d   1      16.096 -57.098  32.022  0.00  0.00    -0.282 OA
ATOM      7  C   UNK d   1      17.087 -57.574  34.208  0.00  0.00     0.062 C 
ENDROOT
BRANCH   7   8
ATOM      8  C   UNK d   1      18.355 -57.677  33.913  0.00  0.00     0.130 C 
ATOM      9  O   UNK d   1      19.152 -58.567  34.615  0.00  0.00    -0.190 OA
BRANCH   8  10
ATOM     10  C   UNK d   1      18.964 -56.895  32.865  0.00  0.00     0.002 A 
ATOM     11  C   UNK d   1      19.369 -57.631  31.744  0.00  0.00     0.024 A 
ATOM     12  C   UNK d   1      19.931 -57.013  30.655  0.00  0.00    -0.021 A 
ATOM     13  C   UNK d   1      20.108 -55.649  30.650  0.00  0.00     0.075 A 
ATOM     14  C   UNK d   1      20.434 -57.609  29.375  0.00  0.00     0.073 C 
ATOM     15  C   UNK d   1      19.701 -54.944  31.768  0.00  0.00     0.038 A 
ATOM     16  O   UNK d   1      20.700 -55.289  29.422  0.00  0.00    -0.345 OA
ATOM     17  C   UNK d   1      19.133 -55.547  32.869  0.00  0.00     0.017 A 
ATOM     18  C   UNK d   1      21.247 -56.461  28.825  0.00  0.00     0.129 C 
ATOM     19  C   UNK d   1      22.691 -56.685  29.232  0.00  0.00     0.040 C 
ENDBRANCH   8  10
ENDBRANCH   7   8
BRANCH   1  20
ATOM     20  C   UNK d   1      16.729 -56.373  36.332  0.00  0.00    -0.026 A 
ATOM     21  C   UNK d   1      15.974 -56.171  37.477  0.00  0.00     0.049 A 
ATOM     22  C   UNK d   1      16.124 -55.076  38.260  0.00  0.00     0.103 A 
ATOM     23  C   UNK d   1      17.069 -54.124  37.901  0.00  0.00     0.116 A 
ATOM     24  C   UNK d   1      17.832 -54.329  36.743  0.00  0.00     0.047 A 
ATOM     25 Br   UNK d   1      19.123 -53.029  36.255  0.00  0.00    -0.048 Br
ATOM     26  C   UNK d   1      17.671 -55.449  35.952  0.00  0.00     0.031 A 
BRANCH  22  27
ATOM     27  O   UNK d   1      15.360 -54.876  39.413  0.00  0.00    -0.353 OA
ATOM     28  C   UNK d   1      14.425 -55.806  39.887  0.00  0.00     0.210 C 
ENDBRANCH  22  27
BRANCH  23  29
ATOM     29  O   UNK d   1      17.231 -53.010  38.686  0.00  0.00    -0.357 OA
ATOM     30  H   UNK d   1      18.040 -52.446  38.598  0.00  0.00     0.218 HD
ENDBRANCH  23  29
ENDBRANCH   1  20
BRANCH   2  31
ATOM     31  C   UNK d   1      14.084 -57.954  36.371  0.00  0.00     0.129 C 
BRANCH  31  32
ATOM     32  C   UNK d   1      13.511 -59.307  36.391  0.00  0.00     0.048 C 
BRANCH  32  33
ATOM     33  C   UNK d   1      12.224 -59.532  35.690  0.00  0.00     0.235 C 
BRANCH  33  34
ATOM     34  N   UNK d   1      12.344 -60.252  34.446  0.00  0.00    -0.079 N 
ATOM     35  C   UNK d   1      11.329 -61.315  34.409  0.00  0.00     0.269 C 
ATOM     36  C   UNK d   1      13.641 -60.904  34.450  0.00  0.00     0.269 C 
ATOM     37  H   UNK d   1      12.291 -59.676  33.601  0.00  0.00     0.278 HD
ENDBRANCH  33  34
ENDBRANCH  32  33
ENDBRANCH  31  32
ENDBRANCH   2  31
TORSDOF 9
ENDMDL
