MODEL 1
REMARK VINA RESULT:    -9.945      0.000      0.000
REMARK INTER + INTRA:         -11.192
REMARK INTER:                 -11.398
REMARK INTRA:                   0.207
REMARK UNBOUND:                 0.207
REMARK  3 active torsions:
REMARK  status: ('A' for Active; 'I' for Inactive)
REMARK    1  A    between atoms: C_3  and  O_25 
REMARK    2  A    between atoms: C_6  and  C_8 
REMARK    3  A    between atoms: C_10  and  C_21 
ROOT
ATOM      1  C   UNK d   1      17.548 -57.857  34.683  0.00  0.00     0.270 C 
ATOM      2  N   UNK d   1      16.569 -58.605  34.011  0.00  0.00    -0.047 N 
ATOM      3  C   UNK d   1      15.284 -58.748  34.583  0.00  0.00     0.291 C 
ATOM      4  C   UNK d   1      15.203 -58.495  36.064  0.00  0.00     0.086 C 
ATOM      5  C   UNK d   1      15.950 -57.278  36.462  0.00  0.00    -0.018 A 
ATOM      6  C   UNK d   1      15.728 -56.331  37.425  0.00  0.00    -0.001 A 
ATOM      7  C   UNK d   1      16.781 -55.442  37.302  0.00  0.00     0.043 A 
ATOM      8  N   UNK d   1      17.596 -55.856  36.295  0.00  0.00    -0.356 N 
ATOM      9  C   UNK d   1      17.089 -56.983  35.778  0.00  0.00     0.052 A 
ATOM     10  C   UNK d   1      16.797 -54.373  38.173  0.00  0.00     0.030 A 
ATOM     11  C   UNK d   1      15.812 -54.196  39.121  0.00  0.00     0.002 A 
ATOM     12  C   UNK d   1      14.763 -55.084  39.242  0.00  0.00     0.001 A 
ATOM     13  C   UNK d   1      14.732 -56.164  38.376  0.00  0.00     0.014 A 
ATOM     14  H   UNK d   1      16.447 -58.284  33.008  0.00  0.00     0.279 HD
ATOM     15  H   UNK d   1      16.960 -59.591  33.865  0.00  0.00     0.279 HD
ATOM     16  H   UNK d   1      18.453 -55.318  36.042  0.00  0.00     0.166 HD
ENDROOT
BRANCH   1  17
ATOM     17  C   UNK d   1      18.254 -56.979  33.708  0.00  0.00    -0.019 A 
ATOM     18  C   UNK d   1      18.879 -55.810  34.086  0.00  0.00     0.031 A 
ATOM     19  C   UNK d   1      19.496 -55.077  33.096  0.00  0.00     0.046 A 
ATOM     20  C   UNK d   1      19.520 -55.449  31.768  0.00  0.00     0.100 A 
ATOM     21 Br   UNK d   1      20.370 -53.456  33.586  0.00  0.00    -0.048 Br
ATOM     22  C   UNK d   1      18.895 -56.616  31.398  0.00  0.00     0.046 A 
ATOM     23 Br   UNK d   1      18.905 -57.163  29.578  0.00  0.00    -0.048 Br
ATOM     24  C   UNK d   1      18.262 -57.374  32.388  0.00  0.00     0.031 A 
BRANCH  20  25
ATOM     25  O   UNK d   1      20.174 -54.643  30.815  0.00  0.00    -0.358 OA
ATOM     26  H   UNK d   1      20.616 -55.105  30.033  0.00  0.00     0.217 HD
ENDBRANCH  20  25
ENDBRANCH   1  17
BRANCH   3  27
ATOM     27  C   UNK d   1      14.264 -57.880  33.932  0.00  0.00     0.205 C 
ATOM     28  O   UNK d   1      14.647 -56.906  33.198  0.00  0.00    -0.646 OA
ATOM     29  O   UNK d   1      12.917 -58.136  34.131  0.00  0.00    -0.646 OA
ENDBRANCH   3  27
TORSDOF 3
ENDMDL
