MODEL 1
REMARK VINA RESULT:    -8.914      0.000      0.000
REMARK INTER + INTRA:         -12.999
REMARK INTER:                 -12.041
REMARK INTRA:                  -0.958
REMARK UNBOUND:                -0.958
REMARK  7 active torsions:
REMARK  status: ('A' for Active; 'I' for Inactive)
REMARK    1  A    between atoms: C_3  and  O_30 
REMARK    2  A    between atoms: C_5  and  O_29 
REMARK    3  A    between atoms: C_7  and  C_8 
REMARK    4  A    between atoms: N_9  and  N_10 
REMARK    5  A    between atoms: N_10  and  C_11 
REMARK    6  A    between atoms: C_13  and  N_23 
REMARK    7  A    between atoms: C_15  and  N_17 
ROOT
ATOM      1  C   UNK d   1      17.745 -57.510  33.355  0.00  0.00     0.774 A 
ATOM      2  N   UNK d   1      16.680 -57.490  34.162  0.00  0.00     0.133 NA
ATOM      3  C   UNK d   1      15.572 -58.238  33.918  0.00  0.00     0.756 A 
ATOM      4  N   UNK d   1      15.549 -59.023  32.829  0.00  0.00     0.131 NA
ATOM      5  C   UNK d   1      16.602 -59.067  32.000  0.00  0.00     0.756 A 
ATOM      6  N   UNK d   1      17.698 -58.299  32.278  0.00  0.00     0.133 NA
ENDROOT
BRANCH   1   7
ATOM      7  N   UNK d   1      18.867 -56.715  33.670  0.00  0.00    -0.105 N 
ATOM      8  H   UNK d   1      19.813 -57.124  33.522  0.00  0.00     0.208 HD
BRANCH   7   9
ATOM      9  N   UNK d   1      18.732 -55.391  34.173  0.00  0.00    -0.172 NA
ATOM     10  C   UNK d   1      19.154 -55.093  35.357  0.00  0.00     0.152 C 
BRANCH  10  11
ATOM     11  C   UNK d   1      19.063 -53.783  35.953  0.00  0.00     0.006 A 
ATOM     12  C   UNK d   1      18.143 -53.482  36.929  0.00  0.00     0.056 A 
ATOM     13 Br   UNK d   1      16.971 -54.877  37.490  0.00  0.00    -0.047 Br
ATOM     14  C   UNK d   1      18.054 -52.221  37.493  0.00  0.00     0.086 A 
ATOM     15  C   UNK d   1      18.918 -51.224  37.067  0.00  0.00     0.074 A 
ATOM     16  C   UNK d   1      19.848 -51.500  36.090  0.00  0.00     0.069 A 
ATOM     17  C   UNK d   1      19.906 -52.776  35.550  0.00  0.00     0.051 A 
BRANCH  14  18
ATOM     18  O   UNK d   1      17.117 -51.949  38.473  0.00  0.00    -0.359 OA
ATOM     19  H   UNK d   1      16.248 -52.466  38.462  0.00  0.00     0.217 HD
ENDBRANCH  14  18
BRANCH  16  20
ATOM     20  O   UNK d   1      20.691 -50.474  35.693  0.00  0.00    -0.361 OA
ATOM     21  H   UNK d   1      21.217 -49.891  36.330  0.00  0.00     0.217 HD
ENDBRANCH  16  20
ENDBRANCH  10  11
ENDBRANCH   7   9
ENDBRANCH   1   7
BRANCH   3  22
ATOM     22  N   UNK d   1      14.502 -58.139  34.831  0.00  0.00    -0.209 N 
ATOM     23  C   UNK d   1      13.167 -58.438  34.388  0.00  0.00     0.167 C 
ATOM     24  C   UNK d   1      12.665 -59.540  35.334  0.00  0.00     0.188 C 
ATOM     25  O   UNK d   1      12.656 -58.962  36.604  0.00  0.00    -0.388 OA
ATOM     26  C   UNK d   1      13.941 -58.719  37.078  0.00  0.00     0.188 C 
ATOM     27  C   UNK d   1      14.699 -57.742  36.203  0.00  0.00     0.167 C 
ENDBRANCH   3  22
BRANCH   5  28
ATOM     28  N   UNK d   1      16.585 -59.897  30.839  0.00  0.00    -0.209 N 
ATOM     29  C   UNK d   1      17.409 -59.661  29.678  0.00  0.00     0.167 C 
ATOM     30  C   UNK d   1      16.599 -59.798  28.407  0.00  0.00     0.188 C 
ATOM     31  O   UNK d   1      15.267 -60.092  28.655  0.00  0.00    -0.388 OA
ATOM     32  C   UNK d   1      15.195 -61.283  29.403  0.00  0.00     0.188 C 
ATOM     33  C   UNK d   1      15.693 -61.038  30.814  0.00  0.00     0.167 C 
ENDBRANCH   5  28
TORSDOF 7
ENDMDL
