MODEL 1
REMARK VINA RESULT:    -9.669      0.000      0.000
REMARK INTER + INTRA:         -12.315
REMARK INTER:                 -11.930
REMARK INTRA:                  -0.384
REMARK UNBOUND:                -0.384
REMARK  4 active torsions:
REMARK  status: ('A' for Active; 'I' for Inactive)
REMARK    1  A    between atoms: C_5  and  N_8 
REMARK    2  A    between atoms: C_10  and  C_14 
REMARK       I    between atoms: C_14  and  N_16 
REMARK    3  A    between atoms: N_16  and  C_17 
REMARK    4  A    between atoms: C_17  and  C_18 
ROOT
ATOM      1  N   UNK d   1      14.804 -57.626  35.410  0.00  0.00    -0.317 N 
ATOM      2  C   UNK d   1      16.165 -57.166  35.561  0.00  0.00     0.146 C 
ATOM      3  C   UNK d   1      16.741 -57.447  34.190  0.00  0.00     0.105 C 
ATOM      4  C   UNK d   1      15.636 -56.918  33.293  0.00  0.00     0.119 C 
ATOM      5  C   UNK d   1      14.452 -57.395  34.058  0.00  0.00     0.225 C 
ATOM      6  O   UNK d   1      13.317 -57.563  33.565  0.00  0.00    -0.273 OA
ENDROOT
BRANCH   3   7
ATOM      7  C   UNK d   1      18.019 -56.739  33.967  0.00  0.00     0.224 C 
ATOM      8  O   UNK d   1      18.959 -57.277  33.334  0.00  0.00    -0.273 OA
ATOM      9  N   UNK d   1      18.176 -55.434  34.479  0.00  0.00    -0.353 N 
ATOM     10  H   UNK d   1      17.406 -54.983  35.004  0.00  0.00     0.162 HD
BRANCH   9  11
ATOM     11  C   UNK d   1      19.405 -54.706  34.282  0.00  0.00     0.203 C 
BRANCH  11  12
ATOM     12  C   UNK d   1      19.446 -53.480  35.128  0.00  0.00     0.148 A 
ATOM     13  N   UNK d   1      18.632 -53.158  36.164  0.00  0.00    -0.319 N 
ATOM     14  C   UNK d   1      19.000 -51.967  36.667  0.00  0.00     0.130 A 
ATOM     15  C   UNK d   1      17.495 -53.710  36.878  0.00  0.00     0.132 C 
ATOM     16  N   UNK d   1      20.058 -51.572  35.914  0.00  0.00    -0.135 NA
ATOM     17  C   UNK d   1      18.119 -51.579  37.817  0.00  0.00     0.082 C 
ATOM     18  N   UNK d   1      20.326 -52.475  34.992  0.00  0.00    -0.133 NA
ATOM     19  C   UNK d   1      16.955 -52.533  37.663  0.00  0.00     0.028 C 
ENDBRANCH  11  12
ENDBRANCH   9  11
ENDBRANCH   3   7
BRANCH   1  20
ATOM     20  C   UNK d   1      14.032 -58.183  36.465  0.00  0.00     0.037 A 
ATOM     21  C   UNK d   1      13.317 -59.357  36.364  0.00  0.00     0.037 A 
ATOM     22  C   UNK d   1      12.571 -59.909  37.369  0.00  0.00    -0.043 A 
ATOM     23  C   UNK d   1      12.532 -59.233  38.583  0.00  0.00     0.017 A 
ATOM     24  C   UNK d   1      11.812 -61.181  37.225  0.00  0.00     0.049 C 
ATOM     25 Br   UNK d   1      11.500 -59.973  40.004  0.00  0.00    -0.051 Br
ATOM     26  C   UNK d   1      13.227 -58.052  38.747  0.00  0.00     0.022 A 
ATOM     27  C   UNK d   1      13.967 -57.535  37.701  0.00  0.00     0.031 A 
ENDBRANCH   1  20
TORSDOF 4
ENDMDL
