/Users/jonathanwahrer/Desktop/Msc/3_Semester/Drug_Design_Praktikum/waehrer_HTS_screening/HTS_experiment/out/docking_results/vina_output/6s1j/0056_docked.pdbqt
 OpenBabel03222221003D

 24 27  0  0  1  0  0  0  0  0999 V2000
   16.5060  -56.5160   33.8550 C   0  0  1  0  0  3  0  0  0  0  0  0
   15.8030  -57.6600   33.4730 C   0  0  1  0  0  0  0  0  0  0  0  0
   16.0610  -59.1220   33.3640 C   0  0  0  0  0  0  0  0  0  0  0  0
   15.4940  -59.4370   34.6990 N   0  0  0  0  0  2  0  0  0  0  0  0
   15.8620  -58.5000   35.5160 C   0  0  2  0  0  3  0  0  0  0  0  0
   16.6620  -57.5780   34.7720 C   0  0  2  0  0  0  0  0  0  0  0  0
   18.0470  -58.1340   34.7130 C   0  0  0  0  0  0  0  0  0  0  0  0
   19.1540  -58.5510   34.6740 N   0  0  0  0  0  0  0  0  0  0  0  0
   15.2150  -59.6400   32.3760 O   0  0  0  0  0  0  0  0  0  0  0  0
   16.0020  -60.3850   31.5200 C   0  0  0  0  0  2  0  0  0  0  0  0
   17.1740  -60.7680   32.4080 C   0  0  0  0  0  2  0  0  0  0  0  0
   17.3030  -59.5640   33.1430 O   0  0  0  0  0  0  0  0  0  0  0  0
   14.3180  -57.5170   33.6880 C   0  0  0  0  0  0  0  0  0  0  0  0
   13.1580  -57.3850   33.8670 N   0  0  0  0  0  0  0  0  0  0  0  0
   17.6030  -56.0660   32.9600 C   0  0  0  0  0  0  0  0  0  0  0  0
   18.5450  -55.1530   33.3620 C   0  0  0  0  0  0  0  0  0  0  0  0
   18.5280  -54.3980   35.1150 Br  0  0  0  0  0  0  0  0  0  0  0  0
   19.5350  -54.7790   32.4630 C   0  0  0  0  0  3  0  0  0  0  0  0
   19.5910  -55.3110   31.1700 C   0  0  0  0  0  3  0  0  0  0  0  0
   18.6380  -56.2240   30.7880 C   0  0  0  0  0  3  0  0  0  0  0  0
   17.6510  -56.5940   31.6910 C   0  0  0  0  0  3  0  0  0  0  0  0
   15.5170  -58.4200   36.9170 N   0  0  0  0  0  0  0  0  0  0  0  0
   14.7920  -59.0390   37.3280 H   0  0  0  0  0  0  0  0  0  0  0  0
   15.9900  -57.7400   37.5410 H   0  0  0  0  0  0  0  0  0  0  0  0
  1 15  1  6  0  0  0
  1  6  1  0  0  0  0
  2 13  1  1  0  0  0
  2  1  1  0  0  0  0
  2  6  1  0  0  0  0
  3  2  1  0  0  0  0
  3  4  1  0  0  0  0
  4  5  1  0  0  0  0
  5 22  1  1  0  0  0
  6  7  1  6  0  0  0
  6  5  1  0  0  0  0
  8  7  3  0  0  0  0
  9  3  1  0  0  0  0
 10  9  1  0  0  0  0
 10 11  1  0  0  0  0
 11 12  1  0  0  0  0
 12  3  1  0  0  0  0
 13 14  3  0  0  0  0
 15 16  1  0  0  0  0
 16 17  1  0  0  0  0
 18 16  2  0  0  0  0
 19 18  1  0  0  0  0
 20 19  2  0  0  0  0
 20 21  1  0  0  0  0
 21 15  2  0  0  0  0
 22 23  1  0  0  0  0
 22 24  1  0  0  0  0
M  END
>  <Pose>
1

>  <Score>
-7.825

$$$$
