/Users/jonathanwahrer/Desktop/Msc/3_Semester/Drug_Design_Praktikum/waehrer_HTS_screening/HTS_experiment/out/docking_results/vina_output/6s1j/0064_docked.pdbqt
 OpenBabel03222221003D

 22 25  0  0  1  0  0  0  0  0999 V2000
   17.7010  -56.9080   33.8420 N   0  0  0  0  0  0  0  0  0  0  0  0
   16.3240  -57.0140   33.5170 C   0  0  0  0  0  0  0  0  0  0  0  0
   15.6680  -56.1240   32.9470 O   0  0  0  0  0  0  0  0  0  0  0  0
   15.7750  -58.3210   33.9430 C   0  0  2  0  0  3  0  0  0  0  0  0
   14.7380  -58.2060   35.0060 C   0  0  1  0  0  0  0  0  0  0  0  0
   15.1630  -59.0800   36.0410 O   0  0  0  0  0  0  0  0  0  0  0  0
   16.4760  -58.5550   36.1580 C   0  0  1  0  0  3  0  0  0  0  0  0
   16.9460  -58.9190   34.7440 C   0  0  2  0  0  3  0  0  0  0  0  0
   18.1480  -58.1640   34.3610 C   0  0  0  0  0  0  0  0  0  0  0  0
   19.3450  -58.5160   34.4520 O   0  0  0  0  0  0  0  0  0  0  0  0
   16.1810  -57.1120   36.2860 C   0  0  0  0  0  2  0  0  0  0  0  0
   14.9900  -56.9170   35.7210 C   0  0  0  0  0  2  0  0  0  0  0  0
   18.5680  -55.7900   33.7200 C   0  0  0  0  0  0  0  0  0  0  0  0
   19.1400  -55.3900   32.5330 C   0  0  0  0  0  0  0  0  0  0  0  0
   18.7170  -56.4290   30.9660 Br  0  0  0  0  0  0  0  0  0  0  0  0
   19.9790  -54.3030   32.4410 C   0  0  0  0  0  3  0  0  0  0  0  0
   20.2920  -53.5550   33.5450 C   0  0  0  0  0  3  0  0  0  0  0  0
   19.7330  -53.9300   34.7610 C   0  0  0  0  0  3  0  0  0  0  0  0
   18.8920  -55.0240   34.8350 C   0  0  0  0  0  3  0  0  0  0  0  0
   13.3360  -58.4160   34.6160 C   0  0  0  0  0  2  0  0  0  0  0  0
   13.1940  -58.0340   33.2690 O   0  0  0  0  0  0  0  0  0  0  0  0
   13.1520  -57.0350   33.2110 H   0  0  0  0  0  0  0  0  0  0  0  0
  1  9  1  0  0  0  0
  2  1  1  0  0  0  0
  3  2  2  0  0  0  0
  4  2  1  1  0  0  0
  4  8  1  0  0  0  0
  4  5  1  0  0  0  0
  5 20  1  6  0  0  0
  5 12  1  0  0  0  0
  5  6  1  0  0  0  0
  6  7  1  0  0  0  0
  7 11  1  6  0  0  0
  8  9  1  6  0  0  0
  8  7  1  0  0  0  0
  9 10  2  0  0  0  0
 12 11  1  0  0  0  0
 13  1  1  0  0  0  0
 13 19  1  0  0  0  0
 14 13  2  0  0  0  0
 15 14  1  0  0  0  0
 16 14  1  0  0  0  0
 16 17  2  0  0  0  0
 17 18  1  0  0  0  0
 18 19  2  0  0  0  0
 21 20  1  0  0  0  0
 22 21  1  0  0  0  0
M  END
>  <Pose>
1

>  <Score>
-7.596

$$$$
