/Users/jonathanwahrer/Desktop/Msc/3_Semester/Drug_Design_Praktikum/waehrer_HTS_screening/HTS_experiment/out/docking_results/vina_output/6s1j/0067_docked.pdbqt
 OpenBabel03222221003D

 22 25  0  0  1  0  0  0  0  0999 V2000
   17.7620  -56.3760   34.3150 N   0  0  0  0  0  0  0  0  0  0  0  0
   17.7670  -55.4400   33.1740 C   0  0  0  0  0  2  0  0  0  0  0  0
   17.9050  -56.3520   32.0460 C   0  0  2  0  0  0  0  0  0  0  0  0
   16.7140  -56.9150   31.5580 O   0  0  0  0  0  0  0  0  0  0  0  0
   17.3400  -57.8280   30.6680 C   0  0  2  0  0  3  0  0  0  0  0  0
   18.0790  -58.6600   31.7260 C   0  0  1  0  0  3  0  0  0  0  0  0
   18.7300  -57.5650   32.5120 C   0  0  2  0  0  3  0  0  0  0  0  0
   18.4800  -57.5470   33.9440 C   0  0  0  0  0  0  0  0  0  0  0  0
   18.8360  -58.4250   34.7560 O   0  0  0  0  0  0  0  0  0  0  0  0
   18.2620  -56.9090   29.9390 C   0  0  0  0  0  2  0  0  0  0  0  0
   18.5140  -55.8980   30.8000 C   0  0  0  0  0  2  0  0  0  0  0  0
   17.1520  -56.1810   35.5810 C   0  0  0  0  0  0  0  0  0  0  0  0
   17.5900  -55.2220   36.4780 C   0  0  0  0  0  0  0  0  0  0  0  0
   19.0420  -54.0860   36.0860 Br  0  0  0  0  0  0  0  0  0  0  0  0
   16.9660  -55.0570   37.7170 C   0  0  0  0  0  3  0  0  0  0  0  0
   15.9030  -55.8370   38.0870 C   0  0  0  0  0  3  0  0  0  0  0  0
   15.4590  -56.7850   37.2210 C   0  0  0  0  0  3  0  0  0  0  0  0
   16.0720  -56.9460   36.0030 C   0  0  0  0  0  3  0  0  0  0  0  0
   16.9950  -59.3040   32.5330 C   0  0  0  0  0  0  0  0  0  0  0  0
   15.8540  -58.8290   32.6280 O   0  0  0  0  0  0  0  0  0  0  0  0
   17.2830  -60.4860   33.2040 O   0  0  0  0  0  0  0  0  0  0  0  0
   16.9600  -61.7290   32.5700 C   0  0  0  0  0  1  0  0  0  0  0  0
  1 12  1  0  0  0  0
  2  1  1  0  0  0  0
  3 11  1  6  0  0  0
  3  7  1  0  0  0  0
  3  2  1  0  0  0  0
  4  3  1  0  0  0  0
  5 10  1  6  0  0  0
  5  4  1  0  0  0  0
  5  6  1  0  0  0  0
  6  7  1  0  0  0  0
  6 19  1  1  0  0  0
  7  8  1  1  0  0  0
  8  1  1  0  0  0  0
  8  9  2  0  0  0  0
 10 11  1  0  0  0  0
 12 18  2  0  0  0  0
 12 13  1  0  0  0  0
 13 15  2  0  0  0  0
 14 13  1  0  0  0  0
 15 16  1  0  0  0  0
 17 16  2  0  0  0  0
 18 17  1  0  0  0  0
 19 20  2  0  0  0  0
 19 21  1  0  0  0  0
 22 21  1  0  0  0  0
M  END
>  <Pose>
1

>  <Score>
-7.556

$$$$
