MODEL 1
REMARK VINA RESULT:    -8.522      0.000      0.000
REMARK INTER + INTRA:          -9.509
REMARK INTER:                  -9.518
REMARK INTRA:                   0.008
REMARK UNBOUND:                 0.008
REMARK  2 active torsions:
REMARK  status: ('A' for Active; 'I' for Inactive)
REMARK    1  A    between atoms: N_4  and  C_8 
REMARK    2  A    between atoms: C_8  and  C_9 
ROOT
ATOM      1  C   UNK d   1      15.577 -55.670  38.484  0.00  0.00     0.168 A 
ATOM      2  N   UNK d   1      15.416 -54.402  38.905  0.00  0.00    -0.148 NA
ATOM      3  N   UNK d   1      16.362 -53.632  38.364  0.00  0.00    -0.206 N 
ATOM      4  C   UNK d   1      17.152 -54.395  37.582  0.00  0.00     0.169 A 
ATOM      5  N   UNK d   1      16.650 -55.640  37.674  0.00  0.00    -0.209 NA
ATOM      6  C   UNK d   1      18.210 -53.808  36.915  0.00  0.00     0.079 A 
ATOM      7  C   UNK d   1      18.490 -52.460  37.017  0.00  0.00     0.162 A 
ATOM      8  N   UNK d   1      19.568 -52.153  36.268  0.00  0.00    -0.256 N 
ATOM      9  N   UNK d   1      19.975 -53.269  35.695  0.00  0.00    -0.182 NA
ATOM     10  C   UNK d   1      19.172 -54.310  36.063  0.00  0.00     0.158 A 
ATOM     11  C   UNK d   1      20.198 -50.854  36.092  0.00  0.00     0.182 C 
ATOM     12  N   UNK d   1      17.678 -51.735  37.807  0.00  0.00    -0.222 NA
ATOM     13  C   UNK d   1      16.640 -52.319  38.461  0.00  0.00     0.239 A 
ENDROOT
BRANCH   1  14
ATOM     14  C   UNK d   1      14.736 -56.863  38.845  0.00  0.00     0.233 C 
BRANCH  14  15
ATOM     15  N   UNK d   1      14.197 -57.503  37.668  0.00  0.00    -0.265 N 
ATOM     16  C   UNK d   1      13.267 -58.469  37.685  0.00  0.00     0.046 A 
ATOM     17  C   UNK d   1      13.030 -58.803  36.377  0.00  0.00     0.060 A 
ATOM     18  C   UNK d   1      12.593 -59.089  38.870  0.00  0.00     0.071 C 
ATOM     19 Br   UNK d   1      11.811 -60.114  35.743  0.00  0.00    -0.047 Br
ATOM     20  C   UNK d   1      13.828 -58.029  35.577  0.00  0.00     0.070 A 
ATOM     21  N   UNK d   1      14.532 -57.240  36.420  0.00  0.00    -0.176 NA
ATOM     22  C   UNK d   1      13.919 -58.035  34.072  0.00  0.00     0.074 C 
ENDBRANCH  14  15
ENDBRANCH   1  14
TORSDOF 2
ENDMDL
