MODEL 1
REMARK VINA RESULT:    -8.614      0.000      0.000
REMARK INTER + INTRA:         -10.718
REMARK INTER:                 -10.124
REMARK INTRA:                  -0.594
REMARK UNBOUND:                -0.594
REMARK  3 active torsions:
REMARK  status: ('A' for Active; 'I' for Inactive)
REMARK    1  A    between atoms: C_3  and  C_8 
REMARK       I    between atoms: C_8  and  N_10 
REMARK    2  A    between atoms: N_10  and  C_11 
REMARK    3  A    between atoms: C_17  and  N_20 
ROOT
ATOM      1  C   UNK d   1      17.944 -54.698  33.805  0.00  0.00     0.069 A 
ATOM      2  C   UNK d   1      17.260 -55.720  33.116  0.00  0.00     0.146 A 
ATOM      3  N   UNK d   1      16.067 -56.320  33.378  0.00  0.00    -0.101 NA
ATOM      4  O   UNK d   1      15.873 -57.204  32.446  0.00  0.00    -0.106 OA
ATOM      5  N   UNK d   1      16.861 -57.208  31.607  0.00  0.00    -0.101 NA
ATOM      6  C   UNK d   1      17.765 -56.293  31.979  0.00  0.00     0.146 A 
ATOM      7  C   UNK d   1      18.974 -55.910  31.433  0.00  0.00     0.064 A 
ATOM      8  C   UNK d   1      19.642 -54.909  32.111  0.00  0.00     0.034 A 
ATOM      9  C   UNK d   1      19.137 -54.319  33.268  0.00  0.00     0.034 A 
ENDROOT
BRANCH   1  10
ATOM     10  N   UNK d   1      17.325 -54.180  34.970  0.00  0.00    -0.319 N 
ATOM     11  C   UNK d   1      17.871 -54.195  36.250  0.00  0.00     0.275 C 
ATOM     12  O   UNK d   1      19.037 -54.706  36.443  0.00  0.00    -0.266 OA
ATOM     13  H   UNK d   1      16.366 -53.725  34.891  0.00  0.00     0.169 HD
BRANCH  11  14
ATOM     14  C   UNK d   1      17.190 -53.650  37.443  0.00  0.00     0.139 A 
ATOM     15  C   UNK d   1      16.253 -54.230  38.233  0.00  0.00     0.064 A 
ATOM     16 Br   UNK d   1      15.506 -55.985  38.128  0.00  0.00    -0.047 Br
ATOM     17  C   UNK d   1      15.910 -53.283  39.219  0.00  0.00     0.160 A 
ATOM     18  N   UNK d   1      16.653 -52.215  38.956  0.00  0.00    -0.183 NA
ATOM     19  N   UNK d   1      17.428 -52.379  37.916  0.00  0.00    -0.268 N 
ATOM     20  C   UNK d   1      18.352 -51.420  37.368  0.00  0.00     0.180 C 
ENDBRANCH  11  14
ENDBRANCH   1  10
BRANCH   7  21
ATOM     21  N   UNK d   1      19.506 -56.490  30.267  0.00  0.00    -0.375 N 
ATOM     22  C   UNK d   1      20.409 -57.629  30.408  0.00  0.00     0.149 C 
ATOM     23  C   UNK d   1      21.023 -58.017  29.091  0.00  0.00     0.187 C 
ATOM     24  O   UNK d   1      21.377 -56.995  28.274  0.00  0.00    -0.388 OA
ATOM     25  C   UNK d   1      20.657 -55.837  28.326  0.00  0.00     0.187 C 
ATOM     26  C   UNK d   1      19.284 -56.113  28.904  0.00  0.00     0.149 C 
ENDBRANCH   7  21
TORSDOF 3
ENDMDL
