MODEL 1
REMARK VINA RESULT:    -9.344      0.000      0.000
REMARK INTER + INTRA:         -11.951
REMARK INTER:                 -11.529
REMARK INTRA:                  -0.421
REMARK UNBOUND:                -0.421
REMARK  4 active torsions:
REMARK  status: ('A' for Active; 'I' for Inactive)
REMARK    1  A    between atoms: C_4  and  C_13 
REMARK    2  A    between atoms: C_5  and  N_8 
REMARK       I    between atoms: C_13  and  N_15 
REMARK    3  A    between atoms: N_15  and  C_16 
REMARK    4  A    between atoms: C_16  and  C_17 
ROOT
ATOM      1  C   UNK d   1      18.275 -57.007  34.732  0.00  0.00     0.254 C 
ATOM      2  O   UNK d   1      19.040 -58.019  34.836  0.00  0.00    -0.268 OA
ATOM      3  N   UNK d   1      18.616 -55.783  34.210  0.00  0.00    -0.350 N 
ATOM      4  H   UNK d   1      19.883 -56.222  33.975  0.00  0.00     0.163 HD
ENDROOT
BRANCH   1   5
ATOM      5  C   UNK d   1      16.866 -57.207  35.242  0.00  0.00     0.062 A 
ATOM      6  C   UNK d   1      16.539 -56.956  36.550  0.00  0.00     0.038 A 
ATOM      7  C   UNK d   1      15.219 -57.170  36.966  0.00  0.00     0.012 A 
ATOM      8 Br   UNK d   1      14.742 -56.833  38.767  0.00  0.00    -0.051 Br
ATOM      9  C   UNK d   1      14.272 -57.623  36.081  0.00  0.00     0.021 A 
ATOM     10  C   UNK d   1      14.602 -57.875  34.765  0.00  0.00     0.034 A 
ATOM     11  C   UNK d   1      15.928 -57.657  34.352  0.00  0.00     0.077 A 
BRANCH  11  12
ATOM     12  N   UNK d   1      16.336 -57.888  33.015  0.00  0.00    -0.205 N 
ATOM     13  N   UNK d   1      16.355 -56.954  32.084  0.00  0.00    -0.040 NA
ATOM     14  N   UNK d   1      16.776 -57.444  30.938  0.00  0.00    -0.023 NA
ATOM     15  N   UNK d   1      17.041 -58.729  31.113  0.00  0.00    -0.122 NA
ATOM     16  C   UNK d   1      16.767 -58.995  32.394  0.00  0.00     0.262 A 
ENDBRANCH  11  12
ENDBRANCH   1   5
BRANCH   3  17
ATOM     17  C   UNK d   1      18.957 -54.566  33.690  0.00  0.00     0.203 C 
BRANCH  17  18
ATOM     18  C   UNK d   1      19.273 -53.512  34.739  0.00  0.00     0.152 A 
ATOM     19  N   UNK d   1      18.459 -53.169  35.762  0.00  0.00    -0.290 N 
ATOM     20  C   UNK d   1      19.030 -52.212  36.505  0.00  0.00     0.157 A 
ATOM     21  C   UNK d   1      17.226 -53.637  36.106  0.00  0.00     0.100 A 
ATOM     22  N   UNK d   1      20.217 -51.963  35.930  0.00  0.00    -0.130 NA
ATOM     23  C   UNK d   1      18.372 -51.693  37.628  0.00  0.00     0.053 A 
ATOM     24  N   UNK d   1      20.367 -52.752  34.856  0.00  0.00    -0.132 NA
ATOM     25  C   UNK d   1      17.136 -52.160  37.979  0.00  0.00     0.005 A 
ATOM     26  C   UNK d   1      16.548 -53.146  37.212  0.00  0.00     0.018 A 
ENDBRANCH  17  18
ENDBRANCH   3  17
TORSDOF 4
ENDMDL
