/Users/jonathanwahrer/Desktop/Msc/3_Semester/Drug_Design_Praktikum/waehrer_HTS_screening/HTS_experiment/out/docking_results/vina_output/6s1j/0106_docked.pdbqt
 OpenBabel03222221003D

 29 32  0  0  0  0  0  0  0  0999 V2000
   17.9720  -53.3870   36.5540 C   0  0  0  0  0  3  0  0  0  0  0  0
   17.1510  -54.2410   37.1000 C   0  0  0  0  0  0  0  0  0  0  0  0
   16.8600  -55.4930   36.5800 O   0  0  0  0  0  0  0  0  0  0  0  0
   15.9570  -56.1810   37.3690 C   0  0  0  0  0  0  0  0  0  0  0  0
   15.5940  -55.4240   38.4600 C   0  0  0  0  0  0  0  0  0  0  0  0
   14.6960  -55.9230   39.3800 C   0  0  0  0  0  3  0  0  0  0  0  0
   14.1660  -57.1830   39.1960 C   0  0  0  0  0  3  0  0  0  0  0  0
   14.5540  -57.9360   38.0710 C   0  0  0  0  0  0  0  0  0  0  0  0
   15.4400  -57.4660   37.1500 C   0  0  0  0  0  0  0  0  0  0  0  0
   13.9350  -59.1950   38.0150 O   0  0  0  0  0  1  0  0  0  0  0  0
   16.3420  -54.1710   38.3210 C   0  0  0  0  0  0  0  0  0  0  0  0
   16.3070  -53.1960   39.1030 O   0  0  0  0  0  0  0  0  0  0  0  0
   18.7200  -53.5760   35.3220 C   0  0  0  0  0  0  0  0  0  0  0  0
   18.3230  -54.4470   34.3320 C   0  0  0  0  0  3  0  0  0  0  0  0
   19.0170  -54.6500   33.1740 C   0  0  0  0  0  0  0  0  0  0  0  0
   18.4980  -55.8460   31.7850 Br  0  0  0  0  0  0  0  0  0  0  0  0
   20.1940  -53.9270   33.0010 C   0  0  0  0  0  3  0  0  0  0  0  0
   20.6450  -53.0340   33.9650 C   0  0  0  0  0  3  0  0  0  0  0  0
   19.9080  -52.8710   35.1060 C   0  0  0  0  0  0  0  0  0  0  0  0
   20.3310  -51.9950   36.0860 O   0  0  0  0  0  0  0  0  0  0  0  0
   20.3220  -50.6110   35.8530 C   0  0  0  0  0  1  0  0  0  0  0  0
   15.8860  -58.1960   35.9960 C   0  0  0  0  0  2  0  0  0  0  0  0
   15.6460  -57.7650   34.6800 N   0  0  0  0  0  4  0  0  0  0  0  0
   16.2890  -58.5260   33.6440 C   0  0  0  0  0  2  0  0  0  0  0  0
   15.5530  -59.7860   33.2590 C   0  0  0  0  0  2  0  0  0  0  0  0
   14.4500  -60.0520   34.0590 O   0  0  0  0  0  0  0  0  0  0  0  0
   13.6040  -58.9540   33.9350 C   0  0  0  0  0  2  0  0  0  0  0  0
   14.2070  -57.6610   34.3760 C   0  0  0  0  0  2  0  0  0  0  0  0
   15.9630  -56.7780   34.5810 H   0  0  0  0  0  0  0  0  0  0  0  0
  1  2  2  0  0  0  0
  2 11  1  0  0  0  0
  3  2  1  0  0  0  0
  3  4  1  0  0  0  0
  4  5  1  0  0  0  0
  5  6  2  0  0  0  0
  7  6  1  0  0  0  0
  8  7  2  0  0  0  0
  9  4  2  0  0  0  0
  9  8  1  0  0  0  0
 10  8  1  0  0  0  0
 11  5  1  0  0  0  0
 11 12  2  0  0  0  0
 13  1  1  0  0  0  0
 14 13  2  0  0  0  0
 15 14  1  0  0  0  0
 16 15  1  0  0  0  0
 17 15  2  0  0  0  0
 17 18  1  0  0  0  0
 18 19  2  0  0  0  0
 19 13  1  0  0  0  0
 19 20  1  0  0  0  0
 21 20  1  0  0  0  0
 22  9  1  0  0  0  0
 23 22  1  0  0  0  0
 24 23  1  0  0  0  0
 25 24  1  0  0  0  0
 25 26  1  0  0  0  0
 27 26  1  0  0  0  0
 27 28  1  0  0  0  0
 28 23  1  0  0  0  0
 29 23  1  0  0  0  0
M  END
>  <Pose>
1

>  <Score>
-9.587

$$$$
