MODEL 1
REMARK VINA RESULT:    -8.889      0.000      0.000
REMARK INTER + INTRA:         -11.036
REMARK INTER:                 -11.488
REMARK INTRA:                   0.452
REMARK UNBOUND:                 0.452
REMARK  5 active torsions:
REMARK  status: ('A' for Active; 'I' for Inactive)
REMARK    1  A    between atoms: C_4  and  C_10 
REMARK    2  A    between atoms: C_5  and  O_8 
REMARK    3  A    between atoms: N_15  and  C_25 
REMARK    4  A    between atoms: C_25  and  C_26 
REMARK    5  A    between atoms: C_26  and  O_27 
ROOT
ATOM      1  C   UNK d   1      16.858 -55.789  34.319  0.00  0.00     0.188 A 
ATOM      2  N   UNK d   1      16.005 -56.612  34.889  0.00  0.00    -0.106 N 
ATOM      3  C   UNK d   1      15.350 -57.355  33.941  0.00  0.00     0.736 A 
ATOM      4  N   UNK d   1      15.829 -56.952  32.743  0.00  0.00     0.045 NA
ATOM      5  N   UNK d   1      16.712 -56.035  32.947  0.00  0.00    -0.114 NA
ATOM      6  N   UNK d   1      14.489 -58.184  34.536  0.00  0.00    -0.168 N 
ATOM      7  C   UNK d   1      14.588 -57.971  35.858  0.00  0.00     0.165 A 
ATOM      8  C   UNK d   1      15.533 -56.983  36.106  0.00  0.00     0.170 A 
ATOM      9  N   UNK d   1      15.817 -56.556  37.322  0.00  0.00    -0.287 N 
ATOM     10  C   UNK d   1      15.136 -57.142  38.356  0.00  0.00     0.330 A 
ATOM     11  O   UNK d   1      15.329 -56.813  39.554  0.00  0.00    -0.246 OA
ATOM     12  N   UNK d   1      14.214 -58.107  38.153  0.00  0.00    -0.273 N 
ATOM     13  C   UNK d   1      13.923 -58.535  36.931  0.00  0.00     0.280 A 
ATOM     14  O   UNK d   1      13.076 -59.429  36.677  0.00  0.00    -0.265 OA
ATOM     15  C   UNK d   1      16.699 -55.502  37.724  0.00  0.00     0.163 C 
ATOM     16  H   UNK d   1      13.705 -58.544  38.951  0.00  0.00     0.173 HD
ENDROOT
BRANCH   1  17
ATOM     17  C   UNK d   1      17.818 -54.789  34.691  0.00  0.00     0.047 A 
ATOM     18  C   UNK d   1      17.731 -53.835  35.659  0.00  0.00     0.037 A 
ATOM     19  C   UNK d   1      18.675 -52.896  35.958  0.00  0.00     0.012 A 
ATOM     20 Br   UNK d   1      18.352 -51.644  37.361  0.00  0.00    -0.051 Br
ATOM     21  C   UNK d   1      19.837 -52.869  35.245  0.00  0.00     0.022 A 
ATOM     22  C   UNK d   1      20.012 -53.805  34.238  0.00  0.00     0.039 A 
ATOM     23  C   UNK d   1      19.034 -54.733  33.972  0.00  0.00     0.082 A 
BRANCH  23  24
ATOM     24  O   UNK d   1      19.249 -55.650  32.957  0.00  0.00    -0.355 OA
ATOM     25  C   UNK d   1      19.802 -55.338  31.717  0.00  0.00     0.210 C 
ENDBRANCH  23  24
ENDBRANCH   1  17
BRANCH   6  26
ATOM     26  C   UNK d   1      13.615 -59.132  33.909  0.00  0.00     0.174 C 
BRANCH  26  27
ATOM     27  C   UNK d   1      14.412 -60.346  33.479  0.00  0.00     0.187 C 
BRANCH  27  28
ATOM     28  O   UNK d   1      14.666 -60.240  32.126  0.00  0.00    -0.394 OA
ATOM     29  C   UNK d   1      16.013 -60.511  31.830  0.00  0.00     0.201 C 
ENDBRANCH  27  28
ENDBRANCH  26  27
ENDBRANCH   6  26
TORSDOF 5
ENDMDL
