MODEL 1
REMARK VINA RESULT:    -9.447      0.000      0.000
REMARK INTER + INTRA:         -11.746
REMARK INTER:                 -11.104
REMARK INTRA:                  -0.642
REMARK UNBOUND:                -0.642
REMARK  3 active torsions:
REMARK  status: ('A' for Active; 'I' for Inactive)
REMARK    1  A    between atoms: C_4  and  C_8 
REMARK       I    between atoms: C_8  and  N_10 
REMARK    2  A    between atoms: N_10  and  C_11 
REMARK    3  A    between atoms: C_11  and  C_13 
REMARK       I    between atoms: C_13  and  N_15 
ROOT
ATOM      1  C   UNK d   1      18.145 -56.457  32.516  0.00  0.00     0.242 C 
ATOM      2  O   UNK d   1      16.876 -56.501  32.454  0.00  0.00    -0.271 OA
ATOM      3  N   UNK d   1      18.921 -56.279  31.335  0.00  0.00    -0.350 N 
ATOM      4  C   UNK d   1      20.357 -56.387  31.326  0.00  0.00     0.129 C 
ATOM      5  C   UNK d   1      20.604 -57.638  30.451  0.00  0.00     0.068 C 
ATOM      6  C   UNK d   1      20.316 -57.182  29.046  0.00  0.00     0.204 C 
ATOM      7  N   UNK d   1      20.171 -58.393  28.239  0.00  0.00     0.099 N 
ATOM      8  C   UNK d   1      21.303 -59.241  28.292  0.00  0.00     0.277 C 
ATOM      9  C   UNK d   1      22.552 -58.605  27.710  0.00  0.00     0.091 C 
ATOM     10  C   UNK d   1      22.591 -57.150  27.951  0.00  0.00     0.062 A 
ATOM     11  N   UNK d   1      23.554 -56.264  27.648  0.00  0.00    -0.246 NA
ATOM     12  C   UNK d   1      23.126 -55.050  28.059  0.00  0.00     0.207 A 
ATOM     13  N   UNK d   1      21.897 -55.202  28.614  0.00  0.00    -0.350 N 
ATOM     14  C   UNK d   1      21.538 -56.499  28.564  0.00  0.00     0.074 A 
ATOM     15  C   UNK d   1      19.083 -56.365  28.879  0.00  0.00     0.068 C 
ATOM     16  C   UNK d   1      18.297 -55.999  30.092  0.00  0.00     0.129 C 
ATOM     17  H   UNK d   1      19.866 -58.179  27.256  0.00  0.00     0.317 HD
ATOM     18  H   UNK d   1      21.406 -54.364  28.987  0.00  0.00     0.166 HD
ENDROOT
BRANCH   1  19
ATOM     19  C   UNK d   1      18.740 -56.611  33.835  0.00  0.00     0.173 C 
ATOM     20  C   UNK d   1      18.509 -58.027  34.341  0.00  0.00     0.042 C 
BRANCH  19  21
ATOM     21  N   UNK d   1      18.401 -55.587  34.754  0.00  0.00    -0.344 N 
ATOM     22  C   UNK d   1      19.227 -54.526  35.112  0.00  0.00     0.252 C 
ATOM     23  O   UNK d   1      20.339 -54.220  34.720  0.00  0.00    -0.268 OA
ATOM     24  H   UNK d   1      17.412 -55.632  35.146  0.00  0.00     0.163 HD
BRANCH  22  25
ATOM     25  C   UNK d   1      18.627 -53.630  36.171  0.00  0.00     0.033 A 
ATOM     26  C   UNK d   1      17.557 -54.127  36.883  0.00  0.00     0.036 A 
ATOM     27  C   UNK d   1      16.952 -53.335  37.830  0.00  0.00     0.011 A 
ATOM     28 Br   UNK d   1      15.465 -54.028  38.840  0.00  0.00    -0.051 Br
ATOM     29  C   UNK d   1      17.380 -52.050  38.091  0.00  0.00     0.019 A 
ATOM     30  C   UNK d   1      18.465 -51.597  37.338  0.00  0.00     0.002 A 
ATOM     31  C   UNK d   1      19.083 -52.370  36.393  0.00  0.00     0.017 A 
ENDBRANCH  22  25
ENDBRANCH  19  21
ENDBRANCH   1  19
TORSDOF 3
ENDMDL
