/Users/jonathanwahrer/Desktop/Msc/3_Semester/Drug_Design_Praktikum/waehrer_HTS_screening/HTS_experiment/out/docking_results/vina_output/6s1j/0136_docked.pdbqt
 OpenBabel03222221023D

 30 33  0  0  1  0  0  0  0  0999 V2000
   14.7180  -57.4740   37.7510 C   0  0  2  0  0  3  0  0  0  0  0  0
   14.1030  -57.5900   36.3700 C   0  0  0  0  0  2  0  0  0  0  0  0
   13.2770  -58.7760   36.4820 N   0  0  0  0  0  0  0  0  0  0  0  0
   13.2040  -59.2300   37.8560 C   0  0  1  0  0  3  0  0  0  0  0  0
   13.5970  -57.9610   38.6250 C   0  0  0  0  0  2  0  0  0  0  0  0
   11.8280  -59.6320   38.1420 C   0  0  0  0  0  0  0  0  0  0  0  0
   11.2060  -59.1750   39.1120 O   0  0  0  0  0  0  0  0  0  0  0  0
   11.2170  -60.5700   37.2700 N   0  0  0  0  0  0  0  0  0  0  0  0
   11.6590  -60.6570   35.8970 C   0  0  1  0  0  3  0  0  0  0  0  0
   12.5540  -59.5440   35.5090 C   0  0  0  0  0  0  0  0  0  0  0  0
   12.6930  -59.2500   34.2930 O   0  0  0  0  0  0  0  0  0  0  0  0
   10.4500  -61.2090   37.5800 H   0  0  0  0  0  0  0  0  0  0  0  0
   15.1080  -56.1060   38.0460 N   0  0  0  0  0  0  0  0  0  0  0  0
   16.2820  -55.6200   37.4380 C   0  0  0  0  0  0  0  0  0  0  0  0
   16.9560  -56.3890   36.6580 O   0  0  0  0  0  0  0  0  0  0  0  0
   14.5670  -55.4980   38.6750 H   0  0  0  0  0  0  0  0  0  0  0  0
   16.7670  -54.2680   37.6610 C   0  0  0  0  0  0  0  0  0  0  0  0
   17.8740  -53.7950   36.9670 C   0  0  0  0  0  3  0  0  0  0  0  0
   18.3310  -52.5220   37.1700 C   0  0  0  0  0  0  0  0  0  0  0  0
   19.8570  -51.8820   36.2090 Br  0  0  0  0  0  0  0  0  0  0  0  0
   17.7210  -51.6760   38.0520 C   0  0  0  0  0  3  0  0  0  0  0  0
   16.6260  -52.1410   38.7370 C   0  0  0  0  0  3  0  0  0  0  0  0
   16.1560  -53.4300   38.5390 C   0  0  0  0  0  3  0  0  0  0  0  0
   12.2550  -62.0090   35.5630 C   0  0  0  0  0  2  0  0  0  0  0  0
   11.7200  -62.5890   34.3210 C   0  0  0  0  0  0  0  0  0  0  0  0
   10.3610  -62.5420   34.0690 C   0  0  0  0  0  3  0  0  0  0  0  0
    9.8540  -63.0820   32.9100 C   0  0  0  0  0  3  0  0  0  0  0  0
   10.6520  -63.6870   31.9570 C   0  0  0  0  0  3  0  0  0  0  0  0
   12.0070  -63.7370   32.2060 C   0  0  0  0  0  3  0  0  0  0  0  0
   12.5340  -63.1990   33.3640 C   0  0  0  0  0  3  0  0  0  0  0  0
  1 13  1  1  0  0  0
  1  5  1  0  0  0  0
  2  3  1  0  0  0  0
  2  1  1  0  0  0  0
  3  4  1  0  0  0  0
  4  6  1  0  0  0  0
  4  5  1  1  0  0  0
  6  7  2  0  0  0  0
  8 12  1  0  0  0  0
  8  6  1  0  0  0  0
  9 24  1  1  0  0  0
  9  8  1  0  0  0  0
 10  9  1  0  0  0  0
 10  3  1  0  0  0  0
 11 10  2  0  0  0  0
 13 16  1  0  0  0  0
 14 17  1  0  0  0  0
 14 13  1  0  0  0  0
 15 14  2  0  0  0  0
 17 23  1  0  0  0  0
 18 19  1  0  0  0  0
 18 17  2  0  0  0  0
 19 21  2  0  0  0  0
 20 19  1  0  0  0  0
 21 22  1  0  0  0  0
 23 22  2  0  0  0  0
 25 24  1  0  0  0  0
 26 25  1  0  0  0  0
 27 26  2  0  0  0  0
 28 29  2  0  0  0  0
 28 27  1  0  0  0  0
 29 30  1  0  0  0  0
 30 25  2  0  0  0  0
M  END
>  <Pose>
1

>  <Score>
-9.301

$$$$
