/Users/jonathanwahrer/Desktop/Msc/3_Semester/Drug_Design_Praktikum/waehrer_HTS_screening/HTS_experiment/out/docking_results/vina_output/6s1j/0137_docked.pdbqt
 OpenBabel03222221023D

 25 28  0  0  1  0  0  0  0  0999 V2000
   19.2330  -54.9880   34.2940 C   0  0  2  0  0  3  0  0  0  0  0  0
   19.5740  -54.4420   32.8580 C   0  0  0  0  0  2  0  0  0  0  0  0
   19.3160  -55.5550   32.0090 N   0  0  0  0  0  0  0  0  0  0  0  0
   18.4270  -56.4820   32.6930 C   0  0  1  0  0  3  0  0  0  0  0  0
   17.9340  -55.7350   33.8630 C   0  0  0  0  0  2  0  0  0  0  0  0
   17.4250  -57.0120   31.7550 C   0  0  0  0  0  0  0  0  0  0  0  0
   16.2500  -57.1610   32.1350 O   0  0  0  0  0  0  0  0  0  0  0  0
   17.7920  -57.3490   30.4330 N   0  0  0  0  0  0  0  0  0  0  0  0
   18.8400  -56.6050   29.7690 C   0  0  2  0  0  3  0  0  0  0  0  0
   19.5300  -57.5980   28.8560 C   0  0  0  0  0  2  0  0  0  0  0  0
   18.7340  -58.8510   28.9800 C   0  0  0  0  0  2  0  0  0  0  0  0
   17.3640  -58.3490   29.4600 C   0  0  0  0  0  2  0  0  0  0  0  0
   19.7310  -55.9160   30.6960 C   0  0  0  0  0  0  0  0  0  0  0  0
   20.9240  -55.6220   30.3360 O   0  0  0  0  0  0  0  0  0  0  0  0
   19.1170  -54.0290   35.2050 N   0  0  0  0  0  0  0  0  0  0  0  0
   19.0030  -53.0360   36.1460 C   0  0  0  0  0  0  0  0  0  0  0  0
   19.7040  -51.9910   36.3170 O   0  0  0  0  0  0  0  0  0  0  0  0
   20.2040  -53.3720   34.6730 H   0  0  0  0  0  0  0  0  0  0  0  0
   17.8990  -53.1200   37.1760 C   0  0  0  0  0  0  0  0  0  0  0  0
   17.2170  -54.2930   37.3910 C   0  0  0  0  0  3  0  0  0  0  0  0
   16.2130  -54.4020   38.3210 C   0  0  0  0  0  0  0  0  0  0  0  0
   15.2890  -56.0320   38.6400 Br  0  0  0  0  0  0  0  0  0  0  0  0
   15.8990  -53.2610   39.0540 C   0  0  0  0  0  3  0  0  0  0  0  0
   16.5580  -52.0780   38.8650 C   0  0  0  0  0  3  0  0  0  0  0  0
   17.5680  -52.0120   37.9140 C   0  0  0  0  0  3  0  0  0  0  0  0
  1 15  1  1  0  0  0
  2  1  1  0  0  0  0
  3  4  1  0  0  0  0
  3  2  1  0  0  0  0
  4  5  1  1  0  0  0
  5  1  1  0  0  0  0
  6  7  2  0  0  0  0
  6  4  1  0  0  0  0
  8  6  1  0  0  0  0
  9 10  1  1  0  0  0
  9  8  1  0  0  0  0
  9 13  1  0  0  0  0
 10 11  1  0  0  0  0
 11 12  1  0  0  0  0
 12  8  1  0  0  0  0
 13  3  1  0  0  0  0
 14 13  2  0  0  0  0
 15 16  1  0  0  0  0
 16 17  2  0  0  0  0
 16 19  1  0  0  0  0
 18 15  1  0  0  0  0
 19 20  2  0  0  0  0
 19 25  1  0  0  0  0
 20 21  1  0  0  0  0
 21 22  1  0  0  0  0
 21 23  2  0  0  0  0
 24 23  1  0  0  0  0
 25 24  2  0  0  0  0
M  END
>  <Pose>
1

>  <Score>
-9.788

$$$$
