MODEL 1
REMARK VINA RESULT:    -9.788      0.000      0.000
REMARK INTER + INTRA:         -11.398
REMARK INTER:                 -10.932
REMARK INTRA:                  -0.466
REMARK UNBOUND:                -0.466
REMARK  2 active torsions:
REMARK  status: ('A' for Active; 'I' for Inactive)
REMARK    1  A    between atoms: C_4  and  C_8 
REMARK       I    between atoms: C_8  and  N_10 
REMARK    2  A    between atoms: N_10  and  C_11 
ROOT
ATOM      1  C   UNK d   1      19.233 -54.988  34.294  0.00  0.00     0.105 C 
ATOM      2  C   UNK d   1      19.574 -54.442  32.858  0.00  0.00     0.152 C 
ATOM      3  N   UNK d   1      19.316 -55.555  32.009  0.00  0.00    -0.335 N 
ATOM      4  C   UNK d   1      18.427 -56.482  32.693  0.00  0.00     0.181 C 
ATOM      5  C   UNK d   1      17.934 -55.735  33.863  0.00  0.00     0.061 C 
ATOM      6  C   UNK d   1      17.425 -57.012  31.755  0.00  0.00     0.243 C 
ATOM      7  O   UNK d   1      16.250 -57.161  32.135  0.00  0.00    -0.271 OA
ATOM      8  N   UNK d   1      17.792 -57.349  30.433  0.00  0.00    -0.337 N 
ATOM      9  C   UNK d   1      18.840 -56.605  29.769  0.00  0.00     0.179 C 
ATOM     10  C   UNK d   1      19.530 -57.598  28.856  0.00  0.00     0.037 C 
ATOM     11  C   UNK d   1      18.734 -58.851  28.980  0.00  0.00     0.022 C 
ATOM     12  C   UNK d   1      17.364 -58.349  29.460  0.00  0.00     0.127 C 
ATOM     13  C   UNK d   1      19.731 -55.916  30.696  0.00  0.00     0.243 C 
ATOM     14  O   UNK d   1      20.924 -55.622  30.336  0.00  0.00    -0.271 OA
ENDROOT
BRANCH   1  15
ATOM     15  N   UNK d   1      19.117 -54.029  35.205  0.00  0.00    -0.351 N 
ATOM     16  C   UNK d   1      19.003 -53.036  36.146  0.00  0.00     0.252 C 
ATOM     17  O   UNK d   1      19.704 -51.991  36.317  0.00  0.00    -0.268 OA
ATOM     18  H   UNK d   1      20.204 -53.372  34.673  0.00  0.00     0.163 HD
BRANCH  16  19
ATOM     19  C   UNK d   1      17.899 -53.120  37.176  0.00  0.00     0.033 A 
ATOM     20  C   UNK d   1      17.217 -54.293  37.391  0.00  0.00     0.036 A 
ATOM     21  C   UNK d   1      16.213 -54.402  38.321  0.00  0.00     0.011 A 
ATOM     22 Br   UNK d   1      15.289 -56.032  38.640  0.00  0.00    -0.051 Br
ATOM     23  C   UNK d   1      15.899 -53.261  39.054  0.00  0.00     0.019 A 
ATOM     24  C   UNK d   1      16.558 -52.078  38.865  0.00  0.00     0.002 A 
ATOM     25  C   UNK d   1      17.568 -52.012  37.914  0.00  0.00     0.017 A 
ENDBRANCH  16  19
ENDBRANCH   1  15
TORSDOF 2
ENDMDL
