MODEL 1
REMARK VINA RESULT:    -8.929      0.000      0.000
REMARK INTER + INTRA:         -10.270
REMARK INTER:                  -9.973
REMARK INTRA:                  -0.298
REMARK UNBOUND:                -0.298
REMARK  2 active torsions:
REMARK  status: ('A' for Active; 'I' for Inactive)
REMARK    1  A    between atoms: C_4  and  C_8 
REMARK       I    between atoms: C_8  and  N_10 
REMARK    2  A    between atoms: N_10  and  C_11 
ROOT
ATOM      1  C   UNK d   1      18.424 -56.144  33.180  0.00  0.00     0.105 C 
ATOM      2  C   UNK d   1      18.499 -55.542  31.817  0.00  0.00     0.152 C 
ATOM      3  N   UNK d   1      18.585 -56.723  30.941  0.00  0.00    -0.335 N 
ATOM      4  C   UNK d   1      18.247 -57.913  31.709  0.00  0.00     0.181 C 
ATOM      5  C   UNK d   1      17.533 -57.364  32.906  0.00  0.00     0.061 C 
ATOM      6  C   UNK d   1      17.429 -58.777  30.862  0.00  0.00     0.243 C 
ATOM      7  O   UNK d   1      16.506 -59.450  31.337  0.00  0.00    -0.271 OA
ATOM      8  N   UNK d   1      17.698 -58.850  29.455  0.00  0.00    -0.337 N 
ATOM      9  C   UNK d   1      18.935 -58.253  29.013  0.00  0.00     0.179 C 
ATOM     10  C   UNK d   1      19.038 -58.309  27.545  0.00  0.00     0.037 C 
ATOM     11  C   UNK d   1      18.002 -59.356  27.186  0.00  0.00     0.022 C 
ATOM     12  C   UNK d   1      17.026 -59.389  28.313  0.00  0.00     0.127 C 
ATOM     13  C   UNK d   1      18.923 -56.853  29.563  0.00  0.00     0.243 C 
ATOM     14  O   UNK d   1      19.195 -55.862  28.849  0.00  0.00    -0.271 OA
ENDROOT
BRANCH   1  15
ATOM     15  N   UNK d   1      17.901 -55.299  34.189  0.00  0.00    -0.351 N 
ATOM     16  C   UNK d   1      18.770 -54.556  35.018  0.00  0.00     0.252 C 
ATOM     17  O   UNK d   1      20.036 -54.654  34.847  0.00  0.00    -0.268 OA
ATOM     18  H   UNK d   1      16.878 -55.217  34.329  0.00  0.00     0.163 HD
BRANCH  16  19
ATOM     19  C   UNK d   1      18.352 -53.659  36.081  0.00  0.00     0.033 A 
ATOM     20  C   UNK d   1      17.357 -53.971  36.973  0.00  0.00     0.036 A 
ATOM     21  C   UNK d   1      16.951 -53.134  37.981  0.00  0.00     0.011 A 
ATOM     22 Br   UNK d   1      15.568 -53.600  39.198  0.00  0.00    -0.051 Br
ATOM     23  C   UNK d   1      17.563 -51.907  38.124  0.00  0.00     0.019 A 
ATOM     24  C   UNK d   1      18.574 -51.549  37.247  0.00  0.00     0.002 A 
ATOM     25  C   UNK d   1      18.958 -52.435  36.229  0.00  0.00     0.017 A 
ENDBRANCH  16  19
ENDBRANCH   1  15
TORSDOF 2
ENDMDL
