/Users/jonathanwahrer/Desktop/Msc/3_Semester/Drug_Design_Praktikum/waehrer_HTS_screening/HTS_experiment/out/docking_results/vina_output/6s1j/0141_docked.pdbqt
 OpenBabel03222221023D

 23 26  0  0  1  0  0  0  0  0999 V2000
   15.6370  -55.5140   38.0670 N   0  0  0  0  0  0  0  0  0  0  0  0
   15.6750  -54.4680   39.0560 C   0  0  0  0  0  0  0  0  0  0  0  0
   14.7950  -54.1860   39.9300 O   0  0  0  0  0  0  0  0  0  0  0  0
   16.9230  -53.7440   38.9080 C   0  0  1  0  0  3  0  0  0  0  0  0
   17.8650  -54.6670   38.1100 C   0  0  2  0  0  3  0  0  0  0  0  0
   18.6060  -53.7770   37.1670 C   0  0  2  0  0  3  0  0  0  0  0  0
   18.3980  -52.3900   37.8080 C   0  0  0  0  0  2  0  0  0  0  0  0
   16.8710  -52.5810   37.9270 C   0  0  1  0  0  3  0  0  0  0  0  0
   16.5900  -53.0710   36.5460 C   0  0  0  0  0  2  0  0  0  0  0  0
   17.7020  -53.5580   35.9790 C   0  0  0  0  0  2  0  0  0  0  0  0
   16.8230  -55.4380   37.3250 C   0  0  0  0  0  0  0  0  0  0  0  0
   17.0210  -55.9200   36.1870 O   0  0  0  0  0  0  0  0  0  0  0  0
   14.5340  -56.3850   37.9740 N   0  0  0  0  0  0  0  0  0  0  0  0
   14.5970  -57.7890   37.9880 C   0  0  0  0  0  0  0  0  0  0  0  0
   15.6840  -58.3830   38.0900 O   0  0  0  0  0  0  0  0  0  0  0  0
   13.5500  -55.9750   37.8810 H   0  0  0  0  0  0  0  0  0  0  0  0
   13.3990  -58.5990   37.8820 C   0  0  0  0  0  0  0  0  0  0  0  0
   13.1040  -59.2090   36.6650 C   0  0  0  0  0  3  0  0  0  0  0  0
   11.9830  -59.9890   36.5220 C   0  0  0  0  0  0  0  0  0  0  0  0
   11.6370  -60.7870   34.8290 Br  0  0  0  0  0  0  0  0  0  0  0  0
   11.1120  -60.1930   37.5850 C   0  0  0  0  0  3  0  0  0  0  0  0
   11.4250  -59.5820   38.7740 C   0  0  0  0  0  3  0  0  0  0  0  0
   12.5470  -58.7980   38.9240 C   0  0  0  0  0  3  0  0  0  0  0  0
  1  2  1  0  0  0  0
  2  3  2  0  0  0  0
  4  2  1  6  0  0  0
  5 11  1  6  0  0  0
  5  4  1  0  0  0  0
  6 10  1  6  0  0  0
  6  7  1  0  0  0  0
  6  5  1  0  0  0  0
  7  8  1  0  0  0  0
  8  9  1  6  0  0  0
  8  4  1  0  0  0  0
 10  9  1  0  0  0  0
 11  1  1  0  0  0  0
 12 11  2  0  0  0  0
 13 14  1  0  0  0  0
 13  1  1  0  0  0  0
 14 15  2  0  0  0  0
 16 13  1  0  0  0  0
 17 14  1  0  0  0  0
 17 23  1  0  0  0  0
 18 17  2  0  0  0  0
 19 18  1  0  0  0  0
 19 21  2  0  0  0  0
 20 19  1  0  0  0  0
 21 22  1  0  0  0  0
 22 23  2  0  0  0  0
M  END
>  <Pose>
1

>  <Score>
-9.296

$$$$
