MODEL 1
REMARK VINA RESULT:    -9.296      0.000      0.000
REMARK INTER + INTRA:         -10.709
REMARK INTER:                 -10.382
REMARK INTRA:                  -0.326
REMARK UNBOUND:                -0.326
REMARK  2 active torsions:
REMARK  status: ('A' for Active; 'I' for Inactive)
REMARK    1  A    between atoms: C_4  and  C_8 
REMARK       I    between atoms: C_8  and  N_10 
REMARK    2  A    between atoms: N_10  and  N_11 
ROOT
ATOM      1  N   UNK d   1      15.637 -55.514  38.067  0.00  0.00    -0.187 N 
ATOM      2  C   UNK d   1      15.675 -54.468  39.056  0.00  0.00     0.251 C 
ATOM      3  O   UNK d   1      14.795 -54.186  39.930  0.00  0.00    -0.271 OA
ATOM      4  C   UNK d   1      16.923 -53.744  38.908  0.00  0.00     0.101 C 
ATOM      5  C   UNK d   1      17.865 -54.667  38.110  0.00  0.00     0.101 C 
ATOM      6  C   UNK d   1      18.606 -53.777  37.167  0.00  0.00     0.022 C 
ATOM      7  C   UNK d   1      18.398 -52.390  37.808  0.00  0.00     0.018 C 
ATOM      8  C   UNK d   1      16.871 -52.581  37.927  0.00  0.00     0.022 C 
ATOM      9  C   UNK d   1      16.590 -53.071  36.546  0.00  0.00    -0.025 C 
ATOM     10  C   UNK d   1      17.702 -53.558  35.979  0.00  0.00    -0.025 C 
ATOM     11  C   UNK d   1      16.823 -55.438  37.325  0.00  0.00     0.251 C 
ATOM     12  O   UNK d   1      17.021 -55.920  36.187  0.00  0.00    -0.271 OA
ENDROOT
BRANCH   1  13
ATOM     13  N   UNK d   1      14.534 -56.385  37.974  0.00  0.00    -0.254 N 
ATOM     14  C   UNK d   1      14.597 -57.789  37.988  0.00  0.00     0.270 C 
ATOM     15  O   UNK d   1      15.684 -58.383  38.090  0.00  0.00    -0.266 OA
ATOM     16  H   UNK d   1      13.550 -55.975  37.881  0.00  0.00     0.191 HD
BRANCH  14  17
ATOM     17  C   UNK d   1      13.399 -58.599  37.882  0.00  0.00     0.035 A 
ATOM     18  C   UNK d   1      13.104 -59.209  36.665  0.00  0.00     0.036 A 
ATOM     19  C   UNK d   1      11.983 -59.989  36.522  0.00  0.00     0.011 A 
ATOM     20 Br   UNK d   1      11.637 -60.787  34.829  0.00  0.00    -0.051 Br
ATOM     21  C   UNK d   1      11.112 -60.193  37.585  0.00  0.00     0.019 A 
ATOM     22  C   UNK d   1      11.425 -59.582  38.774  0.00  0.00     0.002 A 
ATOM     23  C   UNK d   1      12.547 -58.798  38.924  0.00  0.00     0.017 A 
ENDBRANCH  14  17
ENDBRANCH   1  13
TORSDOF 2
ENDMDL
