MODEL 1
REMARK VINA RESULT:   -10.860      0.000      0.000
REMARK INTER + INTRA:         -13.168
REMARK INTER:                 -12.764
REMARK INTRA:                  -0.404
REMARK UNBOUND:                -0.404
REMARK  3 active torsions:
REMARK  status: ('A' for Active; 'I' for Inactive)
REMARK    1  A    between atoms: C_4  and  C_8 
REMARK    2  A    between atoms: C_16  and  C_17 
REMARK    3  A    between atoms: C_17  and  N_18 
ROOT
ATOM      1  C   UNK d   1      19.452 -52.929  36.088  0.00  0.00     0.053 C 
ATOM      2  C   UNK d   1      19.214 -53.695  35.017  0.00  0.00     0.127 A 
ATOM      3  O   UNK d   1      18.160 -54.490  34.833  0.00  0.00    -0.305 OA
ATOM      4  C   UNK d   1      18.243 -55.115  33.563  0.00  0.00     0.101 A 
ATOM      5  C   UNK d   1      19.359 -54.725  32.903  0.00  0.00     0.051 A 
ATOM      6  C   UNK d   1      19.549 -55.193  31.606  0.00  0.00     0.021 A 
ATOM      7  C   UNK d   1      18.647 -56.036  31.035  0.00  0.00     0.041 A 
ATOM      8  C   UNK d   1      17.534 -56.440  31.746  0.00  0.00     0.118 A 
ATOM      9  C   UNK d   1      17.279 -56.013  33.027  0.00  0.00     0.039 A 
ATOM     10  O   UNK d   1      16.642 -57.314  31.122  0.00  0.00    -0.191 OA
ATOM     11  C   UNK d   1      20.056 -53.790  33.817  0.00  0.00     0.218 A 
ATOM     12  O   UNK d   1      21.137 -53.209  33.607  0.00  0.00    -0.284 OA
ENDROOT
BRANCH   1  13
ATOM     13  C   UNK d   1      18.483 -52.907  37.216  0.00  0.00    -0.032 A 
ATOM     14  C   UNK d   1      17.794 -54.084  37.546  0.00  0.00     0.030 A 
ATOM     15  C   UNK d   1      16.632 -54.061  38.329  0.00  0.00     0.011 A 
ATOM     16 Br   UNK d   1      15.770 -55.725  38.690  0.00  0.00    -0.051 Br
ATOM     17  C   UNK d   1      16.138 -52.899  38.796  0.00  0.00     0.019 A 
ATOM     18  C   UNK d   1      16.806 -51.684  38.489  0.00  0.00     0.002 A 
ATOM     19  C   UNK d   1      17.975 -51.735  37.700  0.00  0.00     0.011 A 
ENDBRANCH   1  13
BRANCH   9  20
ATOM     20  C   UNK d   1      16.471 -56.660  34.041  0.00  0.00     0.279 C 
BRANCH  20  21
ATOM     21  N   UNK d   1      15.805 -57.804  34.296  0.00  0.00    -0.063 N 
ATOM     22  C   UNK d   1      15.628 -58.424  35.535  0.00  0.00     0.261 C 
ATOM     23  C   UNK d   1      14.292 -58.073  36.226  0.00  0.00     0.195 C 
ATOM     24  O   UNK d   1      13.189 -58.539  35.551  0.00  0.00    -0.388 OA
ATOM     25  C   UNK d   1      13.388 -58.394  34.174  0.00  0.00     0.195 C 
ATOM     26  C   UNK d   1      14.373 -57.401  33.841  0.00  0.00     0.261 C 
ATOM     27  H   UNK d   1      16.082 -58.556  33.559  0.00  0.00     0.280 HD
ENDBRANCH  20  21
ENDBRANCH   9  20
TORSDOF 3
ENDMDL
