/Users/jonathanwahrer/Desktop/Msc/3_Semester/Drug_Design_Praktikum/waehrer_HTS_screening/HTS_experiment/out/docking_results/vina_output/6s1j/0153_docked.pdbqt
 OpenBabel03222221033D

 34 37  0  0  0  0  0  0  0  0999 V2000
   17.2780  -58.6210   32.6970 C   0  0  0  0  0  0  0  0  0  0  0  0
   17.5140  -58.6010   31.4300 N   0  0  0  0  0  0  0  0  0  0  0  0
   16.6970  -59.4410   30.8020 N   0  0  0  0  0  0  0  0  0  0  0  0
   15.8990  -60.0410   31.7240 N   0  0  0  0  0  0  0  0  0  0  0  0
   16.1890  -59.5590   32.8870 C   0  0  0  0  0  0  0  0  0  0  0  0
   18.0290  -58.0140   33.8730 C   0  0  0  0  0  0  0  0  0  0  0  0
   17.7780  -56.6910   34.0960 N   0  0  0  0  0  0  0  0  0  0  0  0
   16.8800  -56.4450   33.3020 H   0  0  0  0  0  0  0  0  0  0  0  0
   18.7780  -58.7790   34.5180 O   0  0  0  0  0  0  0  0  0  0  0  0
   17.9170  -55.5420   34.7190 N   0  0  0  0  0  0  0  0  0  0  0  0
   18.0940  -55.3360   35.9950 C   0  0  0  0  0  3  0  0  0  0  0  0
   18.2170  -53.9840   36.5740 C   0  0  0  0  0  0  0  0  0  0  0  0
   19.1300  -53.0280   36.1740 C   0  0  0  0  0  3  0  0  0  0  0  0
   19.0510  -51.7420   36.7080 C   0  0  0  0  0  0  0  0  0  0  0  0
   20.2550  -50.3520   36.1650 Br  0  0  0  0  0  0  0  0  0  0  0  0
   18.0910  -51.3570   37.6370 C   0  0  0  0  0  3  0  0  0  0  0  0
   17.2220  -52.3510   38.0030 C   0  0  0  0  0  3  0  0  0  0  0  0
   17.2600  -53.6200   37.5040 C   0  0  0  0  0  3  0  0  0  0  0  0
   15.6780  -59.7220   34.2450 C   0  0  0  0  0  2  0  0  0  0  0  0
   14.3840  -59.3820   34.6240 N   0  0  0  0  0  0  0  0  0  0  0  0
   13.4420  -59.9030   35.4260 C   0  0  0  0  0  2  0  0  0  0  0  0
   13.3140  -59.0000   36.6830 C   0  0  0  0  0  2  0  0  0  0  0  0
   14.5530  -58.3270   36.8460 N   0  0  0  0  0  0  0  0  0  0  0  0
   14.7400  -57.3380   35.8270 C   0  0  0  0  0  2  0  0  0  0  0  0
   15.0020  -57.9980   38.1320 C   0  0  0  0  0  1  0  0  0  0  0  0
   14.1740  -57.9070   34.5190 C   0  0  0  0  0  2  0  0  0  0  0  0
   15.2860  -61.3030   31.3360 C   0  0  0  0  0  0  0  0  0  0  0  0
   15.9970  -61.9870   30.2830 N   0  0  0  0  0  0  0  0  0  0  0  0
   15.4310  -63.0570   29.9820 O   0  0  0  0  0  0  0  0  0  0  0  0
   14.3730  -63.2020   30.7200 N   0  0  0  0  0  0  0  0  0  0  0  0
   14.2970  -62.0950   31.5660 C   0  0  0  0  0  0  0  0  0  0  0  0
   13.2340  -62.0020   32.4860 N   0  0  0  0  0  0  0  0  0  0  0  0
   12.3710  -61.5010   32.0740 H   0  0  0  0  0  0  0  0  0  0  0  0
   13.1340  -62.3090   33.4350 H   0  0  0  0  0  0  0  0  0  0  0  0
  1  5  2  0  0  0  0
  1  6  1  0  0  0  0
  2  1  1  0  0  0  0
  3  2  2  0  0  0  0
  3  4  1  0  0  0  0
  4  5  1  0  0  0  0
  5 19  1  0  0  0  0
  6  7  1  0  0  0  0
  6  9  2  0  0  0  0
  7 10  1  0  0  0  0
  8  7  1  0  0  0  0
 10 11  2  0  0  0  0
 11 12  1  0  0  0  0
 12 18  1  0  0  0  0
 13 12  2  0  0  0  0
 13 14  1  0  0  0  0
 14 16  2  0  0  0  0
 15 14  1  0  0  0  0
 16 17  1  0  0  0  0
 18 17  2  0  0  0  0
 19 20  1  0  0  0  0
 20 21  1  0  0  0  0
 21 22  1  0  0  0  0
 22 23  1  0  0  0  0
 23 25  1  0  0  0  0
 24 23  1  0  0  0  0
 26 20  1  0  0  0  0
 26 24  1  0  0  0  0
 27 31  1  0  0  0  0
 27  4  1  0  0  0  0
 28 27  2  0  0  0  0
 29 28  1  0  0  0  0
 29 30  1  0  0  0  0
 30 31  2  0  0  0  0
 31 32  1  0  0  0  0
 32 34  1  0  0  0  0
 33 32  1  0  0  0  0
M  END
>  <Pose>
1

>  <Score>
-8.569

$$$$
