MODEL 1
REMARK VINA RESULT:    -9.528      0.000      0.000
REMARK INTER + INTRA:         -13.192
REMARK INTER:                 -12.313
REMARK INTRA:                  -0.879
REMARK UNBOUND:                -0.879
REMARK  5 active torsions:
REMARK  status: ('A' for Active; 'I' for Inactive)
REMARK    1  A    between atoms: C_4  and  C_8 
REMARK    2  A    between atoms: N_9  and  N_10 
REMARK    3  A    between atoms: N_10  and  C_11 
REMARK    4  A    between atoms: C_13  and  N_23 
REMARK    5  A    between atoms: C_15  and  N_17 
ROOT
ATOM      1  C   UNK d   1      13.958 -57.278  38.482  0.00  0.00     0.774 A 
ATOM      2  N   UNK d   1      14.290 -57.462  37.200  0.00  0.00     0.133 NA
ATOM      3  C   UNK d   1      13.712 -58.411  36.412  0.00  0.00     0.756 A 
ATOM      4  N   UNK d   1      12.769 -59.170  37.010  0.00  0.00     0.131 NA
ATOM      5  C   UNK d   1      12.392 -59.033  38.293  0.00  0.00     0.756 A 
ATOM      6  N   UNK d   1      13.018 -58.063  39.004  0.00  0.00     0.133 NA
ENDROOT
BRANCH   1   7
ATOM      7  N   UNK d   1      14.600 -56.266  39.248  0.00  0.00    -0.105 N 
ATOM      8  H   UNK d   1      14.292 -56.066  40.222  0.00  0.00     0.208 HD
BRANCH   7   9
ATOM      9  N   UNK d   1      15.654 -55.513  38.724  0.00  0.00    -0.172 NA
ATOM     10  C   UNK d   1      15.613 -54.259  38.499  0.00  0.00     0.150 C 
BRANCH  10  11
ATOM     11  C   UNK d   1      16.728 -53.499  37.949  0.00  0.00    -0.016 A 
ATOM     12  C   UNK d   1      17.645 -54.065  37.080  0.00  0.00     0.032 A 
ATOM     13  C   UNK d   1      18.706 -53.375  36.546  0.00  0.00     0.011 A 
ATOM     14 Br   UNK d   1      19.939 -54.218  35.347  0.00  0.00    -0.051 Br
ATOM     15  C   UNK d   1      18.875 -52.050  36.889  0.00  0.00     0.019 A 
ATOM     16  C   UNK d   1      17.989 -51.441  37.752  0.00  0.00     0.002 A 
ATOM     17  C   UNK d   1      16.925 -52.174  38.272  0.00  0.00     0.013 A 
ENDBRANCH  10  11
ENDBRANCH   7   9
ENDBRANCH   1   7
BRANCH   3  18
ATOM     18  N   UNK d   1      14.080 -58.587  35.060  0.00  0.00    -0.209 N 
ATOM     19  C   UNK d   1      13.843 -57.551  34.094  0.00  0.00     0.167 C 
ATOM     20  C   UNK d   1      15.177 -57.268  33.412  0.00  0.00     0.188 C 
ATOM     21  O   UNK d   1      15.571 -58.463  32.815  0.00  0.00    -0.388 OA
ATOM     22  C   UNK d   1      15.899 -59.433  33.745  0.00  0.00     0.188 C 
ATOM     23  C   UNK d   1      14.701 -59.804  34.613  0.00  0.00     0.167 C 
ENDBRANCH   3  18
BRANCH   5  24
ATOM     24  N   UNK d   1      11.406 -59.836  38.891  0.00  0.00    -0.209 N 
ATOM     25  C   UNK d   1      11.672 -60.626  40.063  0.00  0.00     0.167 C 
ATOM     26  C   UNK d   1      10.399 -60.551  40.916  0.00  0.00     0.188 C 
ATOM     27  O   UNK d   1       9.710 -59.370  40.652  0.00  0.00    -0.388 OA
ATOM     28  C   UNK d   1       9.143 -59.317  39.404  0.00  0.00     0.188 C 
ATOM     29  C   UNK d   1      10.085 -59.887  38.334  0.00  0.00     0.167 C 
ENDBRANCH   5  24
TORSDOF 5
ENDMDL
