/Users/jonathanwahrer/Desktop/Msc/3_Semester/Drug_Design_Praktikum/waehrer_HTS_screening/HTS_experiment/out/docking_results/vina_output/6s1j/0156_docked.pdbqt
 OpenBabel03222221033D

 29 32  0  0  0  0  0  0  0  0999 V2000
   13.9580  -57.2780   38.4820 C   0  0  0  0  0  0  0  0  0  0  0  0
   14.2900  -57.4620   37.2000 N   0  0  0  0  0  4  0  0  0  0  0  0
   13.7120  -58.4110   36.4120 C   0  0  0  0  0  0  0  0  0  0  0  0
   12.7690  -59.1700   37.0100 N   0  0  0  0  0  0  0  0  0  0  0  0
   12.3920  -59.0330   38.2930 C   0  0  0  0  0  0  0  0  0  0  0  0
   13.0180  -58.0630   39.0040 N   0  0  0  0  0  2  0  0  0  0  0  0
   14.6000  -56.2660   39.2480 N   0  0  0  0  0  0  0  0  0  0  0  0
   14.2920  -56.0660   40.2220 H   0  0  0  0  0  0  0  0  0  0  0  0
   15.6540  -55.5130   38.7240 N   0  0  0  0  0  0  0  0  0  0  0  0
   15.6130  -54.2590   38.4990 C   0  0  0  0  0  3  0  0  0  0  0  0
   16.7280  -53.4990   37.9490 C   0  0  0  0  0  0  0  0  0  0  0  0
   17.6450  -54.0650   37.0800 C   0  0  0  0  0  3  0  0  0  0  0  0
   18.7060  -53.3750   36.5460 C   0  0  0  0  0  0  0  0  0  0  0  0
   19.9390  -54.2180   35.3470 Br  0  0  0  0  0  0  0  0  0  0  0  0
   18.8750  -52.0500   36.8890 C   0  0  0  0  0  3  0  0  0  0  0  0
   17.9890  -51.4410   37.7520 C   0  0  0  0  0  3  0  0  0  0  0  0
   16.9250  -52.1740   38.2720 C   0  0  0  0  0  3  0  0  0  0  0  0
   14.0800  -58.5870   35.0600 N   0  0  0  0  0  0  0  0  0  0  0  0
   13.8430  -57.5510   34.0940 C   0  0  0  0  0  2  0  0  0  0  0  0
   15.1770  -57.2680   33.4120 C   0  0  0  0  0  2  0  0  0  0  0  0
   15.5710  -58.4630   32.8150 O   0  0  0  0  0  0  0  0  0  0  0  0
   15.8990  -59.4330   33.7450 C   0  0  0  0  0  2  0  0  0  0  0  0
   14.7010  -59.8040   34.6130 C   0  0  0  0  0  2  0  0  0  0  0  0
   11.4060  -59.8360   38.8910 N   0  0  0  0  0  0  0  0  0  0  0  0
   11.6720  -60.6260   40.0630 C   0  0  0  0  0  2  0  0  0  0  0  0
   10.3990  -60.5510   40.9160 C   0  0  0  0  0  2  0  0  0  0  0  0
    9.7100  -59.3700   40.6520 O   0  0  0  0  0  0  0  0  0  0  0  0
    9.1430  -59.3170   39.4040 C   0  0  0  0  0  2  0  0  0  0  0  0
   10.0850  -59.8870   38.3340 C   0  0  0  0  0  2  0  0  0  0  0  0
  1  6  1  0  0  0  0
  1  7  1  0  0  0  0
  2  1  2  0  0  0  0
  3  4  1  0  0  0  0
  3  2  2  0  0  0  0
  4  5  2  0  0  0  0
  5 24  1  0  0  0  0
  5  6  1  0  0  0  0
  7  8  1  0  0  0  0
  9  7  1  0  0  0  0
 10  9  2  0  0  0  0
 11 17  1  0  0  0  0
 11 10  1  0  0  0  0
 12 11  2  0  0  0  0
 13 15  2  0  0  0  0
 13 12  1  0  0  0  0
 14 13  1  0  0  0  0
 15 16  1  0  0  0  0
 16 17  2  0  0  0  0
 18  3  1  0  0  0  0
 19 18  1  0  0  0  0
 20 19  1  0  0  0  0
 21 20  1  0  0  0  0
 21 22  1  0  0  0  0
 22 23  1  0  0  0  0
 23 18  1  0  0  0  0
 24 25  1  0  0  0  0
 25 26  1  0  0  0  0
 27 26  1  0  0  0  0
 28 27  1  0  0  0  0
 29 24  1  0  0  0  0
 29 28  1  0  0  0  0
M  END
>  <Pose>
1

>  <Score>
-9.528

$$$$
