MODEL 1
REMARK VINA RESULT:    -7.631      0.000      0.000
REMARK INTER + INTRA:         -12.290
REMARK INTER:                 -10.754
REMARK INTRA:                  -1.536
REMARK UNBOUND:                -1.536
REMARK  7 active torsions:
REMARK  status: ('A' for Active; 'I' for Inactive)
REMARK    1  A    between atoms: C_4  and  C_8 
REMARK    2  A    between atoms: N_9  and  C_29 
REMARK    3  A    between atoms: C_15  and  C_17 
REMARK    4  A    between atoms: N_19  and  C_22 
REMARK    5  A    between atoms: C_29  and  C_30 
REMARK    6  A    between atoms: C_30  and  C_31 
REMARK    7  A    between atoms: C_31  and  N_32 
ROOT
ATOM      1  C   UNK d   1      18.221 -59.618  29.791  0.00  0.00     0.161 C 
ATOM      2  N   UNK d   1      19.210 -59.163  28.887  0.00  0.00    -0.332 N 
ATOM      3  C   UNK d   1      19.436 -57.777  29.082  0.00  0.00     0.295 C 
ATOM      4  O   UNK d   1      20.195 -57.054  28.365  0.00  0.00    -0.264 OA
ATOM      5  C   UNK d   1      18.666 -57.343  30.228  0.00  0.00     0.250 C 
ATOM      6  O   UNK d   1      18.683 -56.145  30.622  0.00  0.00    -0.282 OA
ATOM      7  C   UNK d   1      17.956 -58.501  30.735  0.00  0.00     0.062 C 
ATOM      8  C   UNK d   1      17.189 -58.498  31.802  0.00  0.00     0.133 C 
ATOM      9  O   UNK d   1      16.512 -59.646  32.144  0.00  0.00    -0.190 OA
ENDROOT
BRANCH   1  10
ATOM     10  C   UNK d   1      17.010 -60.038  29.079  0.00  0.00    -0.029 A 
ATOM     11  C   UNK d   1      16.512 -61.307  29.319  0.00  0.00     0.028 A 
ATOM     12  C   UNK d   1      15.393 -61.840  28.757  0.00  0.00     0.011 A 
ATOM     13 Br   UNK d   1      14.750 -63.599  29.126  0.00  0.00    -0.051 Br
ATOM     14  C   UNK d   1      14.692 -61.020  27.856  0.00  0.00     0.019 A 
ATOM     15  C   UNK d   1      15.165 -59.746  27.594  0.00  0.00     0.002 A 
ATOM     16  C   UNK d   1      16.305 -59.237  28.184  0.00  0.00     0.009 A 
ENDBRANCH   1  10
BRANCH   8  17
ATOM     17  C   UNK d   1      17.050 -57.319  32.620  0.00  0.00     0.045 A 
ATOM     18  C   UNK d   1      17.798 -57.081  33.786  0.00  0.00     0.047 A 
ATOM     19  N   UNK d   1      17.459 -55.887  34.288  0.00  0.00    -0.238 N 
ATOM     20  C   UNK d   1      18.803 -58.036  34.338  0.00  0.00     0.071 C 
ATOM     21  N   UNK d   1      16.540 -55.378  33.489  0.00  0.00    -0.179 NA
ATOM     22  C   UNK d   1      16.267 -56.209  32.471  0.00  0.00     0.155 A 
BRANCH  19  23
ATOM     23  C   UNK d   1      17.986 -55.260  35.449  0.00  0.00     0.058 A 
ATOM     24  C   UNK d   1      19.258 -54.706  35.390  0.00  0.00     0.031 A 
ATOM     25  C   UNK d   1      19.829 -54.073  36.476  0.00  0.00     0.002 A 
ATOM     26  C   UNK d   1      19.142 -53.964  37.686  0.00  0.00     0.000 A 
ATOM     27  C   UNK d   1      17.875 -54.516  37.745  0.00  0.00     0.002 A 
ATOM     28  C   UNK d   1      17.331 -55.140  36.652  0.00  0.00     0.031 A 
ENDBRANCH  19  23
ENDBRANCH   8  17
BRANCH   2  29
ATOM     29  C   UNK d   1      19.947 -59.981  27.883  0.00  0.00     0.129 C 
BRANCH  29  30
ATOM     30  C   UNK d   1      21.270 -60.416  28.459  0.00  0.00     0.048 C 
BRANCH  30  31
ATOM     31  C   UNK d   1      21.400 -61.900  28.600  0.00  0.00     0.235 C 
BRANCH  31  32
ATOM     32  N   UNK d   1      21.096 -62.441  29.884  0.00  0.00    -0.079 N 
ATOM     33  C   UNK d   1      19.848 -63.120  30.007  0.00  0.00     0.269 C 
ATOM     34  C   UNK d   1      22.154 -63.373  30.304  0.00  0.00     0.269 C 
ATOM     35  H   UNK d   1      21.129 -61.665  30.613  0.00  0.00     0.278 HD
ENDBRANCH  31  32
ENDBRANCH  30  31
ENDBRANCH  29  30
ENDBRANCH   2  29
TORSDOF 7
ENDMDL
