MODEL 1
REMARK VINA RESULT:    -9.278      0.000      0.000
REMARK INTER + INTRA:         -14.529
REMARK INTER:                 -13.075
REMARK INTRA:                  -1.454
REMARK UNBOUND:                -1.454
REMARK  7 active torsions:
REMARK  status: ('A' for Active; 'I' for Inactive)
REMARK    1  A    between atoms: C_4  and  C_8 
REMARK    2  A    between atoms: N_9  and  C_26 
REMARK    3  A    between atoms: C_15  and  C_17 
REMARK    4  A    between atoms: C_20  and  O_23 
REMARK    5  A    between atoms: C_26  and  C_27 
REMARK    6  A    between atoms: C_27  and  C_28 
REMARK    7  A    between atoms: C_28  and  N_29 
ROOT
ATOM      1  C   UNK d   1      16.122 -58.037  35.537  0.00  0.00     0.161 C 
ATOM      2  N   UNK d   1      14.767 -58.359  35.134  0.00  0.00    -0.332 N 
ATOM      3  C   UNK d   1      14.375 -57.573  34.029  0.00  0.00     0.295 C 
ATOM      4  O   UNK d   1      13.235 -57.307  33.567  0.00  0.00    -0.264 OA
ATOM      5  C   UNK d   1      15.634 -57.056  33.437  0.00  0.00     0.250 C 
ATOM      6  O   UNK d   1      15.671 -56.320  32.431  0.00  0.00    -0.282 OA
ATOM      7  C   UNK d   1      16.727 -57.571  34.241  0.00  0.00     0.062 C 
ATOM      8  C   UNK d   1      17.979 -57.655  33.871  0.00  0.00     0.130 C 
ATOM      9  O   UNK d   1      18.913 -58.246  34.740  0.00  0.00    -0.190 OA
ENDROOT
BRANCH   1  10
ATOM     10  C   UNK d   1      16.186 -56.994  36.576  0.00  0.00    -0.029 A 
ATOM     11  C   UNK d   1      16.994 -55.887  36.451  0.00  0.00     0.028 A 
ATOM     12  C   UNK d   1      17.039 -54.914  37.443  0.00  0.00     0.011 A 
ATOM     13 Br   UNK d   1      18.167 -53.391  37.250  0.00  0.00    -0.051 Br
ATOM     14  C   UNK d   1      16.261 -55.052  38.581  0.00  0.00     0.019 A 
ATOM     15  C   UNK d   1      15.454 -56.163  38.696  0.00  0.00     0.002 A 
ATOM     16  C   UNK d   1      15.413 -57.126  37.708  0.00  0.00     0.009 A 
ENDBRANCH   1  10
BRANCH   8  17
ATOM     17  C   UNK d   1      18.442 -57.157  32.603  0.00  0.00     0.002 A 
ATOM     18  C   UNK d   1      18.372 -58.040  31.515  0.00  0.00     0.024 A 
ATOM     19  C   UNK d   1      18.828 -57.665  30.282  0.00  0.00    -0.028 A 
ATOM     20  C   UNK d   1      19.376 -56.409  30.051  0.00  0.00     0.074 A 
ATOM     21  C   UNK d   1      18.746 -58.620  29.131  0.00  0.00     0.051 C 
ATOM     22  C   UNK d   1      19.435 -55.571  31.121  0.00  0.00     0.038 A 
ATOM     23  C   UNK d   1      18.980 -55.933  32.372  0.00  0.00     0.017 A 
BRANCH  20  24
ATOM     24  O   UNK d   1      19.813 -56.108  28.777  0.00  0.00    -0.355 OA
ATOM     25  C   UNK d   1      21.084 -55.513  28.565  0.00  0.00     0.210 C 
ENDBRANCH  20  24
ENDBRANCH   8  17
BRANCH   2  26
ATOM     26  C   UNK d   1      13.897 -59.366  35.761  0.00  0.00     0.129 C 
BRANCH  26  27
ATOM     27  C   UNK d   1      13.521 -60.415  34.751  0.00  0.00     0.048 C 
BRANCH  27  28
ATOM     28  C   UNK d   1      14.652 -61.253  34.260  0.00  0.00     0.236 C 
BRANCH  28  29
ATOM     29  N   UNK d   1      15.170 -60.834  32.976  0.00  0.00    -0.067 N 
ATOM     30  C   UNK d   1      16.610 -60.983  32.901  0.00  0.00     0.261 C 
ATOM     31  C   UNK d   1      16.989 -62.006  31.865  0.00  0.00     0.195 C 
ATOM     32  O   UNK d   1      16.522 -61.544  30.617  0.00  0.00    -0.388 OA
ATOM     33  C   UNK d   1      15.131 -61.483  30.609  0.00  0.00     0.195 C 
ATOM     34  C   UNK d   1      14.509 -61.656  31.958  0.00  0.00     0.261 C 
ATOM     35  H   UNK d   1      14.925 -59.852  32.730  0.00  0.00     0.280 HD
ENDBRANCH  28  29
ENDBRANCH  27  28
ENDBRANCH  26  27
ENDBRANCH   2  26
TORSDOF 7
ENDMDL
