/Users/jonathanwahrer/Desktop/Msc/3_Semester/Drug_Design_Praktikum/waehrer_HTS_screening/HTS_experiment/out/docking_results/vina_output/6s1j/0170_docked.pdbqt
 OpenBabel03222221043D

 35 38  0  0  1  0  0  0  0  0999 V2000
   16.1220  -58.0370   35.5370 C   0  0  1  0  0  3  0  0  0  0  0  0
   14.7670  -58.3590   35.1340 N   0  0  0  0  0  0  0  0  0  0  0  0
   14.3750  -57.5730   34.0290 C   0  0  0  0  0  0  0  0  0  0  0  0
   13.2350  -57.3070   33.5670 O   0  0  0  0  0  0  0  0  0  0  0  0
   15.6340  -57.0560   33.4370 C   0  0  0  0  0  0  0  0  0  0  0  0
   15.6710  -56.3200   32.4310 O   0  0  0  0  0  0  0  0  0  0  0  0
   16.7270  -57.5710   34.2410 C   0  0  0  0  0  0  0  0  0  0  0  0
   17.9790  -57.6550   33.8710 C   0  0  0  0  0  0  0  0  0  0  0  0
   18.9130  -58.2460   34.7400 O   0  0  0  0  0  1  0  0  0  0  0  0
   16.1860  -56.9940   36.5760 C   0  0  0  0  0  0  0  0  0  0  0  0
   16.9940  -55.8870   36.4510 C   0  0  0  0  0  3  0  0  0  0  0  0
   17.0390  -54.9140   37.4430 C   0  0  0  0  0  0  0  0  0  0  0  0
   18.1670  -53.3910   37.2500 Br  0  0  0  0  0  0  0  0  0  0  0  0
   16.2610  -55.0520   38.5810 C   0  0  0  0  0  3  0  0  0  0  0  0
   15.4540  -56.1630   38.6960 C   0  0  0  0  0  3  0  0  0  0  0  0
   15.4130  -57.1260   37.7080 C   0  0  0  0  0  3  0  0  0  0  0  0
   18.4420  -57.1570   32.6030 C   0  0  0  0  0  0  0  0  0  0  0  0
   18.3720  -58.0400   31.5150 C   0  0  0  0  0  3  0  0  0  0  0  0
   18.8280  -57.6650   30.2820 C   0  0  0  0  0  0  0  0  0  0  0  0
   19.3760  -56.4090   30.0510 C   0  0  0  0  0  0  0  0  0  0  0  0
   18.7460  -58.6200   29.1310 C   0  0  0  0  0  1  0  0  0  0  0  0
   19.4350  -55.5710   31.1210 C   0  0  0  0  0  3  0  0  0  0  0  0
   18.9800  -55.9330   32.3720 C   0  0  0  0  0  3  0  0  0  0  0  0
   19.8130  -56.1080   28.7770 O   0  0  0  0  0  0  0  0  0  0  0  0
   21.0840  -55.5130   28.5650 C   0  0  0  0  0  1  0  0  0  0  0  0
   13.8970  -59.3660   35.7610 C   0  0  0  0  0  2  0  0  0  0  0  0
   13.5210  -60.4150   34.7510 C   0  0  0  0  0  2  0  0  0  0  0  0
   14.6520  -61.2530   34.2600 C   0  0  0  0  0  2  0  0  0  0  0  0
   15.1700  -60.8340   32.9760 N   0  0  0  0  0  4  0  0  0  0  0  0
   16.6100  -60.9830   32.9010 C   0  0  0  0  0  2  0  0  0  0  0  0
   16.9890  -62.0060   31.8650 C   0  0  0  0  0  2  0  0  0  0  0  0
   16.5220  -61.5440   30.6170 O   0  0  0  0  0  0  0  0  0  0  0  0
   15.1310  -61.4830   30.6090 C   0  0  0  0  0  2  0  0  0  0  0  0
   14.5090  -61.6560   31.9580 C   0  0  0  0  0  2  0  0  0  0  0  0
   14.9250  -59.8520   32.7300 H   0  0  0  0  0  0  0  0  0  0  0  0
  1 10  1  1  0  0  0
  2  1  1  0  0  0  0
  2 26  1  0  0  0  0
  3  2  1  0  0  0  0
  4  3  2  0  0  0  0
  5  3  1  0  0  0  0
  5  7  1  0  0  0  0
  6  5  2  0  0  0  0
  7  1  1  0  0  0  0
  8  7  2  0  0  0  0
  8  9  1  0  0  0  0
 10 16  1  0  0  0  0
 11 10  2  0  0  0  0
 11 12  1  0  0  0  0
 12 14  2  0  0  0  0
 13 12  1  0  0  0  0
 14 15  1  0  0  0  0
 16 15  2  0  0  0  0
 17  8  1  0  0  0  0
 18 17  2  0  0  0  0
 19 18  1  0  0  0  0
 20 19  2  0  0  0  0
 20 22  1  0  0  0  0
 21 19  1  0  0  0  0
 22 23  2  0  0  0  0
 23 17  1  0  0  0  0
 24 20  1  0  0  0  0
 25 24  1  0  0  0  0
 27 26  1  0  0  0  0
 28 27  1  0  0  0  0
 29 28  1  0  0  0  0
 30 29  1  0  0  0  0
 31 30  1  0  0  0  0
 32 31  1  0  0  0  0
 33 32  1  0  0  0  0
 33 34  1  0  0  0  0
 34 29  1  0  0  0  0
 35 29  1  0  0  0  0
M  END
>  <Pose>
1

>  <Score>
-9.278

$$$$
