MODEL 1
REMARK VINA RESULT:    -9.248      0.000      0.000
REMARK INTER + INTRA:         -13.627
REMARK INTER:                 -12.492
REMARK INTRA:                  -1.135
REMARK UNBOUND:                -1.135
REMARK  6 active torsions:
REMARK  status: ('A' for Active; 'I' for Inactive)
REMARK    1  A    between atoms: C_4  and  C_8 
REMARK    2  A    between atoms: N_9  and  C_24 
REMARK    3  A    between atoms: C_15  and  C_17 
REMARK    4  A    between atoms: C_24  and  C_25 
REMARK    5  A    between atoms: C_25  and  C_26 
REMARK    6  A    between atoms: C_26  and  N_27 
ROOT
ATOM      1  C   UNK d   1      16.065 -58.179  35.453  0.00  0.00     0.161 C 
ATOM      2  N   UNK d   1      14.690 -58.449  35.068  0.00  0.00    -0.332 N 
ATOM      3  C   UNK d   1      14.389 -57.584  33.953  0.00  0.00     0.295 C 
ATOM      4  O   UNK d   1      13.230 -57.293  33.566  0.00  0.00    -0.264 OA
ATOM      5  C   UNK d   1      15.654 -57.144  33.404  0.00  0.00     0.250 C 
ATOM      6  O   UNK d   1      15.856 -56.369  32.418  0.00  0.00    -0.282 OA
ATOM      7  C   UNK d   1      16.712 -57.755  34.197  0.00  0.00     0.062 C 
ATOM      8  C   UNK d   1      17.984 -57.850  33.836  0.00  0.00     0.130 C 
ATOM      9  O   UNK d   1      18.817 -58.437  34.811  0.00  0.00    -0.190 OA
ENDROOT
BRANCH   2  10
ATOM     10  C   UNK d   1      13.792 -59.327  35.745  0.00  0.00     0.129 C 
BRANCH  10  11
ATOM     11  C   UNK d   1      13.242 -60.492  35.029  0.00  0.00     0.048 C 
BRANCH  11  12
ATOM     12  C   UNK d   1      14.136 -61.367  34.232  0.00  0.00     0.236 C 
BRANCH  12  13
ATOM     13  N   UNK d   1      14.083 -61.274  32.812  0.00  0.00    -0.067 N 
ATOM     14  C   UNK d   1      15.291 -60.686  32.291  0.00  0.00     0.261 C 
ATOM     15  C   UNK d   1      16.337 -61.710  31.904  0.00  0.00     0.195 C 
ATOM     16  O   UNK d   1      15.880 -62.481  30.833  0.00  0.00    -0.388 OA
ATOM     17  C   UNK d   1      14.485 -62.509  30.799  0.00  0.00     0.195 C 
ATOM     18  C   UNK d   1      14.011 -62.645  32.220  0.00  0.00     0.261 C 
ATOM     19  H   UNK d   1      13.233 -60.830  32.473  0.00  0.00     0.280 HD
ENDBRANCH  12  13
ENDBRANCH  11  12
ENDBRANCH  10  11
ENDBRANCH   2  10
BRANCH   1  20
ATOM     20  C   UNK d   1      16.119 -57.143  36.514  0.00  0.00    -0.029 A 
ATOM     21  C   UNK d   1      16.924 -56.037  36.361  0.00  0.00     0.028 A 
ATOM     22  C   UNK d   1      17.010 -55.043  37.327  0.00  0.00     0.011 A 
ATOM     23 Br   UNK d   1      18.113 -53.509  37.124  0.00  0.00    -0.051 Br
ATOM     24  C   UNK d   1      16.272 -55.146  38.487  0.00  0.00     0.019 A 
ATOM     25  C   UNK d   1      15.467 -56.251  38.642  0.00  0.00     0.002 A 
ATOM     26  C   UNK d   1      15.388 -57.248  37.659  0.00  0.00     0.009 A 
ENDBRANCH   1  20
BRANCH   8  27
ATOM     27  C   UNK d   1      18.521 -57.406  32.560  0.00  0.00     0.001 A 
ATOM     28  C   UNK d   1      18.507 -58.135  31.395  0.00  0.00     0.016 A 
ATOM     29  C   UNK d   1      19.002 -57.647  30.202  0.00  0.00     0.024 A 
ATOM     30  C   UNK d   1      19.543 -56.384  30.133  0.00  0.00     0.034 A 
ATOM     31  C   UNK d   1      19.566 -55.637  31.294  0.00  0.00     0.024 A 
ATOM     32 Cl   UNK d   1      20.183 -55.737  28.619  0.00  0.00    -0.084 Cl
ATOM     33  C   UNK d   1      19.067 -56.134  32.483  0.00  0.00     0.016 A 
ENDBRANCH   8  27
TORSDOF 6
ENDMDL
