MODEL 1
REMARK VINA RESULT:    -8.215      0.000      0.000
REMARK INTER + INTRA:         -10.628
REMARK INTER:                 -10.616
REMARK INTRA:                  -0.012
REMARK UNBOUND:                -0.012
REMARK  5 active torsions:
REMARK  status: ('A' for Active; 'I' for Inactive)
REMARK    1  A    between atoms: C_4  and  C_8 
REMARK    2  A    between atoms: N_9  and  C_28 
REMARK    3  A    between atoms: C_15  and  C_17 
REMARK    4  A    between atoms: C_28  and  C_29 
REMARK    5  A    between atoms: C_29  and  N_30 
ROOT
ATOM      1  C   UNK d   1      16.565 -58.395  32.204  0.00  0.00     0.161 C 
ATOM      2  N   UNK d   1      17.601 -57.964  31.332  0.00  0.00    -0.331 N 
ATOM      3  C   UNK d   1      17.515 -56.502  31.402  0.00  0.00     0.295 C 
ATOM      4  O   UNK d   1      17.853 -55.704  30.513  0.00  0.00    -0.264 OA
ATOM      5  C   UNK d   1      16.953 -56.187  32.726  0.00  0.00     0.251 C 
ATOM      6  O   UNK d   1      16.712 -55.059  33.215  0.00  0.00    -0.282 OA
ATOM      7  C   UNK d   1      16.732 -57.478  33.371  0.00  0.00     0.064 C 
ATOM      8  C   UNK d   1      16.736 -57.727  34.655  0.00  0.00     0.149 C 
ATOM      9  O   UNK d   1      16.562 -59.071  35.049  0.00  0.00    -0.189 OA
ENDROOT
BRANCH   1  10
ATOM     10  C   UNK d   1      16.374 -59.784  32.493  0.00  0.00    -0.029 A 
ATOM     11  C   UNK d   1      15.070 -60.269  32.719  0.00  0.00     0.028 A 
ATOM     12  C   UNK d   1      14.797 -61.579  33.014  0.00  0.00     0.011 A 
ATOM     13 Br   UNK d   1      12.997 -62.166  33.307  0.00  0.00    -0.051 Br
ATOM     14  C   UNK d   1      15.800 -62.506  33.106  0.00  0.00     0.019 A 
ATOM     15  C   UNK d   1      17.091 -62.080  32.894  0.00  0.00     0.002 A 
ATOM     16  C   UNK d   1      17.343 -60.758  32.600  0.00  0.00     0.009 A 
ENDBRANCH   1  10
BRANCH   8  17
ATOM     17  C   UNK d   1      16.900 -56.690  35.663  0.00  0.00     0.102 A 
ATOM     18  N   UNK d   1      17.894 -55.823  35.900  0.00  0.00    -0.302 N 
ATOM     19  C   UNK d   1      17.603 -55.089  36.978  0.00  0.00     0.140 A 
ATOM     20  C   UNK d   1      19.041 -55.647  35.186  0.00  0.00     0.099 A 
ATOM     21  N   UNK d   1      16.392 -55.503  37.433  0.00  0.00    -0.233 NA
ATOM     22  C   UNK d   1      18.463 -54.095  37.440  0.00  0.00    -0.015 A 
ATOM     23  C   UNK d   1      15.924 -56.486  36.652  0.00  0.00     0.063 A 
ATOM     24  C   UNK d   1      14.634 -57.216  36.802  0.00  0.00     0.073 C 
ATOM     25  C   UNK d   1      19.633 -53.895  36.735  0.00  0.00     0.012 A 
ATOM     26  C   UNK d   1      18.088 -53.311  38.644  0.00  0.00     0.052 C 
ATOM     27  C   UNK d   1      19.903 -54.671  35.623  0.00  0.00     0.018 A 
ENDBRANCH   8  17
BRANCH   2  28
ATOM     28  C   UNK d   1      18.554 -58.639  30.469  0.00  0.00     0.155 C 
BRANCH  28  29
ATOM     29  C   UNK d   1      19.929 -58.064  30.469  0.00  0.00     0.255 C 
BRANCH  29  30
ATOM     30  N   UNK d   1      20.239 -57.342  29.251  0.00  0.00    -0.066 N 
ATOM     31  C   UNK d   1      21.162 -56.257  29.500  0.00  0.00     0.261 C 
ATOM     32  C   UNK d   1      22.560 -56.821  29.770  0.00  0.00     0.195 C 
ATOM     33  O   UNK d   1      22.966 -57.418  28.572  0.00  0.00    -0.388 OA
ATOM     34  C   UNK d   1      22.176 -58.578  28.439  0.00  0.00     0.195 C 
ATOM     35  C   UNK d   1      20.723 -58.231  28.214  0.00  0.00     0.261 C 
ATOM     36  H   UNK d   1      19.360 -56.905  28.882  0.00  0.00     0.280 HD
ENDBRANCH  29  30
ENDBRANCH  28  29
ENDBRANCH   2  28
TORSDOF 5
ENDMDL
