MODEL 1
REMARK VINA RESULT:    -8.775      0.000      0.000
REMARK INTER + INTRA:         -13.640
REMARK INTER:                 -12.366
REMARK INTRA:                  -1.274
REMARK UNBOUND:                -1.274
REMARK  7 active torsions:
REMARK  status: ('A' for Active; 'I' for Inactive)
REMARK    1  A    between atoms: C_4  and  C_8 
REMARK    2  A    between atoms: N_9  and  C_28 
REMARK    3  A    between atoms: C_15  and  C_17 
REMARK    4  A    between atoms: C_25  and  O_26 
REMARK    5  A    between atoms: C_28  and  C_29 
REMARK    6  A    between atoms: C_29  and  C_30 
REMARK    7  A    between atoms: C_30  and  N_31 
ROOT
ATOM      1  C   UNK d   1      16.603 -59.043  33.424  0.00  0.00     0.161 C 
ATOM      2  N   UNK d   1      15.183 -59.012  33.710  0.00  0.00    -0.332 N 
ATOM      3  C   UNK d   1      14.781 -57.634  33.545  0.00  0.00     0.295 C 
ATOM      4  O   UNK d   1      13.614 -57.240  33.307  0.00  0.00    -0.264 OA
ATOM      5  C   UNK d   1      15.990 -56.822  33.710  0.00  0.00     0.251 C 
ATOM      6  O   UNK d   1      16.106 -55.571  33.647  0.00  0.00    -0.282 OA
ATOM      7  C   UNK d   1      17.103 -57.727  33.971  0.00  0.00     0.064 C 
ATOM      8  C   UNK d   1      18.264 -57.440  34.537  0.00  0.00     0.153 C 
ATOM      9  O   UNK d   1      19.203 -58.430  34.682  0.00  0.00    -0.188 OA
ENDROOT
BRANCH   1  10
ATOM     10  C   UNK d   1      16.911 -59.159  31.976  0.00  0.00    -0.029 A 
ATOM     11  C   UNK d   1      17.708 -58.216  31.324  0.00  0.00     0.028 A 
ATOM     12  C   UNK d   1      18.013 -58.282  29.995  0.00  0.00     0.011 A 
ATOM     13 Br   UNK d   1      19.122 -56.935  29.182  0.00  0.00    -0.051 Br
ATOM     14  C   UNK d   1      17.532 -59.309  29.237  0.00  0.00     0.019 A 
ATOM     15  C   UNK d   1      16.747 -60.260  29.824  0.00  0.00     0.002 A 
ATOM     16  C   UNK d   1      16.443 -60.181  31.180  0.00  0.00     0.009 A 
ENDBRANCH   1  10
BRANCH   8  17
ATOM     17  C   UNK d   1      18.568 -56.080  35.018  0.00  0.00     0.114 A 
ATOM     18  O   UNK d   1      18.114 -55.545  36.119  0.00  0.00    -0.304 OA
ATOM     19  C   UNK d   1      18.527 -54.339  36.319  0.00  0.00     0.119 A 
ATOM     20  C   UNK d   1      19.339 -54.018  35.257  0.00  0.00     0.003 A 
ATOM     21  C   UNK d   1      18.269 -53.451  37.355  0.00  0.00     0.102 A 
ATOM     22  C   UNK d   1      19.363 -55.123  34.433  0.00  0.00     0.054 A 
ATOM     23  C   UNK d   1      19.913 -52.766  35.231  0.00  0.00     0.014 A 
ATOM     24  C   UNK d   1      19.690 -51.844  36.234  0.00  0.00     0.004 A 
ATOM     25  C   UNK d   1      18.858 -52.213  37.295  0.00  0.00     0.040 A 
BRANCH  21  26
ATOM     26  O   UNK d   1      17.461 -53.775  38.415  0.00  0.00    -0.353 OA
ATOM     27  C   UNK d   1      16.628 -52.914  39.123  0.00  0.00     0.210 C 
ENDBRANCH  21  26
ENDBRANCH   8  17
BRANCH   2  28
ATOM     28  C   UNK d   1      14.312 -60.106  34.065  0.00  0.00     0.129 C 
BRANCH  28  29
ATOM     29  C   UNK d   1      13.991 -60.104  35.540  0.00  0.00     0.048 C 
BRANCH  29  30
ATOM     30  C   UNK d   1      12.713 -59.442  35.907  0.00  0.00     0.235 C 
BRANCH  30  31
ATOM     31  N   UNK d   1      12.819 -58.441  36.922  0.00  0.00    -0.079 N 
ATOM     32  C   UNK d   1      14.223 -58.107  37.175  0.00  0.00     0.269 C 
ATOM     33  C   UNK d   1      12.191 -58.824  38.150  0.00  0.00     0.269 C 
ATOM     34  H   UNK d   1      12.387 -57.519  36.627  0.00  0.00     0.278 HD
ENDBRANCH  30  31
ENDBRANCH  29  30
ENDBRANCH  28  29
ENDBRANCH   2  28
TORSDOF 7
ENDMDL
