/Users/jonathanwahrer/Desktop/Msc/3_Semester/Drug_Design_Praktikum/waehrer_HTS_screening/HTS_experiment/out/docking_results/vina_output/6s1j/0201_docked.pdbqt
 OpenBabel03222221073D

 25 28  0  0  0  0  0  0  0  0999 V2000
   14.1090  -57.8050   38.5120 C   0  0  0  0  0  0  0  0  0  0  0  0
   14.7860  -58.6610   37.8900 O   0  0  0  0  0  0  0  0  0  0  0  0
   12.8570  -58.1810   39.0410 N   0  0  0  0  0  0  0  0  0  0  0  0
   12.3080  -57.4560   39.5550 H   0  0  0  0  0  0  0  0  0  0  0  0
   14.6580  -56.4630   38.6550 C   0  0  0  0  0  0  0  0  0  0  0  0
   14.2800  -55.4970   39.5270 N   0  0  0  0  0  0  0  0  0  0  0  0
   15.0370  -54.4320   39.3200 N   0  0  0  0  0  0  0  0  0  0  0  0
   15.8910  -54.6540   38.3560 N   0  0  0  0  0  0  0  0  0  0  0  0
   15.6810  -55.9070   37.9210 C   0  0  0  0  0  3  0  0  0  0  0  0
   16.8900  -53.7830   37.8080 C   0  0  0  0  0  0  0  0  0  0  0  0
   17.7600  -54.1750   36.8200 C   0  0  0  0  0  3  0  0  0  0  0  0
   18.7180  -53.2880   36.3170 C   0  0  0  0  0  0  0  0  0  0  0  0
   19.9270  -53.8280   34.9460 Br  0  0  0  0  0  0  0  0  0  0  0  0
   18.8120  -52.0010   36.8010 C   0  0  0  0  0  3  0  0  0  0  0  0
   17.9450  -51.5980   37.7910 C   0  0  0  0  0  3  0  0  0  0  0  0
   16.9920  -52.4950   38.2850 C   0  0  0  0  0  3  0  0  0  0  0  0
   12.2800  -59.5000   38.9190 C   0  0  0  0  0  2  0  0  0  0  0  0
   10.7860  -59.4560   39.0850 C   0  0  0  0  0  0  0  0  0  0  0  0
   10.0740  -59.2860   40.2250 N   0  0  0  0  0  0  0  0  0  0  0  0
    8.7670  -59.3040   39.9420 C   0  0  0  0  0  0  0  0  0  0  0  0
   10.3030  -59.0980   41.6480 C   0  0  0  0  0  2  0  0  0  0  0  0
    8.6790  -59.4890   38.6030 N   0  0  0  0  0  0  0  0  0  0  0  0
    7.9390  -59.1190   41.1890 C   0  0  0  0  0  2  0  0  0  0  0  0
    9.8900  -59.5790   38.0900 N   0  0  0  0  0  0  0  0  0  0  0  0
    8.9590  -59.4460   42.2600 C   0  0  0  0  0  2  0  0  0  0  0  0
  1  5  1  0  0  0  0
  1  3  1  0  0  0  0
  2  1  2  0  0  0  0
  3  4  1  0  0  0  0
  5  6  1  0  0  0  0
  7  6  2  0  0  0  0
  8  7  1  0  0  0  0
  9  8  1  0  0  0  0
  9  5  2  0  0  0  0
 10 16  1  0  0  0  0
 10  8  1  0  0  0  0
 11 10  2  0  0  0  0
 12 14  2  0  0  0  0
 12 11  1  0  0  0  0
 13 12  1  0  0  0  0
 14 15  1  0  0  0  0
 15 16  2  0  0  0  0
 17  3  1  0  0  0  0
 17 18  1  0  0  0  0
 18 19  1  0  0  0  0
 19 21  1  0  0  0  0
 20 19  1  0  0  0  0
 20 23  1  0  0  0  0
 21 25  1  0  0  0  0
 22 20  2  0  0  0  0
 23 25  1  0  0  0  0
 24 22  1  0  0  0  0
 24 18  2  0  0  0  0
M  END
>  <Pose>
1

>  <Score>
-9.304

$$$$
