MODEL 1
REMARK VINA RESULT:    -9.908      0.000      0.000
REMARK INTER + INTRA:         -10.956
REMARK INTER:                 -11.067
REMARK INTRA:                   0.110
REMARK UNBOUND:                 0.110
REMARK  2 active torsions:
REMARK  status: ('A' for Active; 'I' for Inactive)
REMARK    1  A    between atoms: C_4  and  N_8 
REMARK    2  A    between atoms: C_14  and  C_18 
ROOT
ATOM      1  N   UNK d   1      16.365 -55.564  37.201  0.00  0.00    -0.246 N 
ATOM      2  C   UNK d   1      16.647 -56.419  36.075  0.00  0.00     0.268 C 
ATOM      3  O   UNK d   1      17.059 -55.993  34.959  0.00  0.00    -0.269 OA
ATOM      4  C   UNK d   1      16.383 -57.807  36.447  0.00  0.00     0.285 C 
ATOM      5  O   UNK d   1      15.861 -58.640  35.496  0.00  0.00    -0.260 OA
ATOM      6  N   UNK d   1      15.039 -59.471  36.254  0.00  0.00    -0.264 N 
ATOM      7  C   UNK d   1      14.408 -58.685  37.236  0.00  0.00     0.083 C 
ATOM      8  C   UNK d   1      15.214 -57.624  37.386  0.00  0.00     0.080 C 
ATOM      9  C   UNK d   1      15.464 -56.333  38.017  0.00  0.00     0.266 C 
ATOM     10  O   UNK d   1      14.970 -55.954  39.100  0.00  0.00    -0.267 OA
ATOM     11  H   UNK d   1      14.914 -60.482  36.117  0.00  0.00     0.194 HD
ENDROOT
BRANCH   1  12
ATOM     12  C   UNK d   1      16.834 -54.260  37.477  0.00  0.00     0.047 A 
ATOM     13  C   UNK d   1      17.959 -53.732  36.846  0.00  0.00     0.049 A 
ATOM     14  C   UNK d   1      18.447 -52.472  37.082  0.00  0.00     0.013 A 
ATOM     15 Br   UNK d   1      19.992 -51.784  36.202  0.00  0.00    -0.051 Br
ATOM     16  C   UNK d   1      17.820 -51.645  37.991  0.00  0.00     0.019 A 
ATOM     17  C   UNK d   1      16.694 -52.155  38.631  0.00  0.00     0.004 A 
ATOM     18  C   UNK d   1      16.213 -53.419  38.387  0.00  0.00     0.030 A 
ENDBRANCH   1  12
BRANCH   7  19
ATOM     19  C   UNK d   1      13.191 -58.950  37.987  0.00  0.00     0.036 A 
ATOM     20  C   UNK d   1      12.003 -59.432  37.429  0.00  0.00     0.040 A 
ATOM     21  N   UNK d   1      11.120 -59.581  38.396  0.00  0.00    -0.278 N 
ATOM     22  C   UNK d   1      11.760 -59.705  35.993  0.00  0.00     0.071 C 
ATOM     23  N   UNK d   1      11.687 -59.216  39.543  0.00  0.00    -0.184 NA
ATOM     24  C   UNK d   1       9.744 -60.056  38.261  0.00  0.00     0.179 C 
ATOM     25  C   UNK d   1      12.932 -58.831  39.324  0.00  0.00     0.154 A 
ENDBRANCH   7  19
TORSDOF 2
ENDMDL
