/Users/jonathanwahrer/Desktop/Msc/3_Semester/Drug_Design_Praktikum/waehrer_HTS_screening/HTS_experiment/out/docking_results/vina_output/6s1j/0211_docked.pdbqt
 OpenBabel03222221073D

 22 25  0  0  1  0  0  0  0  0999 V2000
   17.7940  -55.4410   36.0150 N   0  0  0  0  0  0  0  0  0  0  0  0
   18.9550  -54.7390   36.4340 C   0  0  0  0  0  0  0  0  0  0  0  0
   20.1070  -54.8250   35.8680 O   0  0  0  0  0  0  0  0  0  0  0  0
   18.6190  -53.9130   37.6030 C   0  0  1  0  0  3  0  0  0  0  0  0
   18.2440  -52.5460   37.1220 C   0  0  1  0  0  0  0  0  0  0  0  0
   17.0000  -52.8420   36.5090 O   0  0  0  0  0  0  0  0  0  0  0  0
   16.3580  -53.3170   37.6830 C   0  0  1  0  0  3  0  0  0  0  0  0
   17.2920  -54.4520   38.0590 C   0  0  1  0  0  3  0  0  0  0  0  0
   16.9690  -55.5770   37.1590 C   0  0  0  0  0  0  0  0  0  0  0  0
   16.1170  -56.4770   37.3810 O   0  0  0  0  0  0  0  0  0  0  0  0
   16.5640  -52.1510   38.5730 C   0  0  0  0  0  2  0  0  0  0  0  0
   17.7560  -51.6470   38.2020 C   0  0  0  0  0  2  0  0  0  0  0  0
   17.5120  -55.9240   34.6810 C   0  0  0  0  0  0  0  0  0  0  0  0
   17.3830  -57.2750   34.4010 C   0  0  0  0  0  3  0  0  0  0  0  0
   17.1180  -57.7870   33.1710 C   0  0  0  0  0  0  0  0  0  0  0  0
   16.9700  -59.6770   32.9380 Br  0  0  0  0  0  0  0  0  0  0  0  0
   16.9620  -56.9150   32.1120 C   0  0  0  0  0  3  0  0  0  0  0  0
   17.0800  -55.5590   32.3380 C   0  0  0  0  0  3  0  0  0  0  0  0
   17.3540  -55.0650   33.6160 C   0  0  0  0  0  3  0  0  0  0  0  0
   19.2130  -51.9070   36.2010 C   0  0  0  0  0  2  0  0  0  0  0  0
   19.3260  -50.5560   36.5360 O   0  0  0  0  0  0  0  0  0  0  0  0
   19.8990  -50.0870   35.8800 H   0  0  0  0  0  0  0  0  0  0  0  0
  1  2  1  0  0  0  0
  1  9  1  0  0  0  0
  3  2  2  0  0  0  0
  4  2  1  6  0  0  0
  4  8  1  0  0  0  0
  5 20  1  6  0  0  0
  5  4  1  0  0  0  0
  5 12  1  0  0  0  0
  6  5  1  0  0  0  0
  6  7  1  0  0  0  0
  7  8  1  0  0  0  0
  7 11  1  1  0  0  0
  8  9  1  6  0  0  0
  9 10  2  0  0  0  0
 12 11  1  0  0  0  0
 13  1  1  0  0  0  0
 14 13  1  0  0  0  0
 15 14  2  0  0  0  0
 16 15  1  0  0  0  0
 17 18  2  0  0  0  0
 17 15  1  0  0  0  0
 18 19  1  0  0  0  0
 19 13  2  0  0  0  0
 20 21  1  0  0  0  0
 22 21  1  0  0  0  0
M  END
>  <Pose>
1

>  <Score>
-8.176

$$$$
