/Users/jonathanwahrer/Desktop/Msc/3_Semester/Drug_Design_Praktikum/waehrer_HTS_screening/HTS_experiment/out/docking_results/vina_output/6s1j/0213_docked.pdbqt
 OpenBabel03222221073D

 25 28  0  0  1  0  0  0  0  0999 V2000
   16.9610  -54.3790   37.4220 N   0  0  0  0  0  0  0  0  0  0  0  0
   16.0520  -54.0500   38.4960 C   0  0  0  0  0  0  0  0  0  0  0  0
   15.6700  -52.9320   38.8560 O   0  0  0  0  0  0  0  0  0  0  0  0
   15.6270  -55.3320   39.1310 C   0  0  1  0  0  3  0  0  0  0  0  0
   14.3150  -55.3420   39.5670 O   0  0  0  0  0  0  0  0  0  0  0  0
   13.9830  -56.6680   39.4140 N   0  0  0  0  0  0  0  0  0  0  0  0
   14.5090  -57.0200   38.1220 C   0  0  0  0  0  0  0  0  0  0  0  0
   15.5250  -56.2190   37.9060 C   0  0  0  0  0  0  0  0  0  0  0  0
   16.6230  -55.7370   37.0610 C   0  0  0  0  0  0  0  0  0  0  0  0
   17.1440  -56.4340   36.1840 O   0  0  0  0  0  0  0  0  0  0  0  0
   13.4780  -57.2890   40.0550 H   0  0  0  0  0  0  0  0  0  0  0  0
   17.9480  -53.5260   36.8790 C   0  0  0  0  0  0  0  0  0  0  0  0
   18.6020  -53.8740   35.7180 C   0  0  0  0  0  3  0  0  0  0  0  0
   19.5870  -53.0510   35.1630 C   0  0  0  0  0  0  0  0  0  0  0  0
   20.4750  -53.5590   33.5590 Br  0  0  0  0  0  0  0  0  0  0  0  0
   19.9380  -51.8610   35.7570 C   0  0  0  0  0  3  0  0  0  0  0  0
   19.2850  -51.5100   36.9180 C   0  0  0  0  0  3  0  0  0  0  0  0
   18.2980  -52.3380   37.4720 C   0  0  0  0  0  3  0  0  0  0  0  0
   14.0440  -58.0290   37.2090 C   0  0  0  0  0  0  0  0  0  0  0  0
   14.3630  -58.0150   35.8520 C   0  0  0  0  0  3  0  0  0  0  0  0
   13.8080  -59.0810   35.2490 N   0  0  0  0  0  0  0  0  0  0  0  0
   13.1650  -59.7370   36.2000 N   0  0  0  0  0  0  0  0  0  0  0  0
   13.9030  -59.4320   33.8230 C   0  0  0  0  0  1  0  0  0  0  0  0
   13.2730  -59.1530   37.3920 C   0  0  0  0  0  0  0  0  0  0  0  0
   12.6920  -59.6020   38.7020 C   0  0  0  0  0  1  0  0  0  0  0  0
  1  2  1  0  0  0  0
  2  3  2  0  0  0  0
  2  4  1  0  0  0  0
  4  8  1  6  0  0  0
  4  5  1  0  0  0  0
  6  5  1  0  0  0  0
  6 11  1  0  0  0  0
  7  6  1  0  0  0  0
  8  7  2  0  0  0  0
  9  1  1  0  0  0  0
  9  8  1  0  0  0  0
 10  9  2  0  0  0  0
 12  1  1  0  0  0  0
 12 18  1  0  0  0  0
 13 12  2  0  0  0  0
 14 13  1  0  0  0  0
 14 16  2  0  0  0  0
 15 14  1  0  0  0  0
 16 17  1  0  0  0  0
 17 18  2  0  0  0  0
 19 24  1  0  0  0  0
 19  7  1  0  0  0  0
 20 19  2  0  0  0  0
 21 20  1  0  0  0  0
 21 22  1  0  0  0  0
 22 24  2  0  0  0  0
 23 21  1  0  0  0  0
 24 25  1  0  0  0  0
M  END
>  <Pose>
1

>  <Score>
-10.242

$$$$
