MODEL 1
REMARK VINA RESULT:   -10.242      0.000      0.000
REMARK INTER + INTRA:         -11.076
REMARK INTER:                 -11.439
REMARK INTRA:                   0.364
REMARK UNBOUND:                 0.364
REMARK  2 active torsions:
REMARK  status: ('A' for Active; 'I' for Inactive)
REMARK    1  A    between atoms: C_4  and  N_8 
REMARK    2  A    between atoms: C_14  and  C_18 
ROOT
ATOM      1  N   UNK d   1      16.961 -54.379  37.422  0.00  0.00    -0.246 N 
ATOM      2  C   UNK d   1      16.052 -54.050  38.496  0.00  0.00     0.268 C 
ATOM      3  O   UNK d   1      15.670 -52.932  38.856  0.00  0.00    -0.269 OA
ATOM      4  C   UNK d   1      15.627 -55.332  39.131  0.00  0.00     0.285 C 
ATOM      5  O   UNK d   1      14.315 -55.342  39.567  0.00  0.00    -0.260 OA
ATOM      6  N   UNK d   1      13.983 -56.668  39.414  0.00  0.00    -0.264 N 
ATOM      7  C   UNK d   1      14.509 -57.020  38.122  0.00  0.00     0.083 C 
ATOM      8  C   UNK d   1      15.525 -56.219  37.906  0.00  0.00     0.080 C 
ATOM      9  C   UNK d   1      16.623 -55.737  37.061  0.00  0.00     0.266 C 
ATOM     10  O   UNK d   1      17.144 -56.434  36.184  0.00  0.00    -0.267 OA
ATOM     11  H   UNK d   1      13.478 -57.289  40.055  0.00  0.00     0.194 HD
ENDROOT
BRANCH   1  12
ATOM     12  C   UNK d   1      17.948 -53.526  36.879  0.00  0.00     0.047 A 
ATOM     13  C   UNK d   1      18.602 -53.874  35.718  0.00  0.00     0.049 A 
ATOM     14  C   UNK d   1      19.587 -53.051  35.163  0.00  0.00     0.013 A 
ATOM     15 Br   UNK d   1      20.475 -53.559  33.559  0.00  0.00    -0.051 Br
ATOM     16  C   UNK d   1      19.938 -51.861  35.757  0.00  0.00     0.019 A 
ATOM     17  C   UNK d   1      19.285 -51.510  36.918  0.00  0.00     0.004 A 
ATOM     18  C   UNK d   1      18.298 -52.338  37.472  0.00  0.00     0.030 A 
ENDBRANCH   1  12
BRANCH   7  19
ATOM     19  C   UNK d   1      14.044 -58.029  37.209  0.00  0.00     0.036 A 
ATOM     20  C   UNK d   1      14.363 -58.015  35.852  0.00  0.00     0.127 A 
ATOM     21  N   UNK d   1      13.808 -59.081  35.249  0.00  0.00    -0.284 N 
ATOM     22  N   UNK d   1      13.165 -59.737  36.200  0.00  0.00    -0.177 NA
ATOM     23  C   UNK d   1      13.903 -59.432  33.823  0.00  0.00     0.179 C 
ATOM     24  C   UNK d   1      13.273 -59.153  37.392  0.00  0.00     0.065 A 
ATOM     25  C   UNK d   1      12.692 -59.602  38.702  0.00  0.00     0.073 C 
ENDBRANCH   7  19
TORSDOF 2
ENDMDL
