MODEL 1
REMARK VINA RESULT:    -9.023      0.000      0.000
REMARK INTER + INTRA:         -12.728
REMARK INTER:                 -11.661
REMARK INTRA:                  -1.067
REMARK UNBOUND:                -1.067
REMARK  5 active torsions:
REMARK  status: ('A' for Active; 'I' for Inactive)
REMARK    1  A    between atoms: C_4  and  N_8 
REMARK    2  A    between atoms: C_10  and  C_14 
REMARK       I    between atoms: C_14  and  N_16 
REMARK    3  A    between atoms: N_19  and  C_22 
REMARK    4  A    between atoms: C_22  and  C_23 
REMARK    5  A    between atoms: C_23  and  N_24 
ROOT
ATOM      1  C   UNK d   1      17.212 -57.876  32.967  0.00  0.00     0.226 C 
ATOM      2  O   UNK d   1      17.949 -58.798  32.537  0.00  0.00    -0.273 OA
ATOM      3  N   UNK d   1      15.872 -58.110  33.344  0.00  0.00    -0.348 N 
ATOM      4  C   UNK d   1      14.989 -57.067  33.848  0.00  0.00     0.156 C 
ATOM      5  C   UNK d   1      13.952 -57.702  34.765  0.00  0.00     0.292 C 
ATOM      6  N   UNK d   1      14.427 -58.921  35.391  0.00  0.00     0.093 N 
ATOM      7  C   UNK d   1      14.574 -59.929  34.400  0.00  0.00     0.292 C 
ATOM      8  C   UNK d   1      15.361 -59.480  33.216  0.00  0.00     0.156 C 
ENDROOT
BRANCH   1   9
ATOM      9  C   UNK d   1      17.771 -56.543  33.073  0.00  0.00     0.105 C 
ATOM     10  C   UNK d   1      18.859 -56.448  34.163  0.00  0.00     0.146 C 
ATOM     11  N   UNK d   1      19.209 -55.054  33.936  0.00  0.00    -0.317 N 
ATOM     12  C   UNK d   1      19.340 -54.979  32.521  0.00  0.00     0.225 C 
ATOM     13  C   UNK d   1      18.656 -56.141  31.888  0.00  0.00     0.119 C 
ATOM     14  O   UNK d   1      19.941 -54.072  31.902  0.00  0.00    -0.273 OA
BRANCH  11  15
ATOM     15  C   UNK d   1      19.352 -54.084  34.954  0.00  0.00     0.038 A 
ATOM     16  C   UNK d   1      19.010 -54.398  36.257  0.00  0.00     0.048 A 
ATOM     17  C   UNK d   1      19.121 -53.486  37.301  0.00  0.00     0.013 A 
ATOM     18 Br   UNK d   1      18.627 -54.015  39.045  0.00  0.00    -0.051 Br
ATOM     19  C   UNK d   1      19.594 -52.205  37.018  0.00  0.00     0.019 A 
ATOM     20  C   UNK d   1      19.946 -51.848  35.735  0.00  0.00     0.004 A 
ATOM     21  C   UNK d   1      19.812 -52.802  34.748  0.00  0.00     0.030 A 
ENDBRANCH  11  15
ENDBRANCH   1   9
BRANCH   6  22
ATOM     22  C   UNK d   1      15.529 -58.693  36.257  0.00  0.00     0.292 C 
BRANCH  22  23
ATOM     23  C   UNK d   1      15.160 -58.630  37.717  0.00  0.00     0.159 C 
BRANCH  23  24
ATOM     24  N   UNK d   1      15.005 -57.297  38.225  0.00  0.00    -0.348 N 
ATOM     25  C   UNK d   1      14.197 -56.867  39.195  0.00  0.00     0.209 A 
ATOM     26  N   UNK d   1      14.355 -55.535  39.357  0.00  0.00    -0.255 NA
ATOM     27  C   UNK d   1      15.273 -55.115  38.479  0.00  0.00     0.135 A 
ATOM     28  C   UNK d   1      15.673 -56.227  37.774  0.00  0.00     0.111 A 
ENDBRANCH  23  24
ENDBRANCH  22  23
ENDBRANCH   6  22
TORSDOF 5
ENDMDL
