/Users/jonathanwahrer/Desktop/Msc/3_Semester/Drug_Design_Praktikum/waehrer_HTS_screening/HTS_experiment/out/docking_results/vina_output/6s1j/0216_docked.pdbqt
 OpenBabel03222221073D

 28 31  0  0  1  0  0  0  0  0999 V2000
   17.2120  -57.8760   32.9670 C   0  0  0  0  0  0  0  0  0  0  0  0
   17.9490  -58.7980   32.5370 O   0  0  0  0  0  0  0  0  0  0  0  0
   15.8720  -58.1100   33.3440 N   0  0  0  0  0  0  0  0  0  0  0  0
   14.9890  -57.0670   33.8480 C   0  0  0  0  0  2  0  0  0  0  0  0
   13.9520  -57.7020   34.7650 C   0  0  0  0  0  2  0  0  0  0  0  0
   14.4270  -58.9210   35.3910 N   0  0  0  0  0  0  0  0  0  0  0  0
   14.5740  -59.9290   34.4000 C   0  0  0  0  0  2  0  0  0  0  0  0
   15.3610  -59.4800   33.2160 C   0  0  0  0  0  2  0  0  0  0  0  0
   17.7710  -56.5430   33.0730 C   0  0  1  0  0  3  0  0  0  0  0  0
   18.8590  -56.4480   34.1630 C   0  0  0  0  0  2  0  0  0  0  0  0
   19.2090  -55.0540   33.9360 N   0  0  0  0  0  0  0  0  0  0  0  0
   19.3400  -54.9790   32.5210 C   0  0  0  0  0  0  0  0  0  0  0  0
   18.6560  -56.1410   31.8880 C   0  0  0  0  0  2  0  0  0  0  0  0
   19.9410  -54.0720   31.9020 O   0  0  0  0  0  0  0  0  0  0  0  0
   19.3520  -54.0840   34.9540 C   0  0  0  0  0  0  0  0  0  0  0  0
   19.0100  -54.3980   36.2570 C   0  0  0  0  0  3  0  0  0  0  0  0
   19.1210  -53.4860   37.3010 C   0  0  0  0  0  0  0  0  0  0  0  0
   18.6270  -54.0150   39.0450 Br  0  0  0  0  0  0  0  0  0  0  0  0
   19.5940  -52.2050   37.0180 C   0  0  0  0  0  3  0  0  0  0  0  0
   19.9460  -51.8480   35.7350 C   0  0  0  0  0  3  0  0  0  0  0  0
   19.8120  -52.8020   34.7480 C   0  0  0  0  0  3  0  0  0  0  0  0
   15.5290  -58.6930   36.2570 C   0  0  0  0  0  2  0  0  0  0  0  0
   15.1600  -58.6300   37.7170 C   0  0  0  0  0  2  0  0  0  0  0  0
   15.0050  -57.2970   38.2250 N   0  0  0  0  0  0  0  0  0  0  0  0
   14.1970  -56.8670   39.1950 C   0  0  0  0  0  3  0  0  0  0  0  0
   14.3550  -55.5350   39.3570 N   0  0  0  0  0  0  0  0  0  0  0  0
   15.2730  -55.1150   38.4790 C   0  0  0  0  0  3  0  0  0  0  0  0
   15.6730  -56.2270   37.7740 C   0  0  0  0  0  3  0  0  0  0  0  0
  1  3  1  0  0  0  0
  2  1  2  0  0  0  0
  3  4  1  0  0  0  0
  4  5  1  0  0  0  0
  5  6  1  0  0  0  0
  6 22  1  0  0  0  0
  7  6  1  0  0  0  0
  8  3  1  0  0  0  0
  8  7  1  0  0  0  0
  9  1  1  6  0  0  0
  9 10  1  0  0  0  0
 11 10  1  0  0  0  0
 11 15  1  0  0  0  0
 12 11  1  0  0  0  0
 13 12  1  0  0  0  0
 13  9  1  0  0  0  0
 14 12  2  0  0  0  0
 15 16  1  0  0  0  0
 16 17  2  0  0  0  0
 17 18  1  0  0  0  0
 19 17  1  0  0  0  0
 20 19  2  0  0  0  0
 21 15  2  0  0  0  0
 21 20  1  0  0  0  0
 22 23  1  0  0  0  0
 23 24  1  0  0  0  0
 24 25  1  0  0  0  0
 25 26  2  0  0  0  0
 27 26  1  0  0  0  0
 28 24  1  0  0  0  0
 28 27  2  0  0  0  0
M  END
>  <Pose>
1

>  <Score>
-9.023

$$$$
