MODEL 1
REMARK VINA RESULT:    -9.297      0.000      0.000
REMARK INTER + INTRA:         -13.839
REMARK INTER:                 -12.559
REMARK INTRA:                  -1.280
REMARK UNBOUND:                -1.280
REMARK  6 active torsions:
REMARK  status: ('A' for Active; 'I' for Inactive)
REMARK    1  A    between atoms: C_4  and  O_8 
REMARK    2  A    between atoms: O_8  and  C_9 
REMARK    3  A    between atoms: C_9  and  C_10 
REMARK    4  A    between atoms: C_10  and  N_11 
REMARK       I    between atoms: N_11  and  C_12 
REMARK    5  A    between atoms: C_12  and  C_14 
REMARK    6  A    between atoms: C_14  and  N_15 
ROOT
ATOM      1  N   UNK d   1      14.785 -57.413  37.015  0.00  0.00    -0.358 N 
ATOM      2  C   UNK d   1      14.572 -58.607  36.272  0.00  0.00     0.236 C 
ATOM      3  O   UNK d   1      13.567 -59.305  36.648  0.00  0.00    -0.272 OA
ATOM      4  H   UNK d   1      15.587 -56.803  36.749  0.00  0.00     0.162 HD
ENDROOT
BRANCH   2   5
ATOM      5  C   UNK d   1      15.408 -59.065  35.144  0.00  0.00     0.237 C 
BRANCH   5   6
ATOM      6  N   UNK d   1      16.197 -58.036  34.524  0.00  0.00    -0.279 N 
ATOM      7  C   UNK d   1      15.607 -57.006  33.713  0.00  0.00     0.232 C 
ATOM      8  O   UNK d   1      14.465 -56.999  33.189  0.00  0.00    -0.272 OA
ATOM      9  C   UNK d   1      16.585 -55.926  33.587  0.00  0.00     0.100 C 
ATOM     10  C   UNK d   1      17.831 -56.354  34.387  0.00  0.00     0.100 C 
ATOM     11  C   UNK d   1      17.185 -55.770  32.217  0.00  0.00     0.022 C 
ATOM     12  C   UNK d   1      18.994 -56.157  33.480  0.00  0.00     0.022 C 
ATOM     13  C   UNK d   1      17.612 -57.811  34.583  0.00  0.00     0.232 C 
ATOM     14  C   UNK d   1      18.474 -55.009  32.589  0.00  0.00     0.018 C 
ATOM     15  C   UNK d   1      18.957 -57.242  32.468  0.00  0.00    -0.025 C 
ATOM     16  C   UNK d   1      17.805 -57.081  31.825  0.00  0.00    -0.025 C 
ATOM     17  O   UNK d   1      18.469 -58.693  34.762  0.00  0.00    -0.272 OA
ENDBRANCH   5   6
ENDBRANCH   2   5
BRANCH   1  18
ATOM     18  C   UNK d   1      13.947 -57.019  38.106  0.00  0.00     0.149 C 
BRANCH  18  19
ATOM     19  C   UNK d   1      14.799 -56.540  39.292  0.00  0.00     0.195 C 
BRANCH  19  20
ATOM     20  O   UNK d   1      15.528 -55.519  38.981  0.00  0.00    -0.350 OA
BRANCH  20  21
ATOM     21  C   UNK d   1      16.172 -54.453  38.674  0.00  0.00     0.070 A 
ATOM     22  C   UNK d   1      17.279 -54.521  37.809  0.00  0.00     0.055 A 
ATOM     23  C   UNK d   1      18.010 -53.425  37.441  0.00  0.00     0.013 A 
ATOM     24 Br   UNK d   1      19.508 -53.556  36.264  0.00  0.00    -0.051 Br
ATOM     25  C   UNK d   1      17.677 -52.187  37.920  0.00  0.00     0.019 A 
ATOM     26  C   UNK d   1      16.600 -52.057  38.774  0.00  0.00     0.004 A 
ATOM     27  C   UNK d   1      15.868 -53.159  39.141  0.00  0.00     0.037 A 
ENDBRANCH  20  21
ENDBRANCH  19  20
ENDBRANCH  18  19
ENDBRANCH   1  18
TORSDOF 6
ENDMDL
