MODEL 1
REMARK VINA RESULT:    -9.231      0.000      0.000
REMARK INTER + INTRA:         -12.227
REMARK INTER:                 -11.390
REMARK INTRA:                  -0.837
REMARK UNBOUND:                -0.837
REMARK  4 active torsions:
REMARK  status: ('A' for Active; 'I' for Inactive)
REMARK    1  A    between atoms: C_5  and  C_8 
REMARK    2  A    between atoms: C_8  and  C_10 
REMARK    3  A    between atoms: C_10  and  N_11 
REMARK    4  A    between atoms: C_15  and  N_16 
ROOT
ATOM      1  N   UNK d   1      15.533 -57.101  36.937  0.00  0.00    -0.165 N 
ATOM      2  C   UNK d   1      14.432 -57.618  37.507  0.00  0.00     0.167 A 
ATOM      3  C   UNK d   1      13.711 -58.330  36.568  0.00  0.00     0.185 A 
ATOM      4  N   UNK d   1      14.415 -58.221  35.435  0.00  0.00    -0.044 NA
ATOM      5  C   UNK d   1      15.522 -57.482  35.628  0.00  0.00     0.708 A 
ATOM      6  N   UNK d   1      12.564 -58.941  36.917  0.00  0.00    -0.286 N 
ATOM      7  C   UNK d   1      12.104 -58.867  38.178  0.00  0.00     0.330 A 
ATOM      8  O   UNK d   1      11.039 -59.422  38.546  0.00  0.00    -0.246 OA
ATOM      9  N   UNK d   1      12.804 -58.169  39.114  0.00  0.00    -0.273 N 
ATOM     10  C   UNK d   1      13.955 -57.541  38.814  0.00  0.00     0.280 A 
ATOM     11  O   UNK d   1      14.580 -56.895  39.717  0.00  0.00    -0.265 OA
ATOM     12  C   UNK d   1      11.785 -59.695  35.956  0.00  0.00     0.163 C 
ATOM     13  H   UNK d   1      12.412 -58.136  40.083  0.00  0.00     0.173 HD
ENDROOT
BRANCH   1  14
ATOM     14  C   UNK d   1      16.547 -56.304  37.567  0.00  0.00     0.232 C 
BRANCH  14  15
ATOM     15  C   UNK d   1      16.195 -54.852  37.637  0.00  0.00     0.178 C 
ATOM     16  O   UNK d   1      15.061 -54.490  37.992  0.00  0.00    -0.290 OA
BRANCH  15  17
ATOM     17  C   UNK d   1      17.177 -53.827  37.290  0.00  0.00     0.011 A 
ATOM     18  C   UNK d   1      17.119 -52.563  37.824  0.00  0.00     0.016 A 
ATOM     19  C   UNK d   1      18.050 -51.593  37.491  0.00  0.00     0.020 A 
ATOM     20  C   UNK d   1      19.082 -51.852  36.602  0.00  0.00     0.011 A 
ATOM     21 Br   UNK d   1      20.340 -50.492  36.171  0.00  0.00    -0.051 Br
ATOM     22  C   UNK d   1      19.142 -53.119  36.064  0.00  0.00     0.020 A 
ATOM     23  C   UNK d   1      18.211 -54.073  36.405  0.00  0.00     0.016 A 
ENDBRANCH  15  17
ENDBRANCH  14  15
ENDBRANCH   1  14
BRANCH   5  24
ATOM     24  N   UNK d   1      16.532 -57.133  34.699  0.00  0.00    -0.212 N 
ATOM     25  C   UNK d   1      16.303 -56.046  33.803  0.00  0.00     0.171 C 
ATOM     26  C   UNK d   1      17.484 -55.486  33.102  0.00  0.00     0.292 C 
ATOM     27  N   UNK d   1      18.595 -56.377  32.941  0.00  0.00     0.087 N 
ATOM     28  C   UNK d   1      18.906 -56.944  34.239  0.00  0.00     0.292 C 
ATOM     29  C   UNK d   1      18.392 -57.374  31.930  0.00  0.00     0.310 C 
ATOM     30  C   UNK d   1      17.762 -57.863  34.669  0.00  0.00     0.171 C 
ENDBRANCH   5  24
TORSDOF 4
ENDMDL
