/Users/jonathanwahrer/Desktop/Msc/3_Semester/Drug_Design_Praktikum/waehrer_HTS_screening/HTS_experiment/out/docking_results/vina_output/6s1j/0226_docked.pdbqt
 OpenBabel03222221083D

 30 33  0  0  0  0  0  0  0  0999 V2000
   15.5330  -57.1010   36.9370 N   0  0  0  0  0  0  0  0  0  0  0  0
   14.4320  -57.6180   37.5070 C   0  0  0  0  0  0  0  0  0  0  0  0
   13.7110  -58.3300   36.5680 C   0  0  0  0  0  0  0  0  0  0  0  0
   14.4150  -58.2210   35.4350 N   0  0  0  0  0  0  0  0  0  0  0  0
   15.5220  -57.4820   35.6280 C   0  0  0  0  0  0  0  0  0  0  0  0
   12.5640  -58.9410   36.9170 N   0  0  0  0  0  0  0  0  0  0  0  0
   12.1040  -58.8670   38.1780 C   0  0  0  0  0  0  0  0  0  0  0  0
   11.0390  -59.4220   38.5460 O   0  0  0  0  0  0  0  0  0  0  0  0
   12.8040  -58.1690   39.1140 N   0  0  0  0  0  0  0  0  0  0  0  0
   13.9550  -57.5410   38.8140 C   0  0  0  0  0  0  0  0  0  0  0  0
   14.5800  -56.8950   39.7170 O   0  0  0  0  0  0  0  0  0  0  0  0
   11.7850  -59.6950   35.9560 C   0  0  0  0  0  1  0  0  0  0  0  0
   12.4120  -58.1360   40.0830 H   0  0  0  0  0  0  0  0  0  0  0  0
   16.5470  -56.3040   37.5670 C   0  0  0  0  0  2  0  0  0  0  0  0
   16.1950  -54.8520   37.6370 C   0  0  0  0  0  0  0  0  0  0  0  0
   15.0610  -54.4900   37.9920 O   0  0  0  0  0  0  0  0  0  0  0  0
   17.1770  -53.8270   37.2900 C   0  0  0  0  0  0  0  0  0  0  0  0
   17.1190  -52.5630   37.8240 C   0  0  0  0  0  3  0  0  0  0  0  0
   18.0500  -51.5930   37.4910 C   0  0  0  0  0  3  0  0  0  0  0  0
   19.0820  -51.8520   36.6020 C   0  0  0  0  0  0  0  0  0  0  0  0
   20.3400  -50.4920   36.1710 Br  0  0  0  0  0  0  0  0  0  0  0  0
   19.1420  -53.1190   36.0640 C   0  0  0  0  0  3  0  0  0  0  0  0
   18.2110  -54.0730   36.4050 C   0  0  0  0  0  3  0  0  0  0  0  0
   16.5320  -57.1330   34.6990 N   0  0  0  0  0  0  0  0  0  0  0  0
   16.3030  -56.0460   33.8030 C   0  0  0  0  0  2  0  0  0  0  0  0
   17.4840  -55.4860   33.1020 C   0  0  0  0  0  2  0  0  0  0  0  0
   18.5950  -56.3770   32.9410 N   0  0  0  0  0  0  0  0  0  0  0  0
   18.9060  -56.9440   34.2390 C   0  0  0  0  0  2  0  0  0  0  0  0
   18.3920  -57.3740   31.9300 C   0  0  0  0  0  1  0  0  0  0  0  0
   17.7620  -57.8630   34.6690 C   0  0  0  0  0  2  0  0  0  0  0  0
  1  2  1  0  0  0  0
  1 14  1  0  0  0  0
  2 10  1  0  0  0  0
  3  6  1  0  0  0  0
  3  2  2  0  0  0  0
  4  5  2  0  0  0  0
  4  3  1  0  0  0  0
  5  1  1  0  0  0  0
  6  7  1  0  0  0  0
  7  8  2  0  0  0  0
  7  9  1  0  0  0  0
  9 13  1  0  0  0  0
 10  9  1  0  0  0  0
 10 11  2  0  0  0  0
 12  6  1  0  0  0  0
 14 15  1  0  0  0  0
 15 16  2  0  0  0  0
 17 15  1  0  0  0  0
 17 18  1  0  0  0  0
 19 18  2  0  0  0  0
 20 19  1  0  0  0  0
 21 20  1  0  0  0  0
 22 23  1  0  0  0  0
 22 20  2  0  0  0  0
 23 17  2  0  0  0  0
 24  5  1  0  0  0  0
 25 24  1  0  0  0  0
 26 25  1  0  0  0  0
 27 26  1  0  0  0  0
 27 28  1  0  0  0  0
 28 30  1  0  0  0  0
 29 27  1  0  0  0  0
 30 24  1  0  0  0  0
M  END
>  <Pose>
1

>  <Score>
-9.231

$$$$
