MODEL 1
REMARK VINA RESULT:    -8.706      0.000      0.000
REMARK INTER + INTRA:         -11.128
REMARK INTER:                 -12.269
REMARK INTRA:                   1.141
REMARK UNBOUND:                 1.141
REMARK  7 active torsions:
REMARK  status: ('A' for Active; 'I' for Inactive)
REMARK    1  A    between atoms: C_5  and  C_8 
REMARK    2  A    between atoms: C_8  and  C_10 
REMARK    3  A    between atoms: C_11  and  C_25 
REMARK    4  A    between atoms: N_12  and  C_17 
REMARK    5  A    between atoms: C_17  and  C_18 
REMARK    6  A    between atoms: C_18  and  N_19 
REMARK    7  A    between atoms: C_27  and  O_32 
ROOT
ATOM      1  C   UNK d   1      16.978 -57.390  33.842  0.00  0.00     0.167 C 
ATOM      2  C   UNK d   1      18.451 -57.183  33.588  0.00  0.00     0.140 C 
ATOM      3  N   UNK d   1      18.578 -57.567  32.201  0.00  0.00    -0.334 N 
ATOM      4  C   UNK d   1      17.366 -57.173  31.565  0.00  0.00     0.291 C 
ATOM      5  O   UNK d   1      17.138 -57.206  30.316  0.00  0.00    -0.264 OA
ATOM      6  C   UNK d   1      16.425 -56.721  32.607  0.00  0.00     0.230 C 
ATOM      7  O   UNK d   1      15.439 -55.980  32.465  0.00  0.00    -0.286 OA
ENDROOT
BRANCH   1   8
ATOM      8  C   UNK d   1      16.472 -56.793  35.064  0.00  0.00     0.173 C 
ATOM      9  O   UNK d   1      16.807 -55.640  35.408  0.00  0.00    -0.291 OA
BRANCH   8  10
ATOM     10  C   UNK d   1      15.557 -57.536  35.911  0.00  0.00     0.011 A 
ATOM     11  C   UNK d   1      14.399 -58.114  35.380  0.00  0.00     0.016 A 
ATOM     12  C   UNK d   1      13.517 -58.815  36.160  0.00  0.00     0.020 A 
ATOM     13  C   UNK d   1      13.770 -58.960  37.503  0.00  0.00     0.011 A 
ATOM     14 Br   UNK d   1      12.538 -59.934  38.568  0.00  0.00    -0.051 Br
ATOM     15  C   UNK d   1      14.886 -58.418  38.084  0.00  0.00     0.020 A 
ATOM     16  C   UNK d   1      15.753 -57.718  37.265  0.00  0.00     0.016 A 
ENDBRANCH   8  10
ENDBRANCH   1   8
BRANCH   2  17
ATOM     17  C   UNK d   1      18.933 -55.843  33.887  0.00  0.00    -0.031 A 
ATOM     18  C   UNK d   1      19.221 -55.431  35.196  0.00  0.00     0.049 A 
ATOM     19  C   UNK d   1      19.681 -54.160  35.471  0.00  0.00     0.105 A 
ATOM     20  C   UNK d   1      19.879 -53.239  34.459  0.00  0.00     0.140 A 
ATOM     21  C   UNK d   1      19.602 -53.623  33.164  0.00  0.00     0.043 A 
ATOM     22  O   UNK d   1      20.340 -51.952  34.709  0.00  0.00    -0.189 OA
ATOM     23  C   UNK d   1      19.140 -54.904  32.904  0.00  0.00     0.012 A 
BRANCH  19  24
ATOM     24  O   UNK d   1      19.967 -53.747  36.760  0.00  0.00    -0.353 OA
ATOM     25  C   UNK d   1      19.094 -53.925  37.846  0.00  0.00     0.210 C 
ENDBRANCH  19  24
ENDBRANCH   2  17
BRANCH   3  26
ATOM     26  C   UNK d   1      19.666 -58.218  31.516  0.00  0.00     0.154 C 
BRANCH  26  27
ATOM     27  C   UNK d   1      20.460 -57.296  30.640  0.00  0.00     0.255 C 
BRANCH  27  28
ATOM     28  N   UNK d   1      20.198 -57.393  29.256  0.00  0.00    -0.066 N 
ATOM     29  C   UNK d   1      21.342 -58.057  28.623  0.00  0.00     0.261 C 
ATOM     30  C   UNK d   1      22.561 -57.196  28.594  0.00  0.00     0.195 C 
ATOM     31  O   UNK d   1      22.335 -55.868  28.863  0.00  0.00    -0.388 OA
ATOM     32  C   UNK d   1      21.216 -55.410  28.213  0.00  0.00     0.195 C 
ATOM     33  C   UNK d   1      19.969 -56.177  28.562  0.00  0.00     0.261 C 
ATOM     34  H   UNK d   1      19.380 -58.037  29.068  0.00  0.00     0.280 HD
ENDBRANCH  27  28
ENDBRANCH  26  27
ENDBRANCH   3  26
TORSDOF 7
ENDMDL
