MODEL 1
REMARK VINA RESULT:    -7.941      0.000      0.000
REMARK INTER + INTRA:          -9.332
REMARK INTER:                  -8.869
REMARK INTRA:                  -0.463
REMARK UNBOUND:                -0.463
REMARK  2 active torsions:
REMARK  status: ('A' for Active; 'I' for Inactive)
REMARK    1  A    between atoms: C_5  and  C_8 
REMARK       I    between atoms: C_8  and  N_10 
REMARK    2  A    between atoms: N_10  and  C_11 
ROOT
ATOM      1  C   UNK d   1      12.024 -60.229  38.031  0.00  0.00     0.105 C 
ATOM      2  C   UNK d   1      10.574 -59.933  37.724  0.00  0.00     0.152 C 
ATOM      3  N   UNK d   1       9.951 -59.964  39.036  0.00  0.00    -0.335 N 
ATOM      4  C   UNK d   1      10.732 -60.817  39.910  0.00  0.00     0.181 C 
ATOM      5  C   UNK d   1      11.992 -61.182  39.201  0.00  0.00     0.061 C 
ATOM      6  C   UNK d   1      10.967 -60.043  41.156  0.00  0.00     0.243 C 
ATOM      7  O   UNK d   1      12.082 -59.963  41.723  0.00  0.00    -0.271 OA
ATOM      8  N   UNK d   1       9.893 -59.347  41.760  0.00  0.00    -0.337 N 
ATOM      9  C   UNK d   1       8.754 -58.870  41.004  0.00  0.00     0.179 C 
ATOM     10  C   UNK d   1       7.625 -59.410  41.823  0.00  0.00     0.037 C 
ATOM     11  C   UNK d   1       8.131 -59.151  43.247  0.00  0.00     0.022 C 
ATOM     12  C   UNK d   1       9.646 -58.963  43.121  0.00  0.00     0.127 C 
ATOM     13  C   UNK d   1       8.794 -59.364  39.604  0.00  0.00     0.243 C 
ATOM     14  O   UNK d   1       7.759 -59.255  38.863  0.00  0.00    -0.271 OA
ENDROOT
BRANCH   1  15
ATOM     15  N   UNK d   1      12.768 -59.075  38.417  0.00  0.00    -0.351 N 
ATOM     16  C   UNK d   1      13.736 -58.535  37.533  0.00  0.00     0.252 C 
ATOM     17  O   UNK d   1      13.929 -59.074  36.423  0.00  0.00    -0.268 OA
ATOM     18  H   UNK d   1      12.574 -58.654  39.360  0.00  0.00     0.163 HD
BRANCH  16  19
ATOM     19  C   UNK d   1      14.526 -57.343  37.896  0.00  0.00     0.032 A 
ATOM     20  C   UNK d   1      15.641 -57.025  37.153  0.00  0.00     0.018 A 
ATOM     21  C   UNK d   1      16.400 -55.919  37.467  0.00  0.00     0.020 A 
ATOM     22  C   UNK d   1      16.082 -55.086  38.526  0.00  0.00     0.011 A 
ATOM     23 Br   UNK d   1      17.174 -53.578  38.898  0.00  0.00    -0.051 Br
ATOM     24  C   UNK d   1      14.963 -55.404  39.271  0.00  0.00     0.020 A 
ATOM     25  C   UNK d   1      14.208 -56.527  38.940  0.00  0.00     0.018 A 
ENDBRANCH  16  19
ENDBRANCH   1  15
TORSDOF 2
ENDMDL
