MODEL 1
REMARK VINA RESULT:    -8.854      0.000      0.000
REMARK INTER + INTRA:         -10.215
REMARK INTER:                  -9.889
REMARK INTRA:                  -0.326
REMARK UNBOUND:                -0.326
REMARK  2 active torsions:
REMARK  status: ('A' for Active; 'I' for Inactive)
REMARK    1  A    between atoms: C_5  and  C_8 
REMARK       I    between atoms: C_8  and  N_10 
REMARK    2  A    between atoms: N_10  and  N_11 
ROOT
ATOM      1  N   UNK d   1      17.755 -54.929  36.408  0.00  0.00    -0.187 N 
ATOM      2  C   UNK d   1      18.479 -54.304  37.461  0.00  0.00     0.251 C 
ATOM      3  O   UNK d   1      19.620 -53.764  37.259  0.00  0.00    -0.271 OA
ATOM      4  C   UNK d   1      17.723 -54.389  38.738  0.00  0.00     0.101 C 
ATOM      5  C   UNK d   1      16.405 -54.986  38.283  0.00  0.00     0.101 C 
ATOM      6  C   UNK d   1      15.550 -53.741  38.190  0.00  0.00     0.022 C 
ATOM      7  C   UNK d   1      15.876 -53.175  39.588  0.00  0.00     0.018 C 
ATOM      8  C   UNK d   1      17.373 -53.024  39.258  0.00  0.00     0.022 C 
ATOM      9  C   UNK d   1      17.222 -52.146  38.043  0.00  0.00    -0.025 C 
ATOM     10  C   UNK d   1      16.216 -52.691  37.370  0.00  0.00    -0.025 C 
ATOM     11  C   UNK d   1      16.645 -55.603  36.966  0.00  0.00     0.251 C 
ATOM     12  O   UNK d   1      15.981 -56.536  36.466  0.00  0.00    -0.271 OA
ENDROOT
BRANCH   1  13
ATOM     13  N   UNK d   1      18.025 -54.930  35.015  0.00  0.00    -0.254 N 
ATOM     14  C   UNK d   1      18.571 -56.062  34.372  0.00  0.00     0.270 C 
ATOM     15  O   UNK d   1      18.841 -57.130  35.011  0.00  0.00    -0.266 OA
ATOM     16  H   UNK d   1      17.807 -54.078  34.468  0.00  0.00     0.191 HD
BRANCH  14  17
ATOM     17  C   UNK d   1      18.840 -56.043  32.954  0.00  0.00     0.033 A 
ATOM     18  C   UNK d   1      18.333 -57.065  32.158  0.00  0.00     0.018 A 
ATOM     19  C   UNK d   1      18.575 -57.095  30.800  0.00  0.00     0.020 A 
ATOM     20  C   UNK d   1      19.321 -56.118  30.208  0.00  0.00     0.011 A 
ATOM     21 Br   UNK d   1      19.646 -56.184  28.324  0.00  0.00    -0.051 Br
ATOM     22  C   UNK d   1      19.837 -55.086  30.991  0.00  0.00     0.020 A 
ATOM     23  C   UNK d   1      19.590 -55.067  32.340  0.00  0.00     0.018 A 
ENDBRANCH  14  17
ENDBRANCH   1  13
TORSDOF 2
ENDMDL
