/Users/jonathanwahrer/Desktop/Msc/3_Semester/Drug_Design_Praktikum/waehrer_HTS_screening/HTS_experiment/out/docking_results/vina_output/6s1j/0257_docked.pdbqt
 OpenBabel03222221093D

 31 34  0  0  1  0  0  0  0  0999 V2000
   14.3190  -58.1250   36.8060 C   0  0  2  0  0  3  0  0  0  0  0  0
   13.9660  -57.9480   35.3610 C   0  0  2  0  0  3  0  0  0  0  0  0
   13.1900  -59.1590   35.1190 N   0  0  0  0  0  0  0  0  0  0  0  0
   12.4000  -59.3200   36.3140 C   0  0  0  0  0  0  0  0  0  0  0  0
   11.3150  -59.9210   36.3620 O   0  0  0  0  0  0  0  0  0  0  0  0
   13.1110  -58.6580   37.4190 C   0  0  0  0  0  0  0  0  0  0  0  0
   12.7570  -58.5660   38.6230 O   0  0  0  0  0  0  0  0  0  0  0  0
   15.4410  -57.8370   37.4120 C   0  0  2  0  0  3  0  0  0  0  0  0
   16.2400  -58.8930   37.8930 O   0  0  0  0  0  1  0  0  0  0  0  0
   15.8440  -56.4510   37.5800 C   0  0  0  0  0  0  0  0  0  0  0  0
   16.9150  -55.9470   36.8320 C   0  0  0  0  0  3  0  0  0  0  0  0
   17.3380  -54.6460   36.9910 C   0  0  0  0  0  3  0  0  0  0  0  0
   16.7400  -53.7790   37.8810 C   0  0  0  0  0  0  0  0  0  0  0  0
   17.3060  -51.9750   38.1190 Br  0  0  0  0  0  0  0  0  0  0  0  0
   15.6830  -54.2550   38.6270 C   0  0  0  0  0  3  0  0  0  0  0  0
   15.2570  -55.5720   38.4650 C   0  0  0  0  0  3  0  0  0  0  0  0
   15.1900  -57.8680   34.5270 C   0  0  0  0  0  0  0  0  0  0  0  0
   16.1400  -58.7980   34.7130 N   0  0  0  0  0  0  0  0  0  0  0  0
   17.2770  -58.8340   34.0140 C   0  0  0  0  0  3  0  0  0  0  0  0
   17.4800  -57.8660   33.0580 C   0  0  0  0  0  3  0  0  0  0  0  0
   16.5340  -56.8940   32.8330 C   0  0  0  0  0  3  0  0  0  0  0  0
   15.3830  -56.9020   33.5780 C   0  0  0  0  0  3  0  0  0  0  0  0
   13.2110  -59.9820   33.9450 C   0  0  0  0  0  2  0  0  0  0  0  0
   13.7820  -61.3630   34.2260 C   0  0  0  0  0  2  0  0  0  0  0  0
   13.9940  -62.0580   32.8810 C   0  0  0  0  0  2  0  0  0  0  0  0
   15.3180  -61.8020   32.3500 N   0  0  0  0  0  0  0  0  0  0  0  0
   16.4990  -62.2620   32.8260 C   0  0  0  0  0  2  0  0  0  0  0  0
   17.4920  -61.7980   32.0500 N   0  0  0  0  0  0  0  0  0  0  0  0
   16.9800  -61.0380   31.0700 C   0  0  0  0  0  3  0  0  0  0  0  0
   18.5260  -61.9880   32.1730 H   0  0  0  0  0  0  0  0  0  0  0  0
   15.6150  -61.0540   31.2770 C   0  0  0  0  0  3  0  0  0  0  0  0
  1  8  1  1  0  0  0
  1  6  1  0  0  0  0
  2 17  1  6  0  0  0
  2  1  1  0  0  0  0
  3  2  1  0  0  0  0
  3  4  1  0  0  0  0
  4  5  2  0  0  0  0
  4  6  1  0  0  0  0
  6  7  2  0  0  0  0
  8 10  1  0  0  0  0
  8  9  1  1  0  0  0
 10 16  1  0  0  0  0
 11 12  1  0  0  0  0
 11 10  2  0  0  0  0
 12 13  2  0  0  0  0
 13 14  1  0  0  0  0
 13 15  1  0  0  0  0
 16 15  2  0  0  0  0
 17 18  1  0  0  0  0
 19 18  2  0  0  0  0
 20 19  1  0  0  0  0
 21 20  2  0  0  0  0
 21 22  1  0  0  0  0
 22 17  2  0  0  0  0
 23 24  1  0  0  0  0
 23  3  1  0  0  0  0
 25 24  1  0  0  0  0
 26 27  1  0  0  0  0
 26 25  1  0  0  0  0
 28 30  1  0  0  0  0
 28 27  1  0  0  0  0
 29 31  2  0  0  0  0
 29 28  1  0  0  0  0
 31 26  1  0  0  0  0
M  END
>  <Pose>
1

>  <Score>
-8.006

$$$$
