MODEL 1
REMARK VINA RESULT:    -8.006      0.000      0.000
REMARK INTER + INTRA:         -12.759
REMARK INTER:                 -11.282
REMARK INTRA:                  -1.477
REMARK UNBOUND:                -1.477
REMARK  7 active torsions:
REMARK  status: ('A' for Active; 'I' for Inactive)
REMARK    1  A    between atoms: C_5  and  C_8 
REMARK    2  A    between atoms: C_8  and  C_9 
REMARK    3  A    between atoms: C_10  and  C_24 
REMARK    4  A    between atoms: N_11  and  C_16 
REMARK    5  A    between atoms: C_16  and  C_17 
REMARK    6  A    between atoms: C_17  and  C_18 
REMARK    7  A    between atoms: C_18  and  N_19 
ROOT
ATOM      1  C   UNK d   1      14.319 -58.125  36.806  0.00  0.00     0.064 C 
ATOM      2  C   UNK d   1      13.966 -57.948  35.361  0.00  0.00     0.180 C 
ATOM      3  N   UNK d   1      13.190 -59.159  35.119  0.00  0.00    -0.331 N 
ATOM      4  C   UNK d   1      12.400 -59.320  36.314  0.00  0.00     0.295 C 
ATOM      5  O   UNK d   1      11.315 -59.921  36.362  0.00  0.00    -0.264 OA
ATOM      6  C   UNK d   1      13.111 -58.658  37.419  0.00  0.00     0.251 C 
ATOM      7  O   UNK d   1      12.757 -58.566  38.623  0.00  0.00    -0.282 OA
ENDROOT
BRANCH   1   8
ATOM      8  C   UNK d   1      15.441 -57.837  37.412  0.00  0.00     0.130 C 
ATOM      9  O   UNK d   1      16.240 -58.893  37.893  0.00  0.00    -0.190 OA
BRANCH   8  10
ATOM     10  C   UNK d   1      15.844 -56.451  37.580  0.00  0.00     0.001 A 
ATOM     11  C   UNK d   1      16.915 -55.947  36.832  0.00  0.00     0.015 A 
ATOM     12  C   UNK d   1      17.338 -54.646  36.991  0.00  0.00     0.020 A 
ATOM     13  C   UNK d   1      16.740 -53.779  37.881  0.00  0.00     0.011 A 
ATOM     14 Br   UNK d   1      17.306 -51.975  38.119  0.00  0.00    -0.051 Br
ATOM     15  C   UNK d   1      15.683 -54.255  38.627  0.00  0.00     0.020 A 
ATOM     16  C   UNK d   1      15.257 -55.572  38.465  0.00  0.00     0.015 A 
ENDBRANCH   8  10
ENDBRANCH   1   8
BRANCH   2  17
ATOM     17  C   UNK d   1      15.190 -57.868  34.527  0.00  0.00     0.061 A 
ATOM     18  N   UNK d   1      16.140 -58.798  34.713  0.00  0.00    -0.263 NA
ATOM     19  C   UNK d   1      17.277 -58.834  34.014  0.00  0.00     0.117 A 
ATOM     20  C   UNK d   1      17.480 -57.866  33.058  0.00  0.00     0.019 A 
ATOM     21  C   UNK d   1      16.534 -56.894  32.833  0.00  0.00     0.003 A 
ATOM     22  C   UNK d   1      15.383 -56.902  33.578  0.00  0.00     0.029 A 
ENDBRANCH   2  17
BRANCH   3  23
ATOM     23  C   UNK d   1      13.211 -59.982  33.945  0.00  0.00     0.129 C 
BRANCH  23  24
ATOM     24  C   UNK d   1      13.782 -61.363  34.226  0.00  0.00     0.040 C 
BRANCH  24  25
ATOM     25  C   UNK d   1      13.994 -62.058  32.881  0.00  0.00     0.131 C 
BRANCH  25  26
ATOM     26  N   UNK d   1      15.318 -61.802  32.350  0.00  0.00    -0.352 N 
ATOM     27  C   UNK d   1      16.499 -62.262  32.826  0.00  0.00     0.182 A 
ATOM     28  N   UNK d   1      17.492 -61.798  32.050  0.00  0.00    -0.361 N 
ATOM     29  C   UNK d   1      16.980 -61.038  31.070  0.00  0.00     0.106 A 
ATOM     30  H   UNK d   1      18.526 -61.988  32.173  0.00  0.00     0.166 HD
ATOM     31  C   UNK d   1      15.615 -61.054  31.277  0.00  0.00     0.108 A 
ENDBRANCH  25  26
ENDBRANCH  24  25
ENDBRANCH  23  24
ENDBRANCH   3  23
TORSDOF 7
ENDMDL
