MODEL 1
REMARK VINA RESULT:    -6.007      0.000      0.000
REMARK INTER + INTRA:          -8.495
REMARK INTER:                  -8.114
REMARK INTRA:                  -0.381
REMARK UNBOUND:                -0.381
REMARK  6 active torsions:
REMARK  status: ('A' for Active; 'I' for Inactive)
REMARK    1  A    between atoms: C_5  and  C_8 
REMARK    2  A    between atoms: C_10  and  C_24 
REMARK    3  A    between atoms: N_11  and  C_16 
REMARK    4  A    between atoms: C_16  and  C_17 
REMARK    5  A    between atoms: C_17  and  N_18 
REMARK    6  A    between atoms: C_26  and  N_30 
ROOT
ATOM      1  C   UNK d   1      18.498 -56.502  31.598  0.00  0.00     0.130 C 
ATOM      2  C   UNK d   1      18.685 -55.499  32.415  0.00  0.00     0.062 C 
ATOM      3  C   UNK d   1      17.907 -55.186  33.666  0.00  0.00     0.161 C 
ATOM      4  N   UNK d   1      18.877 -54.580  34.512  0.00  0.00    -0.331 N 
ATOM      5  C   UNK d   1      19.837 -53.920  33.653  0.00  0.00     0.295 C 
ATOM      6  O   UNK d   1      20.640 -53.008  33.967  0.00  0.00    -0.264 OA
ATOM      7  C   UNK d   1      19.724 -54.498  32.319  0.00  0.00     0.250 C 
ATOM      8  O   UNK d   1      20.423 -54.159  31.306  0.00  0.00    -0.282 OA
ATOM      9  O   UNK d   1      17.464 -57.418  31.895  0.00  0.00    -0.190 OA
ENDROOT
BRANCH   1  10
ATOM     10  C   UNK d   1      19.326 -56.676  30.417  0.00  0.00     0.001 A 
ATOM     11  C   UNK d   1      20.458 -57.473  30.584  0.00  0.00     0.015 A 
ATOM     12  C   UNK d   1      21.285 -57.743  29.532  0.00  0.00     0.020 A 
ATOM     13  C   UNK d   1      20.983 -57.214  28.297  0.00  0.00     0.011 A 
ATOM     14 Br   UNK d   1      22.170 -57.614  26.838  0.00  0.00    -0.051 Br
ATOM     15  C   UNK d   1      19.866 -56.425  28.125  0.00  0.00     0.020 A 
ATOM     16  C   UNK d   1      19.039 -56.160  29.196  0.00  0.00     0.015 A 
ENDBRANCH   1  10
BRANCH   3  17
ATOM     17  C   UNK d   1      17.202 -56.360  34.163  0.00  0.00    -0.028 A 
ATOM     18  C   UNK d   1      15.852 -56.576  34.095  0.00  0.00     0.045 A 
ATOM     19  C   UNK d   1      15.265 -57.716  34.579  0.00  0.00     0.103 A 
ATOM     20  C   UNK d   1      16.044 -58.682  35.156  0.00  0.00     0.036 A 
ATOM     21  C   UNK d   1      17.422 -58.520  35.255  0.00  0.00     0.003 A 
ATOM     22  C   UNK d   1      17.977 -57.368  34.760  0.00  0.00     0.010 A 
BRANCH  19  23
ATOM     23  N   UNK d   1      13.868 -57.872  34.475  0.00  0.00    -0.116 N 
ATOM     24  O   UNK d   1      13.203 -57.359  33.538  0.00  0.00    -0.532 OA
ATOM     25  O   UNK d   1      13.217 -58.612  35.435  0.00  0.00    -0.532 OA
ENDBRANCH  19  23
ENDBRANCH   3  17
BRANCH   4  26
ATOM     26  C   UNK d   1      19.023 -54.478  35.953  0.00  0.00     0.155 C 
BRANCH  26  27
ATOM     27  C   UNK d   1      18.277 -53.355  36.598  0.00  0.00     0.255 C 
BRANCH  27  28
ATOM     28  N   UNK d   1      17.058 -53.792  37.257  0.00  0.00    -0.066 N 
ATOM     29  C   UNK d   1      16.905 -53.131  38.557  0.00  0.00     0.261 C 
ATOM     30  C   UNK d   1      15.517 -53.558  39.056  0.00  0.00     0.195 C 
ATOM     31  O   UNK d   1      15.411 -54.920  39.199  0.00  0.00    -0.388 OA
ATOM     32  C   UNK d   1      15.776 -55.641  38.072  0.00  0.00     0.195 C 
ATOM     33  C   UNK d   1      17.114 -55.206  37.529  0.00  0.00     0.261 C 
ATOM     34  H   UNK d   1      16.200 -53.586  36.739  0.00  0.00     0.280 HD
ENDBRANCH  27  28
ENDBRANCH  26  27
ENDBRANCH   4  26
TORSDOF 6
ENDMDL
