/Users/jonathanwahrer/Desktop/Msc/3_Semester/Drug_Design_Praktikum/waehrer_HTS_screening/HTS_experiment/out/docking_results/vina_output/6s1j/0265_docked.pdbqt
 OpenBabel03222221103D

 35 38  0  0  1  0  0  0  0  0999 V2000
   18.5030  -56.9810   33.7240 C   0  0  0  0  0  0  0  0  0  0  0  0
   17.2240  -57.1120   33.9970 C   0  0  0  0  0  0  0  0  0  0  0  0
   16.6180  -57.1970   35.3750 C   0  0  2  0  0  3  0  0  0  0  0  0
   15.2270  -57.4150   35.1810 N   0  0  0  0  0  0  0  0  0  0  0  0
   14.8770  -57.3380   33.7830 C   0  0  0  0  0  0  0  0  0  0  0  0
   13.7570  -57.4120   33.2600 O   0  0  0  0  0  0  0  0  0  0  0  0
   16.1430  -57.1440   33.0390 C   0  0  0  0  0  0  0  0  0  0  0  0
   16.2330  -57.0270   31.7750 O   0  0  0  0  0  0  0  0  0  0  0  0
   19.3640  -56.9110   34.8450 O   0  0  0  0  0  1  0  0  0  0  0  0
   16.8860  -55.8570   35.9830 C   0  0  0  0  0  0  0  0  0  0  0  0
   16.9970  -55.7760   37.3350 C   0  0  0  0  0  3  0  0  0  0  0  0
   17.2380  -54.5640   37.9500 C   0  0  0  0  0  3  0  0  0  0  0  0
   17.3680  -53.4300   37.1950 C   0  0  0  0  0  0  0  0  0  0  0  0
   17.2570  -53.5150   35.8320 C   0  0  0  0  0  3  0  0  0  0  0  0
   17.0150  -54.7280   35.2090 C   0  0  0  0  0  3  0  0  0  0  0  0
   17.6210  -52.1370   37.8360 C   0  0  0  0  0  0  0  0  0  0  0  0
   17.0080  -51.8410   38.8940 O   0  0  0  0  0  0  0  0  0  0  0  0
   18.5010  -51.2160   37.3390 O   0  0  0  0  0  0  0  0  0  0  0  0
   19.6440  -51.5690   36.5930 C   0  0  0  0  0  1  0  0  0  0  0  0
   14.2230  -57.6740   36.1790 C   0  0  0  0  0  2  0  0  0  0  0  0
   14.4800  -58.8560   37.0480 C   0  0  0  0  0  2  0  0  0  0  0  0
   13.3110  -59.4960   37.5750 N   0  0  0  0  0  4  0  0  0  0  0  0
   12.1970  -59.5440   36.6510 C   0  0  0  0  0  2  0  0  0  0  0  0
   11.1300  -60.4130   37.2830 C   0  0  0  0  0  2  0  0  0  0  0  0
   10.6600  -59.6880   38.4050 O   0  0  0  0  0  0  0  0  0  0  0  0
   11.7130  -59.6900   39.3240 C   0  0  0  0  0  2  0  0  0  0  0  0
   12.8070  -58.7910   38.7700 C   0  0  0  0  0  2  0  0  0  0  0  0
   13.5230  -60.4610   37.9460 H   0  0  0  0  0  0  0  0  0  0  0  0
   19.0400  -56.9090   32.3740 C   0  0  0  0  0  0  0  0  0  0  0  0
   19.3340  -55.6670   31.7960 C   0  0  0  0  0  3  0  0  0  0  0  0
   19.8760  -55.5370   30.5360 C   0  0  0  0  0  3  0  0  0  0  0  0
   20.1560  -56.6530   29.7760 C   0  0  0  0  0  0  0  0  0  0  0  0
   20.9050  -56.4450   28.0270 Br  0  0  0  0  0  0  0  0  0  0  0  0
   19.8780  -57.8840   30.3190 C   0  0  0  0  0  3  0  0  0  0  0  0
   19.3280  -58.0100   31.6010 C   0  0  0  0  0  3  0  0  0  0  0  0
  1  2  2  0  0  0  0
  1  9  1  0  0  0  0
  2  3  1  0  0  0  0
  3 10  1  6  0  0  0
  4  3  1  0  0  0  0
  4 20  1  0  0  0  0
  5  4  1  0  0  0  0
  6  5  2  0  0  0  0
  7  5  1  0  0  0  0
  7  2  1  0  0  0  0
  8  7  2  0  0  0  0
 10 11  1  0  0  0  0
 11 12  2  0  0  0  0
 13 16  1  0  0  0  0
 13 12  1  0  0  0  0
 14 13  2  0  0  0  0
 15 14  1  0  0  0  0
 15 10  2  0  0  0  0
 16 17  2  0  0  0  0
 18 16  1  0  0  0  0
 19 18  1  0  0  0  0
 20 21  1  0  0  0  0
 21 22  1  0  0  0  0
 22 28  1  0  0  0  0
 22 27  1  0  0  0  0
 23 24  1  0  0  0  0
 23 22  1  0  0  0  0
 24 25  1  0  0  0  0
 25 26  1  0  0  0  0
 27 26  1  0  0  0  0
 29  1  1  0  0  0  0
 30 29  1  0  0  0  0
 31 30  2  0  0  0  0
 32 34  2  0  0  0  0
 32 31  1  0  0  0  0
 33 32  1  0  0  0  0
 34 35  1  0  0  0  0
 35 29  2  0  0  0  0
M  END
>  <Pose>
1

>  <Score>
-9.394

$$$$
