MODEL 1
REMARK VINA RESULT:    -9.394      0.000      0.000
REMARK INTER + INTRA:         -13.712
REMARK INTER:                 -13.238
REMARK INTRA:                  -0.474
REMARK UNBOUND:                -0.474
REMARK  7 active torsions:
REMARK  status: ('A' for Active; 'I' for Inactive)
REMARK    1  A    between atoms: C_5  and  C_8 
REMARK    2  A    between atoms: C_10  and  C_24 
REMARK    3  A    between atoms: N_11  and  C_16 
REMARK    4  A    between atoms: C_16  and  C_17 
REMARK    5  A    between atoms: C_17  and  N_18 
REMARK    6  A    between atoms: C_27  and  C_30 
REMARK    7  A    between atoms: C_30  and  O_32 
ROOT
ATOM      1  C   UNK d   1      18.503 -56.981  33.724  0.00  0.00     0.130 C 
ATOM      2  C   UNK d   1      17.224 -57.112  33.997  0.00  0.00     0.062 A 
ATOM      3  C   UNK d   1      16.618 -57.197  35.375  0.00  0.00     0.161 A 
ATOM      4  N   UNK d   1      15.227 -57.415  35.181  0.00  0.00    -0.331 N 
ATOM      5  C   UNK d   1      14.877 -57.338  33.783  0.00  0.00     0.295 A 
ATOM      6  O   UNK d   1      13.757 -57.412  33.260  0.00  0.00    -0.264 OA
ATOM      7  C   UNK d   1      16.143 -57.144  33.039  0.00  0.00     0.250 A 
ATOM      8  O   UNK d   1      16.233 -57.027  31.775  0.00  0.00    -0.282 OA
ATOM      9  O   UNK d   1      19.364 -56.911  34.845  0.00  0.00    -0.190 OA
ENDROOT
BRANCH   3  10
ATOM     10  C   UNK d   1      16.886 -55.857  35.983  0.00  0.00    -0.030 A 
ATOM     11  C   UNK d   1      16.997 -55.776  37.335  0.00  0.00     0.011 A 
ATOM     12  C   UNK d   1      17.238 -54.564  37.950  0.00  0.00     0.018 A 
ATOM     13  C   UNK d   1      17.368 -53.430  37.195  0.00  0.00     0.039 A 
ATOM     14  C   UNK d   1      17.257 -53.515  35.832  0.00  0.00     0.018 A 
ATOM     15  C   UNK d   1      17.015 -54.728  35.209  0.00  0.00     0.011 A 
BRANCH  13  16
ATOM     16  C   UNK d   1      17.621 -52.137  37.836  0.00  0.00     0.292 C 
ATOM     17  O   UNK d   1      17.008 -51.841  38.894  0.00  0.00    -0.259 OA
BRANCH  16  18
ATOM     18  O   UNK d   1      18.501 -51.216  37.339  0.00  0.00    -0.323 OA
ATOM     19  C   UNK d   1      19.644 -51.569  36.593  0.00  0.00     0.213 C 
ENDBRANCH  16  18
ENDBRANCH  13  16
ENDBRANCH   3  10
BRANCH   4  20
ATOM     20  C   UNK d   1      14.223 -57.674  36.179  0.00  0.00     0.155 C 
BRANCH  20  21
ATOM     21  C   UNK d   1      14.480 -58.856  37.048  0.00  0.00     0.255 C 
BRANCH  21  22
ATOM     22  N   UNK d   1      13.311 -59.496  37.575  0.00  0.00    -0.066 N 
ATOM     23  C   UNK d   1      12.197 -59.544  36.651  0.00  0.00     0.261 C 
ATOM     24  C   UNK d   1      11.130 -60.413  37.283  0.00  0.00     0.195 C 
ATOM     25  O   UNK d   1      10.660 -59.688  38.405  0.00  0.00    -0.388 OA
ATOM     26  C   UNK d   1      11.713 -59.690  39.324  0.00  0.00     0.195 C 
ATOM     27  C   UNK d   1      12.807 -58.791  38.770  0.00  0.00     0.261 C 
ATOM     28  H   UNK d   1      13.523 -60.461  37.946  0.00  0.00     0.280 HD
ENDBRANCH  21  22
ENDBRANCH  20  21
ENDBRANCH   4  20
BRANCH   1  29
ATOM     29  C   UNK d   1      19.040 -56.909  32.374  0.00  0.00     0.001 A 
ATOM     30  C   UNK d   1      19.334 -55.667  31.796  0.00  0.00     0.015 A 
ATOM     31  C   UNK d   1      19.876 -55.537  30.536  0.00  0.00     0.020 A 
ATOM     32  C   UNK d   1      20.156 -56.653  29.776  0.00  0.00     0.011 A 
ATOM     33 Br   UNK d   1      20.905 -56.445  28.027  0.00  0.00    -0.051 Br
ATOM     34  C   UNK d   1      19.878 -57.884  30.319  0.00  0.00     0.020 A 
ATOM     35  C   UNK d   1      19.328 -58.010  31.601  0.00  0.00     0.015 A 
ENDBRANCH   1  29
TORSDOF 7
ENDMDL
