MODEL 1
REMARK VINA RESULT:    -8.510      0.000      0.000
REMARK INTER + INTRA:         -12.007
REMARK INTER:                 -10.997
REMARK INTRA:                  -1.010
REMARK UNBOUND:                -1.010
REMARK  5 active torsions:
REMARK  status: ('A' for Active; 'I' for Inactive)
REMARK    1  A    between atoms: C_5  and  C_8 
REMARK    2  A    between atoms: C_10  and  C_24 
REMARK    3  A    between atoms: N_11  and  C_16 
REMARK    4  A    between atoms: C_16  and  C_17 
REMARK    5  A    between atoms: C_17  and  N_18 
ROOT
ATOM      1  C   UNK d   1      17.419 -56.219  33.194  0.00  0.00     0.130 C 
ATOM      2  C   UNK d   1      17.240 -56.631  34.434  0.00  0.00     0.062 C 
ATOM      3  C   UNK d   1      16.615 -55.933  35.594  0.00  0.00     0.161 C 
ATOM      4  N   UNK d   1      15.977 -57.035  36.334  0.00  0.00    -0.331 N 
ATOM      5  C   UNK d   1      16.852 -58.135  36.171  0.00  0.00     0.295 C 
ATOM      6  O   UNK d   1      16.903 -59.115  36.925  0.00  0.00    -0.264 OA
ATOM      7  C   UNK d   1      17.668 -57.915  34.982  0.00  0.00     0.250 C 
ATOM      8  O   UNK d   1      18.570 -58.623  34.468  0.00  0.00    -0.282 OA
ATOM      9  O   UNK d   1      16.968 -54.924  32.870  0.00  0.00    -0.190 OA
ENDROOT
BRANCH   1  10
ATOM     10  C   UNK d   1      18.043 -57.000  32.140  0.00  0.00     0.001 A 
ATOM     11  C   UNK d   1      19.371 -56.836  31.813  0.00  0.00     0.015 A 
ATOM     12  C   UNK d   1      19.964 -57.558  30.789  0.00  0.00     0.020 A 
ATOM     13  C   UNK d   1      19.241 -58.473  30.058  0.00  0.00     0.011 A 
ATOM     14 Br   UNK d   1      20.052 -59.479  28.641  0.00  0.00    -0.051 Br
ATOM     15  C   UNK d   1      17.914 -58.647  30.374  0.00  0.00     0.020 A 
ATOM     16  C   UNK d   1      17.322 -57.915  31.408  0.00  0.00     0.015 A 
ENDBRANCH   1  10
BRANCH   3  17
ATOM     17  C   UNK d   1      17.556 -55.165  36.412  0.00  0.00    -0.031 A 
ATOM     18  C   UNK d   1      17.257 -54.845  37.742  0.00  0.00     0.009 A 
ATOM     19  C   UNK d   1      18.088 -54.136  38.554  0.00  0.00     0.001 A 
ATOM     20  C   UNK d   1      19.304 -53.689  38.072  0.00  0.00     0.000 A 
ATOM     21  C   UNK d   1      19.624 -53.986  36.778  0.00  0.00     0.001 A 
ATOM     22  C   UNK d   1      18.770 -54.714  35.945  0.00  0.00     0.009 A 
ENDBRANCH   3  17
BRANCH   4  23
ATOM     23  C   UNK d   1      14.748 -56.883  37.023  0.00  0.00     0.155 C 
BRANCH  23  24
ATOM     24  C   UNK d   1      13.608 -57.733  36.639  0.00  0.00     0.255 C 
BRANCH  24  25
ATOM     25  N   UNK d   1      13.699 -59.117  36.989  0.00  0.00    -0.066 N 
ATOM     26  C   UNK d   1      13.194 -60.036  36.030  0.00  0.00     0.261 C 
ATOM     27  C   UNK d   1      11.878 -60.591  36.531  0.00  0.00     0.195 C 
ATOM     28  O   UNK d   1      11.093 -59.618  37.144  0.00  0.00    -0.388 OA
ATOM     29  C   UNK d   1      11.642 -59.164  38.329  0.00  0.00     0.195 C 
ATOM     30  C   UNK d   1      13.133 -59.414  38.286  0.00  0.00     0.261 C 
ATOM     31  H   UNK d   1      14.744 -59.307  37.085  0.00  0.00     0.280 HD
ENDBRANCH  24  25
ENDBRANCH  23  24
ENDBRANCH   4  23
TORSDOF 5
ENDMDL
