/Users/jonathanwahrer/Desktop/Msc/3_Semester/Drug_Design_Praktikum/waehrer_HTS_screening/HTS_experiment/out/docking_results/vina_output/6s1j/0289_docked.pdbqt
 OpenBabel03222221113D

 31 34  0  0  0  0  0  0  0  0999 V2000
   17.2180  -55.9010   34.6720 C   0  0  0  0  0  0  0  0  0  0  0  0
   18.3480  -55.2920   34.2750 N   0  0  0  0  0  0  0  0  0  0  0  0
   18.5590  -54.1990   35.0450 C   0  0  0  0  0  0  0  0  0  0  0  0
   17.5350  -54.1030   35.9620 C   0  0  0  0  0  0  0  0  0  0  0  0
   16.7390  -55.1430   35.7140 N   0  0  0  0  0  0  0  0  0  0  0  0
   17.5290  -53.0880   36.8450 N   0  0  0  0  0  0  0  0  0  0  0  0
   18.4950  -52.1590   36.8620 C   0  0  0  0  0  0  0  0  0  0  0  0
   18.4560  -51.2140   37.7140 O   0  0  0  0  0  0  0  0  0  0  0  0
   19.5030  -52.2350   35.9770 N   0  0  0  0  0  0  0  0  0  0  0  0
   19.5390  -53.2330   35.0830 C   0  0  0  0  0  0  0  0  0  0  0  0
   20.4830  -53.3010   34.2570 O   0  0  0  0  0  0  0  0  0  0  0  0
   16.4260  -53.0210   37.8100 C   0  0  0  0  0  1  0  0  0  0  0  0
   20.2710  -51.5020   35.9840 H   0  0  0  0  0  0  0  0  0  0  0  0
   16.6510  -57.0890   34.1780 N   0  0  0  0  0  0  0  0  0  0  0  0
   15.5770  -57.1210   33.2480 C   0  0  0  0  0  2  0  0  0  0  0  0
   14.4090  -57.8220   33.9340 C   0  0  0  0  0  2  0  0  0  0  0  0
   14.7510  -58.3290   35.1950 N   0  0  0  0  0  0  0  0  0  0  0  0
   15.9770  -58.9790   35.4120 C   0  0  0  0  0  2  0  0  0  0  0  0
   17.1460  -58.3660   34.6310 C   0  0  0  0  0  2  0  0  0  0  0  0
   14.1120  -57.7180   36.3140 C   0  0  0  0  0  2  0  0  0  0  0  0
   13.2230  -58.6140   37.0780 C   0  0  0  0  0  0  0  0  0  0  0  0
   13.2170  -58.5070   38.4460 C   0  0  0  0  0  3  0  0  0  0  0  0
   12.3880  -59.3190   39.2040 C   0  0  0  0  0  3  0  0  0  0  0  0
   11.5600  -60.2440   38.6000 C   0  0  0  0  0  0  0  0  0  0  0  0
   10.4100  -61.3650   39.6560 Br  0  0  0  0  0  0  0  0  0  0  0  0
   11.5830  -60.3350   37.2270 C   0  0  0  0  0  3  0  0  0  0  0  0
   12.4030  -59.5330   36.4580 C   0  0  0  0  0  3  0  0  0  0  0  0
   19.2210  -55.6460   33.1880 C   0  0  0  0  0  2  0  0  0  0  0  0
   18.6590  -55.2320   31.8470 C   0  0  0  0  0  2  0  0  0  0  0  0
   18.2650  -56.2900   31.0530 O   0  0  0  0  0  0  0  0  0  0  0  0
   19.1040  -57.3710   31.4090 C   0  0  0  0  0  1  0  0  0  0  0  0
  1  5  2  0  0  0  0
  2  1  1  0  0  0  0
  2  3  1  0  0  0  0
  3 10  1  0  0  0  0
  3  4  2  0  0  0  0
  4  6  1  0  0  0  0
  5  4  1  0  0  0  0
  6  7  1  0  0  0  0
  6 12  1  0  0  0  0
  7  8  2  0  0  0  0
  9 13  1  0  0  0  0
  9  7  1  0  0  0  0
 10  9  1  0  0  0  0
 11 10  2  0  0  0  0
 14 19  1  0  0  0  0
 14  1  1  0  0  0  0
 15 16  1  0  0  0  0
 15 14  1  0  0  0  0
 16 17  1  0  0  0  0
 17 18  1  0  0  0  0
 17 20  1  0  0  0  0
 19 18  1  0  0  0  0
 20 21  1  0  0  0  0
 21 22  1  0  0  0  0
 22 23  2  0  0  0  0
 24 23  1  0  0  0  0
 24 25  1  0  0  0  0
 26 24  2  0  0  0  0
 27 21  2  0  0  0  0
 27 26  1  0  0  0  0
 28  2  1  0  0  0  0
 29 28  1  0  0  0  0
 30 31  1  0  0  0  0
 30 29  1  0  0  0  0
M  END
>  <Pose>
1

>  <Score>
-7.928

$$$$
