MODEL 1
REMARK VINA RESULT:   -10.197      0.000      0.000
REMARK INTER + INTRA:         -12.866
REMARK INTER:                 -11.986
REMARK INTRA:                  -0.881
REMARK UNBOUND:                -0.881
REMARK  3 active torsions:
REMARK  status: ('A' for Active; 'I' for Inactive)
REMARK    1  A    between atoms: C_5  and  C_8 
REMARK    2  A    between atoms: C_16  and  C_17 
REMARK    3  A    between atoms: C_17  and  N_18 
ROOT
ATOM      1  C   UNK d   1      16.714 -54.623  38.760  0.00  0.00     0.053 C 
ATOM      2  C   UNK d   1      16.204 -55.603  38.005  0.00  0.00     0.127 A 
ATOM      3  O   UNK d   1      16.420 -55.708  36.640  0.00  0.00    -0.305 OA
ATOM      4  C   UNK d   1      15.777 -56.818  36.103  0.00  0.00     0.101 A 
ATOM      5  C   UNK d   1      15.127 -57.459  37.113  0.00  0.00     0.051 A 
ATOM      6  C   UNK d   1      14.402 -58.603  36.852  0.00  0.00     0.021 A 
ATOM      7  C   UNK d   1      14.370 -59.051  35.558  0.00  0.00     0.041 A 
ATOM      8  C   UNK d   1      15.038 -58.394  34.516  0.00  0.00     0.118 A 
ATOM      9  C   UNK d   1      15.763 -57.254  34.756  0.00  0.00     0.039 A 
ATOM     10  O   UNK d   1      14.955 -58.916  33.225  0.00  0.00    -0.191 OA
ATOM     11  C   UNK d   1      15.368 -56.718  38.359  0.00  0.00     0.218 A 
ATOM     12  O   UNK d   1      14.949 -56.973  39.517  0.00  0.00    -0.284 OA
ENDROOT
BRANCH   1  13
ATOM     13  C   UNK d   1      17.545 -53.595  38.140  0.00  0.00    -0.033 A 
ATOM     14  C   UNK d   1      18.771 -53.925  37.587  0.00  0.00     0.013 A 
ATOM     15  C   UNK d   1      19.583 -52.976  36.997  0.00  0.00     0.020 A 
ATOM     16  C   UNK d   1      19.204 -51.654  36.934  0.00  0.00     0.011 A 
ATOM     17 Br   UNK d   1      20.333 -50.336  36.109  0.00  0.00    -0.051 Br
ATOM     18  C   UNK d   1      17.986 -51.308  37.480  0.00  0.00     0.020 A 
ATOM     19  C   UNK d   1      17.169 -52.272  38.076  0.00  0.00     0.013 A 
ENDBRANCH   1  13
BRANCH   9  20
ATOM     20  C   UNK d   1      16.511 -56.459  33.773  0.00  0.00     0.279 C 
BRANCH  20  21
ATOM     21  N   UNK d   1      17.859 -56.145  34.048  0.00  0.00    -0.063 N 
ATOM     22  C   UNK d   1      18.771 -56.734  33.089  0.00  0.00     0.261 C 
ATOM     23  C   UNK d   1      18.915 -55.808  31.894  0.00  0.00     0.195 C 
ATOM     24  O   UNK d   1      19.776 -54.782  32.251  0.00  0.00    -0.388 OA
ATOM     25  C   UNK d   1      19.557 -54.488  33.601  0.00  0.00     0.195 C 
ATOM     26  C   UNK d   1      18.091 -54.694  33.947  0.00  0.00     0.261 C 
ATOM     27  H   UNK d   1      18.127 -56.380  35.025  0.00  0.00     0.280 HD
ENDBRANCH  20  21
ENDBRANCH   9  20
TORSDOF 3
ENDMDL
