/Users/jonathanwahrer/Desktop/Msc/3_Semester/Drug_Design_Praktikum/waehrer_HTS_screening/HTS_experiment/out/docking_results/vina_output/6s1j/0293_docked.pdbqt
 OpenBabel03222221113D

 27 30  0  0  0  0  0  0  0  0999 V2000
   16.7140  -54.6230   38.7600 C   0  0  0  0  0  3  0  0  0  0  0  0
   16.2040  -55.6030   38.0050 C   0  0  0  0  0  0  0  0  0  0  0  0
   16.4200  -55.7080   36.6400 O   0  0  0  0  0  0  0  0  0  0  0  0
   15.7770  -56.8180   36.1030 C   0  0  0  0  0  0  0  0  0  0  0  0
   15.1270  -57.4590   37.1130 C   0  0  0  0  0  0  0  0  0  0  0  0
   14.4020  -58.6030   36.8520 C   0  0  0  0  0  3  0  0  0  0  0  0
   14.3700  -59.0510   35.5580 C   0  0  0  0  0  3  0  0  0  0  0  0
   15.0380  -58.3940   34.5160 C   0  0  0  0  0  0  0  0  0  0  0  0
   15.7630  -57.2540   34.7560 C   0  0  0  0  0  0  0  0  0  0  0  0
   14.9550  -58.9160   33.2250 O   0  0  0  0  0  1  0  0  0  0  0  0
   15.3680  -56.7180   38.3590 C   0  0  0  0  0  0  0  0  0  0  0  0
   14.9490  -56.9730   39.5170 O   0  0  0  0  0  0  0  0  0  0  0  0
   17.5450  -53.5950   38.1400 C   0  0  0  0  0  0  0  0  0  0  0  0
   18.7710  -53.9250   37.5870 C   0  0  0  0  0  3  0  0  0  0  0  0
   19.5830  -52.9760   36.9970 C   0  0  0  0  0  3  0  0  0  0  0  0
   19.2040  -51.6540   36.9340 C   0  0  0  0  0  0  0  0  0  0  0  0
   20.3330  -50.3360   36.1090 Br  0  0  0  0  0  0  0  0  0  0  0  0
   17.9860  -51.3080   37.4800 C   0  0  0  0  0  3  0  0  0  0  0  0
   17.1690  -52.2720   38.0760 C   0  0  0  0  0  3  0  0  0  0  0  0
   16.5110  -56.4590   33.7730 C   0  0  0  0  0  2  0  0  0  0  0  0
   17.8590  -56.1450   34.0480 N   0  0  0  0  0  4  0  0  0  0  0  0
   18.7710  -56.7340   33.0890 C   0  0  0  0  0  2  0  0  0  0  0  0
   18.9150  -55.8080   31.8940 C   0  0  0  0  0  2  0  0  0  0  0  0
   19.7760  -54.7820   32.2510 O   0  0  0  0  0  0  0  0  0  0  0  0
   19.5570  -54.4880   33.6010 C   0  0  0  0  0  2  0  0  0  0  0  0
   18.0910  -54.6940   33.9470 C   0  0  0  0  0  2  0  0  0  0  0  0
   18.1270  -56.3800   35.0250 H   0  0  0  0  0  0  0  0  0  0  0  0
  2 11  1  0  0  0  0
  2  1  2  0  0  0  0
  3  2  1  0  0  0  0
  4  3  1  0  0  0  0
  4  5  1  0  0  0  0
  5 11  1  0  0  0  0
  6  5  2  0  0  0  0
  7  6  1  0  0  0  0
  8  9  1  0  0  0  0
  8  7  2  0  0  0  0
  9  4  2  0  0  0  0
 10  8  1  0  0  0  0
 11 12  2  0  0  0  0
 13  1  1  0  0  0  0
 14 13  2  0  0  0  0
 15 14  1  0  0  0  0
 16 15  2  0  0  0  0
 16 18  1  0  0  0  0
 17 16  1  0  0  0  0
 18 19  2  0  0  0  0
 19 13  1  0  0  0  0
 20 21  1  0  0  0  0
 20  9  1  0  0  0  0
 21 27  1  0  0  0  0
 22 21  1  0  0  0  0
 23 24  1  0  0  0  0
 23 22  1  0  0  0  0
 24 25  1  0  0  0  0
 25 26  1  0  0  0  0
 26 21  1  0  0  0  0
M  END
>  <Pose>
1

>  <Score>
-10.197

$$$$
