MODEL 1
REMARK VINA RESULT:    -9.054      0.000      0.000
REMARK INTER + INTRA:         -13.790
REMARK INTER:                 -12.759
REMARK INTRA:                  -1.031
REMARK UNBOUND:                -1.031
REMARK  8 active torsions:
REMARK  status: ('A' for Active; 'I' for Inactive)
REMARK    1  A    between atoms: C_5  and  C_8 
REMARK    2  A    between atoms: N_9  and  N_10 
REMARK       I    between atoms: N_10  and  C_11 
REMARK    3  A    between atoms: C_11  and  C_13 
REMARK    4  A    between atoms: C_13  and  N_14 
REMARK    5  A    between atoms: C_16  and  C_25 
REMARK    6  A    between atoms: C_18  and  C_19 
REMARK    7  A    between atoms: C_23  and  N_24 
REMARK    8  A    between atoms: C_29  and  N_30 
ROOT
ATOM      1  N   UNK d   1      17.605 -54.784  36.318  0.00  0.00    -0.239 N 
ATOM      2  N   UNK d   1      17.076 -55.802  35.572  0.00  0.00    -0.147 NA
ATOM      3  C   UNK d   1      17.455 -55.644  34.296  0.00  0.00     0.206 A 
ATOM      4  N   UNK d   1      18.203 -54.542  34.277  0.00  0.00    -0.203 NA
ATOM      5  C   UNK d   1      18.302 -53.993  35.546  0.00  0.00     0.184 A 
ENDROOT
BRANCH   1   6
ATOM      6  C   UNK d   1      17.356 -54.737  37.745  0.00  0.00     0.257 C 
BRANCH   6   7
ATOM      7  C   UNK d   1      16.069 -55.395  38.092  0.00  0.00     0.257 C 
ATOM      8  N   UNK d   1      15.903 -56.793  37.943  0.00  0.00    -0.246 N 
ATOM      9  H   UNK d   1      16.697 -57.404  37.581  0.00  0.00     0.192 HD
ATOM     10  O   UNK d   1      15.115 -54.708  38.522  0.00  0.00    -0.270 OA
BRANCH   8  11
ATOM     11  N   UNK d   1      14.697 -57.372  38.275  0.00  0.00    -0.184 NA
ATOM     12  C   UNK d   1      14.131 -58.325  37.646  0.00  0.00     0.150 C 
BRANCH  12  13
ATOM     13  C   UNK d   1      12.851 -58.901  38.043  0.00  0.00    -0.017 A 
ATOM     14  C   UNK d   1      12.458 -58.943  39.364  0.00  0.00     0.014 A 
ATOM     15  C   UNK d   1      11.239 -59.494  39.718  0.00  0.00     0.020 A 
ATOM     16  C   UNK d   1      10.370 -60.020  38.774  0.00  0.00     0.011 A 
ATOM     17 Br   UNK d   1       8.694 -60.773  39.293  0.00  0.00    -0.051 Br
ATOM     18  C   UNK d   1      10.763 -59.979  37.453  0.00  0.00     0.020 A 
ATOM     19  C   UNK d   1      11.981 -59.427  37.112  0.00  0.00     0.014 A 
ENDBRANCH  12  13
ENDBRANCH   8  11
ENDBRANCH   6   7
ENDBRANCH   1   6
BRANCH   5  20
ATOM     20  C   UNK d   1      19.059 -52.786  35.810  0.00  0.00     0.181 A 
ATOM     21  N   UNK d   1      20.173 -52.436  35.053  0.00  0.00    -0.097 NA
ATOM     22  O   UNK d   1      20.647 -51.330  35.472  0.00  0.00    -0.104 OA
ATOM     23  N   UNK d   1      19.952 -50.898  36.449  0.00  0.00    -0.085 NA
ATOM     24  C   UNK d   1      18.943 -51.789  36.690  0.00  0.00     0.186 A 
BRANCH  24  25
ATOM     25  N   UNK d   1      18.014 -51.552  37.711  0.00  0.00    -0.380 N 
ATOM     26  H   UNK d   1      16.995 -51.693  37.518  0.00  0.00     0.158 HD
ATOM     27  H   UNK d   1      18.264 -51.248  38.675  0.00  0.00     0.158 HD
ENDBRANCH  24  25
ENDBRANCH   5  20
BRANCH   3  28
ATOM     28  C   UNK d   1      17.123 -56.495  33.160  0.00  0.00     0.183 A 
ATOM     29  N   UNK d   1      16.493 -57.673  33.190  0.00  0.00    -0.097 NA
ATOM     30  O   UNK d   1      16.379 -58.136  31.957  0.00  0.00    -0.104 OA
ATOM     31  N   UNK d   1      16.911 -57.302  31.109  0.00  0.00    -0.085 NA
ATOM     32  C   UNK d   1      17.394 -56.250  31.838  0.00  0.00     0.186 A 
BRANCH  32  33
ATOM     33  N   UNK d   1      18.050 -55.130  31.264  0.00  0.00    -0.380 N 
ATOM     34  H   UNK d   1      18.049 -54.203  31.775  0.00  0.00     0.158 HD
ATOM     35  H   UNK d   1      18.546 -55.154  30.353  0.00  0.00     0.158 HD
ENDBRANCH  32  33
ENDBRANCH   3  28
TORSDOF 8
ENDMDL
