/Users/jonathanwahrer/Desktop/Msc/3_Semester/Drug_Design_Praktikum/waehrer_HTS_screening/HTS_experiment/out/docking_results/vina_output/6s1j/0305_docked.pdbqt
 OpenBabel03222221123D

 27 30  0  0  0  0  0  0  0  0999 V2000
   16.7010  -54.9250   37.9480 C   0  0  0  0  0  0  0  0  0  0  0  0
   16.2350  -55.9620   37.2650 N   0  0  0  0  0  0  0  0  0  0  0  0
   15.4660  -56.7500   38.0570 C   0  0  0  0  0  0  0  0  0  0  0  0
   15.4540  -56.1660   39.2700 N   0  0  0  0  0  0  0  0  0  0  0  0
   16.1700  -55.0910   39.2300 N   0  0  0  0  0  0  0  0  0  0  0  0
   14.9770  -57.8040   37.3920 N   0  0  0  0  0  0  0  0  0  0  0  0
   15.4420  -57.6790   36.1440 C   0  0  0  0  0  0  0  0  0  0  0  0
   16.2330  -56.5280   36.0260 C   0  0  0  0  0  0  0  0  0  0  0  0
   16.7680  -56.1810   34.8670 N   0  0  0  0  0  0  0  0  0  0  0  0
   16.5290  -56.9950   33.7930 C   0  0  0  0  0  0  0  0  0  0  0  0
   17.0210  -56.7050   32.6770 O   0  0  0  0  0  0  0  0  0  0  0  0
   15.7860  -58.1050   33.8750 N   0  0  0  0  0  0  0  0  0  0  0  0
   15.2270  -58.4700   35.0410 C   0  0  0  0  0  0  0  0  0  0  0  0
   14.5210  -59.5060   35.1570 O   0  0  0  0  0  0  0  0  0  0  0  0
   17.4910  -54.9710   34.5730 C   0  0  0  0  0  1  0  0  0  0  0  0
   15.6060  -58.7260   33.0590 H   0  0  0  0  0  0  0  0  0  0  0  0
   17.5480  -53.7780   37.6810 C   0  0  0  0  0  0  0  0  0  0  0  0
   18.8180  -54.0210   37.1530 C   0  0  0  0  0  3  0  0  0  0  0  0
   19.6340  -53.0190   36.7290 C   0  0  0  0  0  3  0  0  0  0  0  0
   19.2130  -51.7090   36.8140 C   0  0  0  0  0  0  0  0  0  0  0  0
   20.3520  -50.3160   36.2230 Br  0  0  0  0  0  0  0  0  0  0  0  0
   17.9700  -51.4040   37.3230 C   0  0  0  0  0  3  0  0  0  0  0  0
   17.1900  -52.4550   37.7350 C   0  0  0  0  0  3  0  0  0  0  0  0
   14.1330  -58.8570   37.9100 C   0  0  0  0  0  2  0  0  0  0  0  0
   12.7070  -58.4020   38.1360 C   0  0  0  0  0  2  0  0  0  0  0  0
   11.7930  -59.2120   37.4730 O   0  0  0  0  0  0  0  0  0  0  0  0
   10.8040  -59.5630   38.3920 C   0  0  0  0  0  1  0  0  0  0  0  0
  1  5  2  0  0  0  0
  2  1  1  0  0  0  0
  2  3  1  0  0  0  0
  3  4  2  0  0  0  0
  5  4  1  0  0  0  0
  6 24  1  0  0  0  0
  6  3  1  0  0  0  0
  7  6  1  0  0  0  0
  8  7  2  0  0  0  0
  8  2  1  0  0  0  0
  9  8  1  0  0  0  0
 10 12  1  0  0  0  0
 10  9  1  0  0  0  0
 11 10  2  0  0  0  0
 12 13  1  0  0  0  0
 13 14  2  0  0  0  0
 13  7  1  0  0  0  0
 15  9  1  0  0  0  0
 16 12  1  0  0  0  0
 17 23  1  0  0  0  0
 17  1  1  0  0  0  0
 18 17  2  0  0  0  0
 19 20  2  0  0  0  0
 19 18  1  0  0  0  0
 20 22  1  0  0  0  0
 21 20  1  0  0  0  0
 22 23  2  0  0  0  0
 24 25  1  0  0  0  0
 26 25  1  0  0  0  0
 26 27  1  0  0  0  0
M  END
>  <Pose>
1

>  <Score>
-8.991

$$$$
