MODEL 1
REMARK VINA RESULT:    -9.640      0.000      0.000
REMARK INTER + INTRA:         -14.340
REMARK INTER:                 -13.021
REMARK INTRA:                  -1.318
REMARK UNBOUND:                -1.318
REMARK  6 active torsions:
REMARK  status: ('A' for Active; 'I' for Inactive)
REMARK    1  A    between atoms: C_5  and  C_8 
REMARK    2  A    between atoms: C_9  and  C_28 
REMARK    3  A    between atoms: C_16  and  C_17 
REMARK    4  A    between atoms: C_17  and  N_18 
REMARK    5  A    between atoms: C_28  and  O_30 
REMARK    6  A    between atoms: O_30  and  C_31 
ROOT
ATOM      1  C   UNK d   1      16.212 -57.370  34.472  0.00  0.00     0.065 A 
ATOM      2  C   UNK d   1      16.740 -56.945  35.667  0.00  0.00     0.166 A 
ATOM      3  O   UNK d   1      17.722 -56.068  35.745  0.00  0.00    -0.302 OA
ATOM      4  C   UNK d   1      18.258 -55.543  34.673  0.00  0.00     0.101 A 
ATOM      5  C   UNK d   1      17.784 -55.921  33.468  0.00  0.00     0.050 A 
ATOM      6  C   UNK d   1      18.326 -55.383  32.322  0.00  0.00     0.021 A 
ATOM      7  C   UNK d   1      19.342 -54.469  32.445  0.00  0.00     0.041 A 
ATOM      8  C   UNK d   1      19.829 -54.082  33.708  0.00  0.00     0.118 A 
ATOM      9  C   UNK d   1      19.309 -54.601  34.855  0.00  0.00     0.039 A 
ATOM     10  O   UNK d   1      20.852 -53.152  33.636  0.00  0.00    -0.191 OA
ATOM     11  C   UNK d   1      16.760 -56.833  33.306  0.00  0.00     0.199 A 
ATOM     12  O   UNK d   1      16.327 -57.178  32.201  0.00  0.00    -0.286 OA
ENDROOT
BRANCH   9  13
ATOM     13  C   UNK d   1      19.714 -54.321  36.211  0.00  0.00     0.279 C 
BRANCH  13  14
ATOM     14  N   UNK d   1      18.976 -53.507  37.088  0.00  0.00    -0.064 N 
ATOM     15  C   UNK d   1      19.009 -53.979  38.427  0.00  0.00     0.254 C 
ATOM     16  C   UNK d   1      17.878 -53.673  39.327  0.00  0.00     0.144 C 
ATOM     17  N   UNK d   1      16.705 -53.309  38.657  0.00  0.00    -0.413 N 
ATOM     18  C   UNK d   1      16.794 -52.412  37.589  0.00  0.00     0.144 C 
ATOM     19  C   UNK d   1      15.468 -53.841  39.046  0.00  0.00     0.143 C 
ATOM     20  C   UNK d   1      17.816 -52.859  36.592  0.00  0.00     0.254 C 
ATOM     21  H   UNK d   1      19.677 -52.614  37.174  0.00  0.00     0.280 HD
ENDBRANCH  13  14
ENDBRANCH   9  13
BRANCH   2  22
ATOM     22  C   UNK d   1      16.179 -57.500  36.909  0.00  0.00     0.318 C 
ATOM     23  O   UNK d   1      16.599 -58.620  37.296  0.00  0.00    -0.257 OA
BRANCH  22  24
ATOM     24  O   UNK d   1      15.234 -56.871  37.659  0.00  0.00    -0.316 OA
BRANCH  24  25
ATOM     25  C   UNK d   1      14.546 -57.562  38.673  0.00  0.00     0.175 C 
ATOM     26  C   UNK d   1      13.233 -58.054  38.129  0.00  0.00     0.034 C 
ENDBRANCH  24  25
ENDBRANCH  22  24
ENDBRANCH   2  22
BRANCH   1  27
ATOM     27  C   UNK d   1      15.121 -58.307  34.442  0.00  0.00    -0.019 A 
ATOM     28  C   UNK d   1      15.301 -59.686  34.375  0.00  0.00     0.014 A 
ATOM     29  C   UNK d   1      14.257 -60.586  34.360  0.00  0.00     0.020 A 
ATOM     30  C   UNK d   1      12.976 -60.120  34.412  0.00  0.00     0.011 A 
ATOM     31 Br   UNK d   1      11.541 -61.383  34.395  0.00  0.00    -0.051 Br
ATOM     32  C   UNK d   1      12.744 -58.762  34.478  0.00  0.00     0.020 A 
ATOM     33  C   UNK d   1      13.825 -57.865  34.492  0.00  0.00     0.014 A 
ENDBRANCH   1  27
TORSDOF 6
ENDMDL
