/Users/jonathanwahrer/Desktop/Msc/3_Semester/Drug_Design_Praktikum/waehrer_HTS_screening/HTS_experiment/out/docking_results/vina_output/6s1j/0324_docked.pdbqt
 OpenBabel03222221133D

 34 38  0  0  1  0  0  0  0  0999 V2000
   14.4270  -57.4640   37.7890 C   0  0  0  0  0  0  0  0  0  0  0  0
   14.3990  -56.1860   38.3790 C   0  0  0  0  0  3  0  0  0  0  0  0
   15.4780  -55.4770   38.0280 N   0  0  0  0  0  0  0  0  0  0  0  0
   16.1030  -54.2830   38.1790 C   0  0  0  0  0  0  0  0  0  0  0  0
   17.2540  -54.3580   37.4330 C   0  0  0  0  0  0  0  0  0  0  0  0
   17.2980  -55.5880   36.8510 N   0  0  0  0  0  0  0  0  0  0  0  0
   16.1960  -56.2610   37.2300 C   0  0  1  0  0  3  0  0  0  0  0  0
   15.5580  -57.4770   37.0800 N   0  0  0  0  0  0  0  0  0  0  0  0
   18.0860  -53.2580   37.4130 C   0  0  0  0  0  3  0  0  0  0  0  0
   17.7860  -52.1010   38.1210 C   0  0  0  0  0  3  0  0  0  0  0  0
   16.6360  -52.0290   38.8670 C   0  0  0  0  0  3  0  0  0  0  0  0
   15.7920  -53.1460   38.8850 C   0  0  0  0  0  3  0  0  0  0  0  0
   18.0660  -55.9190   36.2260 H   0  0  0  0  0  0  0  0  0  0  0  0
   16.1070  -58.5540   36.2840 C   0  0  0  0  0  2  0  0  0  0  0  0
   16.0380  -58.3130   34.7940 C   0  0  0  0  0  2  0  0  0  0  0  0
   17.4060  -58.0410   34.2200 C   0  0  0  0  0  2  0  0  0  0  0  0
   17.4170  -57.6780   32.8300 N   0  0  0  0  0  0  0  0  0  0  0  0
   18.8190  -57.5840   32.4550 C   0  0  0  0  0  2  0  0  0  0  0  0
   19.1700  -56.3840   31.6580 C   0  0  0  0  0  2  0  0  0  0  0  0
   18.6210  -55.1380   32.1180 N   0  0  0  0  0  4  0  0  0  0  0  0
   17.4510  -55.2940   32.9550 C   0  0  0  0  0  2  0  0  0  0  0  0
   18.2550  -54.6460   31.2430 H   0  0  0  0  0  0  0  0  0  0  0  0
   16.6820  -56.5090   32.4770 C   0  0  0  0  0  2  0  0  0  0  0  0
   19.6250  -54.2700   32.6460 C   0  0  0  0  0  2  0  0  0  0  0  0
   19.6450  -54.1180   34.1290 C   0  0  0  0  0  2  0  0  0  0  0  0
   20.3600  -53.0050   34.5690 O   0  0  0  0  0  0  0  0  0  0  0  0
   21.1060  -52.8330   33.9690 H   0  0  0  0  0  0  0  0  0  0  0  0
   13.4000  -58.4800   38.0140 C   0  0  0  0  0  0  0  0  0  0  0  0
   12.8780  -58.8390   39.2150 C   0  0  0  0  0  3  0  0  0  0  0  0
   11.8580  -59.7960   39.3490 C   0  0  0  0  0  3  0  0  0  0  0  0
   11.3340  -60.4230   38.2480 C   0  0  0  0  0  0  0  0  0  0  0  0
    9.9400  -61.7290   38.4280 Br  0  0  0  0  0  0  0  0  0  0  0  0
   11.8470  -60.0770   37.0300 C   0  0  0  0  0  3  0  0  0  0  0  0
   12.8530  -59.1320   36.9080 C   0  0  0  0  0  3  0  0  0  0  0  0
  1 28  1  0  0  0  0
  1  2  2  0  0  0  0
  3  4  1  0  0  0  0
  3  2  1  0  0  0  0
  4 12  1  0  0  0  0
  5  4  2  0  0  0  0
  6  5  1  0  0  0  0
  7  6  1  1  0  0  0
  7  3  1  0  0  0  0
  8  7  1  0  0  0  0
  8  1  1  0  0  0  0
  9  5  1  0  0  0  0
  9 10  2  0  0  0  0
 10 11  1  0  0  0  0
 11 12  2  0  0  0  0
 13  6  1  0  0  0  0
 14  8  1  0  0  0  0
 15 14  1  0  0  0  0
 16 15  1  0  0  0  0
 17 16  1  0  0  0  0
 18 17  1  0  0  0  0
 19 20  1  0  0  0  0
 19 18  1  0  0  0  0
 20 24  1  0  0  0  0
 20 21  1  0  0  0  0
 22 20  1  0  0  0  0
 23 17  1  0  0  0  0
 23 21  1  0  0  0  0
 24 25  1  0  0  0  0
 25 26  1  0  0  0  0
 27 26  1  0  0  0  0
 28 29  1  0  0  0  0
 29 30  2  0  0  0  0
 31 32  1  0  0  0  0
 31 30  1  0  0  0  0
 33 31  2  0  0  0  0
 34 33  1  0  0  0  0
 34 28  2  0  0  0  0
M  END
>  <Pose>
1

>  <Score>
-9.066

$$$$
