/Users/jonathanwahrer/Desktop/Msc/3_Semester/Drug_Design_Praktikum/waehrer_HTS_screening/HTS_experiment/out/docking_results/vina_output/6s1j/0347_docked.pdbqt
 OpenBabel03222221143D

 34 37  0  0  1  0  0  0  0  0999 V2000
   15.8470  -59.2380   34.3010 C   0  0  2  0  0  3  0  0  0  0  0  0
   14.6010  -58.6390   34.7360 N   0  0  0  0  0  0  0  0  0  0  0  0
   14.3440  -57.5530   33.8440 C   0  0  0  0  0  0  0  0  0  0  0  0
   13.2250  -57.0580   33.5620 O   0  0  0  0  0  0  0  0  0  0  0  0
   15.6470  -57.1430   33.3310 C   0  0  0  0  0  0  0  0  0  0  0  0
   15.9320  -56.2300   32.5160 O   0  0  0  0  0  0  0  0  0  0  0  0
   16.6480  -58.0100   33.9440 C   0  0  0  0  0  0  0  0  0  0  0  0
   17.9260  -57.7620   34.0910 C   0  0  0  0  0  0  0  0  0  0  0  0
   18.6930  -58.7900   34.6670 O   0  0  0  0  0  1  0  0  0  0  0  0
   13.7530  -59.0500   35.8680 C   0  0  0  0  0  2  0  0  0  0  0  0
   14.4790  -58.7950   37.1980 C   0  0  0  0  0  2  0  0  0  0  0  0
   14.3690  -57.3390   37.5490 C   0  0  0  0  0  2  0  0  0  0  0  0
   15.4890  -56.9700   38.3810 N   0  0  0  0  0  4  0  0  0  0  0  0
   15.1760  -56.0040   39.3870 C   0  0  0  0  0  2  0  0  0  0  0  0
   14.9560  -54.6350   38.8390 C   0  0  0  0  0  2  0  0  0  0  0  0
   16.0500  -54.2150   38.1030 O   0  0  0  0  0  0  0  0  0  0  0  0
   16.2050  -55.0970   37.0340 C   0  0  0  0  0  2  0  0  0  0  0  0
   16.5980  -56.4470   37.6040 C   0  0  0  0  0  2  0  0  0  0  0  0
   15.8450  -57.8340   38.8500 H   0  0  0  0  0  0  0  0  0  0  0  0
   15.6450  -60.1020   33.1460 C   0  0  0  0  0  0  0  0  0  0  0  0
   14.5620  -60.9450   33.0840 C   0  0  0  0  0  3  0  0  0  0  0  0
   14.3620  -61.7890   31.9880 C   0  0  0  0  0  3  0  0  0  0  0  0
   15.2560  -61.7900   30.9440 C   0  0  0  0  0  0  0  0  0  0  0  0
   14.9800  -62.9450   29.4510 Br  0  0  0  0  0  0  0  0  0  0  0  0
   16.3400  -60.9540   30.9940 C   0  0  0  0  0  3  0  0  0  0  0  0
   16.5220  -60.1250   32.0860 C   0  0  0  0  0  3  0  0  0  0  0  0
   18.5520  -56.5030   33.6990 C   0  0  0  0  0  0  0  0  0  0  0  0
   18.7150  -55.4260   34.5410 C   0  0  0  0  0  3  0  0  0  0  0  0
   19.2880  -54.2220   34.1710 C   0  0  0  0  0  0  0  0  0  0  0  0
   19.7260  -54.0800   32.8850 C   0  0  0  0  0  3  0  0  0  0  0  0
   19.5820  -55.1430   31.9990 C   0  0  0  0  0  3  0  0  0  0  0  0
   19.0060  -56.3280   32.4040 C   0  0  0  0  0  3  0  0  0  0  0  0
   19.3710  -53.2530   35.1440 O   0  0  0  0  0  0  0  0  0  0  0  0
   19.5450  -53.4290   36.5080 C   0  0  0  0  0  1  0  0  0  0  0  0
  1 20  1  6  0  0  0
  1  2  1  0  0  0  0
  2 10  1  0  0  0  0
  3  2  1  0  0  0  0
  4  3  2  0  0  0  0
  5  3  1  0  0  0  0
  5  7  1  0  0  0  0
  6  5  2  0  0  0  0
  7  8  2  0  0  0  0
  7  1  1  0  0  0  0
  8  9  1  0  0  0  0
 10 11  1  0  0  0  0
 11 12  1  0  0  0  0
 12 13  1  0  0  0  0
 13 19  1  0  0  0  0
 13 14  1  0  0  0  0
 15 14  1  0  0  0  0
 16 15  1  0  0  0  0
 17 18  1  0  0  0  0
 17 16  1  0  0  0  0
 18 13  1  0  0  0  0
 21 20  1  0  0  0  0
 22 21  2  0  0  0  0
 23 25  2  0  0  0  0
 23 22  1  0  0  0  0
 24 23  1  0  0  0  0
 25 26  1  0  0  0  0
 26 20  2  0  0  0  0
 27  8  1  0  0  0  0
 27 28  1  0  0  0  0
 29 28  2  0  0  0  0
 29 33  1  0  0  0  0
 30 29  1  0  0  0  0
 31 32  1  0  0  0  0
 31 30  2  0  0  0  0
 32 27  2  0  0  0  0
 33 34  1  0  0  0  0
M  END
>  <Pose>
1

>  <Score>
-8.319

$$$$
