MODEL 1
REMARK VINA RESULT:    -8.319      0.000      0.000
REMARK INTER + INTRA:         -13.117
REMARK INTER:                 -11.724
REMARK INTRA:                  -1.394
REMARK UNBOUND:                -1.394
REMARK  7 active torsions:
REMARK  status: ('A' for Active; 'I' for Inactive)
REMARK    1  A    between atoms: C_5  and  C_8 
REMARK    2  A    between atoms: N_9  and  C_25 
REMARK    3  A    between atoms: C_15  and  C_17 
REMARK    4  A    between atoms: C_19  and  O_23 
REMARK    5  A    between atoms: C_25  and  C_26 
REMARK    6  A    between atoms: C_26  and  C_27 
REMARK    7  A    between atoms: C_27  and  N_28 
ROOT
ATOM      1  C   UNK d   1      15.847 -59.238  34.301  0.00  0.00     0.161 C 
ATOM      2  N   UNK d   1      14.601 -58.639  34.736  0.00  0.00    -0.332 N 
ATOM      3  C   UNK d   1      14.344 -57.553  33.844  0.00  0.00     0.295 C 
ATOM      4  O   UNK d   1      13.225 -57.058  33.562  0.00  0.00    -0.264 OA
ATOM      5  C   UNK d   1      15.647 -57.143  33.331  0.00  0.00     0.250 C 
ATOM      6  O   UNK d   1      15.932 -56.230  32.516  0.00  0.00    -0.282 OA
ATOM      7  C   UNK d   1      16.648 -58.010  33.944  0.00  0.00     0.062 C 
ATOM      8  C   UNK d   1      17.926 -57.762  34.091  0.00  0.00     0.130 C 
ATOM      9  O   UNK d   1      18.693 -58.790  34.667  0.00  0.00    -0.190 OA
ENDROOT
BRANCH   2  10
ATOM     10  C   UNK d   1      13.753 -59.050  35.868  0.00  0.00     0.129 C 
BRANCH  10  11
ATOM     11  C   UNK d   1      14.479 -58.795  37.198  0.00  0.00     0.048 C 
BRANCH  11  12
ATOM     12  C   UNK d   1      14.369 -57.339  37.549  0.00  0.00     0.236 C 
BRANCH  12  13
ATOM     13  N   UNK d   1      15.489 -56.970  38.381  0.00  0.00    -0.067 N 
ATOM     14  C   UNK d   1      15.176 -56.004  39.387  0.00  0.00     0.261 C 
ATOM     15  C   UNK d   1      14.956 -54.635  38.839  0.00  0.00     0.195 C 
ATOM     16  O   UNK d   1      16.050 -54.215  38.103  0.00  0.00    -0.388 OA
ATOM     17  C   UNK d   1      16.205 -55.097  37.034  0.00  0.00     0.195 C 
ATOM     18  C   UNK d   1      16.598 -56.447  37.604  0.00  0.00     0.261 C 
ATOM     19  H   UNK d   1      15.845 -57.834  38.850  0.00  0.00     0.280 HD
ENDBRANCH  12  13
ENDBRANCH  11  12
ENDBRANCH  10  11
ENDBRANCH   2  10
BRANCH   1  20
ATOM     20  C   UNK d   1      15.645 -60.102  33.146  0.00  0.00    -0.030 A 
ATOM     21  C   UNK d   1      14.562 -60.945  33.084  0.00  0.00     0.011 A 
ATOM     22  C   UNK d   1      14.362 -61.789  31.988  0.00  0.00     0.019 A 
ATOM     23  C   UNK d   1      15.256 -61.790  30.944  0.00  0.00     0.011 A 
ATOM     24 Br   UNK d   1      14.980 -62.945  29.451  0.00  0.00    -0.051 Br
ATOM     25  C   UNK d   1      16.340 -60.954  30.994  0.00  0.00     0.019 A 
ATOM     26  C   UNK d   1      16.522 -60.125  32.086  0.00  0.00     0.011 A 
ENDBRANCH   1  20
BRANCH   8  27
ATOM     27  C   UNK d   1      18.552 -56.503  33.699  0.00  0.00     0.004 A 
ATOM     28  C   UNK d   1      18.715 -55.426  34.541  0.00  0.00     0.051 A 
ATOM     29  C   UNK d   1      19.288 -54.222  34.171  0.00  0.00     0.069 A 
ATOM     30  C   UNK d   1      19.726 -54.080  32.885  0.00  0.00     0.037 A 
ATOM     31  C   UNK d   1      19.582 -55.143  31.999  0.00  0.00     0.004 A 
ATOM     32  C   UNK d   1      19.006 -56.328  32.404  0.00  0.00     0.014 A 
BRANCH  29  33
ATOM     33  O   UNK d   1      19.371 -53.253  35.144  0.00  0.00    -0.356 OA
ATOM     34  C   UNK d   1      19.545 -53.429  36.508  0.00  0.00     0.210 C 
ENDBRANCH  29  33
ENDBRANCH   8  27
TORSDOF 7
ENDMDL
