MODEL 1
REMARK VINA RESULT:    -8.329      0.000      0.000
REMARK INTER + INTRA:         -11.427
REMARK INTER:                 -10.764
REMARK INTRA:                  -0.663
REMARK UNBOUND:                -0.663
REMARK  5 active torsions:
REMARK  status: ('A' for Active; 'I' for Inactive)
REMARK    1  A    between atoms: C_5  and  C_8 
REMARK    2  A    between atoms: N_9  and  C_24 
REMARK    3  A    between atoms: C_15  and  C_17 
REMARK    4  A    between atoms: C_24  and  C_25 
REMARK    5  A    between atoms: C_25  and  N_26 
ROOT
ATOM      1  C   UNK d   1      16.970 -56.004  33.869  0.00  0.00     0.161 C 
ATOM      2  N   UNK d   1      17.872 -55.489  34.834  0.00  0.00    -0.331 N 
ATOM      3  C   UNK d   1      18.695 -54.561  34.064  0.00  0.00     0.295 C 
ATOM      4  O   UNK d   1      19.268 -53.530  34.511  0.00  0.00    -0.264 OA
ATOM      5  C   UNK d   1      18.707 -55.080  32.697  0.00  0.00     0.250 C 
ATOM      6  O   UNK d   1      19.296 -54.610  31.689  0.00  0.00    -0.282 OA
ATOM      7  C   UNK d   1      17.884 -56.291  32.723  0.00  0.00     0.062 C 
ATOM      8  C   UNK d   1      17.988 -57.355  31.948  0.00  0.00     0.130 C 
ATOM      9  O   UNK d   1      17.163 -58.451  32.149  0.00  0.00    -0.190 OA
ENDROOT
BRANCH   2  10
ATOM     10  C   UNK d   1      18.034 -55.682  36.277  0.00  0.00     0.155 C 
BRANCH  10  11
ATOM     11  C   UNK d   1      17.091 -54.877  37.119  0.00  0.00     0.255 C 
BRANCH  11  12
ATOM     12  N   UNK d   1      17.681 -54.448  38.367  0.00  0.00    -0.066 N 
ATOM     13  C   UNK d   1      16.749 -53.767  39.221  0.00  0.00     0.261 C 
ATOM     14  C   UNK d   1      16.346 -52.410  38.724  0.00  0.00     0.195 C 
ATOM     15  O   UNK d   1      17.450 -51.609  38.427  0.00  0.00    -0.388 OA
ATOM     16  C   UNK d   1      18.161 -52.282  37.422  0.00  0.00     0.195 C 
ATOM     17  C   UNK d   1      18.754 -53.521  38.057  0.00  0.00     0.261 C 
ATOM     18  H   UNK d   1      18.101 -55.233  38.901  0.00  0.00     0.280 HD
ENDBRANCH  11  12
ENDBRANCH  10  11
ENDBRANCH   2  10
BRANCH   1  19
ATOM     19  C   UNK d   1      15.999 -56.985  34.168  0.00  0.00    -0.030 A 
ATOM     20  C   UNK d   1      16.225 -58.025  35.024  0.00  0.00     0.011 A 
ATOM     21  C   UNK d   1      15.219 -58.964  35.299  0.00  0.00     0.019 A 
ATOM     22  C   UNK d   1      13.974 -58.874  34.719  0.00  0.00     0.011 A 
ATOM     23 Br   UNK d   1      12.577 -60.120  35.057  0.00  0.00    -0.051 Br
ATOM     24  C   UNK d   1      13.745 -57.834  33.860  0.00  0.00     0.019 A 
ATOM     25  C   UNK d   1      14.742 -56.922  33.602  0.00  0.00     0.011 A 
ENDBRANCH   1  19
BRANCH   8  26
ATOM     26  C   UNK d   1      18.938 -57.463  30.850  0.00  0.00     0.001 A 
ATOM     27  C   UNK d   1      18.398 -57.203  29.583  0.00  0.00     0.016 A 
ATOM     28  C   UNK d   1      19.168 -57.223  28.444  0.00  0.00     0.024 A 
ATOM     29  C   UNK d   1      20.523 -57.511  28.571  0.00  0.00     0.034 A 
ATOM     30  C   UNK d   1      21.047 -57.765  29.819  0.00  0.00     0.024 A 
ATOM     31 Cl   UNK d   1      21.492 -57.534  27.116  0.00  0.00    -0.084 Cl
ATOM     32  C   UNK d   1      20.266 -57.742  30.956  0.00  0.00     0.016 A 
ENDBRANCH   8  26
TORSDOF 5
ENDMDL
