/Users/jonathanwahrer/Desktop/Msc/3_Semester/Drug_Design_Praktikum/waehrer_HTS_screening/HTS_experiment/out/docking_results/vina_output/6s1j/0354_docked.pdbqt
 OpenBabel03222221153D

 32 35  0  0  1  0  0  0  0  0999 V2000
   18.9310  -55.7250   34.3370 C   0  0  1  0  0  3  0  0  0  0  0  0
   19.3430  -54.7650   33.3640 N   0  0  0  0  0  0  0  0  0  0  0  0
   19.9340  -53.6760   34.1180 C   0  0  0  0  0  0  0  0  0  0  0  0
   20.7270  -52.8240   33.6390 O   0  0  0  0  0  0  0  0  0  0  0  0
   19.4450  -53.7610   35.4810 C   0  0  0  0  0  0  0  0  0  0  0  0
   19.7180  -52.9930   36.4530 O   0  0  0  0  0  0  0  0  0  0  0  0
   18.5650  -54.9110   35.5260 C   0  0  0  0  0  0  0  0  0  0  0  0
   17.6280  -55.1350   36.4300 C   0  0  0  0  0  0  0  0  0  0  0  0
   16.8540  -56.3070   36.2470 O   0  0  0  0  0  1  0  0  0  0  0  0
   19.3190  -54.7800   31.9000 C   0  0  0  0  0  2  0  0  0  0  0  0
   19.9590  -55.9690   31.2670 C   0  0  0  0  0  2  0  0  0  0  0  0
   19.2620  -56.3700   29.9760 C   0  0  0  0  0  2  0  0  0  0  0  0
   19.8890  -55.7550   28.8290 N   0  0  0  0  0  4  0  0  0  0  0  0
   21.3090  -55.5580   29.0110 C   0  0  0  0  0  2  0  0  0  0  0  0
   21.9000  -55.3190   27.6200 C   0  0  0  0  0  2  0  0  0  0  0  0
   21.9640  -56.5410   26.9530 O   0  0  0  0  0  0  0  0  0  0  0  0
   20.8310  -57.3170   27.1930 C   0  0  0  0  0  2  0  0  0  0  0  0
   19.6510  -56.4630   27.6090 C   0  0  0  0  0  2  0  0  0  0  0  0
   19.4610  -54.8030   28.7330 H   0  0  0  0  0  0  0  0  0  0  0  0
   17.9200  -56.6960   33.9660 C   0  0  0  0  0  0  0  0  0  0  0  0
   16.6960  -56.4480   33.4440 C   0  0  0  0  0  3  0  0  0  0  0  0
   15.8180  -57.4590   33.1040 C   0  0  0  0  0  3  0  0  0  0  0  0
   16.1430  -58.7860   33.2810 C   0  0  0  0  0  0  0  0  0  0  0  0
   14.9450  -60.1990   32.8180 Br  0  0  0  0  0  0  0  0  0  0  0  0
   17.3820  -59.0750   33.8110 C   0  0  0  0  0  3  0  0  0  0  0  0
   18.2410  -58.0530   34.1420 C   0  0  0  0  0  3  0  0  0  0  0  0
   17.3620  -54.2780   37.5670 C   0  0  0  0  0  0  0  0  0  0  0  0
   16.5070  -53.1930   37.3340 C   0  0  0  0  0  3  0  0  0  0  0  0
   16.1350  -52.3210   38.3360 C   0  0  0  0  0  3  0  0  0  0  0  0
   16.6010  -52.5070   39.5840 N   0  0  0  0  0  0  0  0  0  0  0  0
   17.4260  -53.5440   39.8380 C   0  0  0  0  0  3  0  0  0  0  0  0
   17.8100  -54.4310   38.8340 C   0  0  0  0  0  3  0  0  0  0  0  0
  1 20  1  6  0  0  0
  1  7  1  0  0  0  0
  2  3  1  0  0  0  0
  2  1  1  0  0  0  0
  3  5  1  0  0  0  0
  4  3  2  0  0  0  0
  5  7  1  0  0  0  0
  5  6  2  0  0  0  0
  7  8  2  0  0  0  0
  8 27  1  0  0  0  0
  9  8  1  0  0  0  0
 10  2  1  0  0  0  0
 11 10  1  0  0  0  0
 12 11  1  0  0  0  0
 13 14  1  0  0  0  0
 13 12  1  0  0  0  0
 15 14  1  0  0  0  0
 16 17  1  0  0  0  0
 16 15  1  0  0  0  0
 17 18  1  0  0  0  0
 18 13  1  0  0  0  0
 19 13  1  0  0  0  0
 20 26  1  0  0  0  0
 21 20  2  0  0  0  0
 22 23  2  0  0  0  0
 22 21  1  0  0  0  0
 23 25  1  0  0  0  0
 24 23  1  0  0  0  0
 25 26  2  0  0  0  0
 27 32  1  0  0  0  0
 28 27  2  0  0  0  0
 28 29  1  0  0  0  0
 29 30  2  0  0  0  0
 30 31  1  0  0  0  0
 32 31  2  0  0  0  0
M  END
>  <Pose>
1

>  <Score>
-8.689

$$$$
