MODEL 1
REMARK VINA RESULT:    -8.689      0.000      0.000
REMARK INTER + INTRA:         -12.048
REMARK INTER:                 -11.736
REMARK INTRA:                  -0.312
REMARK UNBOUND:                -0.312
REMARK  6 active torsions:
REMARK  status: ('A' for Active; 'I' for Inactive)
REMARK    1  A    between atoms: C_5  and  C_8 
REMARK    2  A    between atoms: N_9  and  C_23 
REMARK    3  A    between atoms: C_15  and  C_17 
REMARK    4  A    between atoms: C_23  and  C_24 
REMARK    5  A    between atoms: C_24  and  C_25 
REMARK    6  A    between atoms: C_25  and  N_26 
ROOT
ATOM      1  C   UNK d   1      18.931 -55.725  34.337  0.00  0.00     0.161 C 
ATOM      2  N   UNK d   1      19.343 -54.765  33.364  0.00  0.00    -0.332 N 
ATOM      3  C   UNK d   1      19.934 -53.676  34.118  0.00  0.00     0.295 C 
ATOM      4  O   UNK d   1      20.727 -52.824  33.639  0.00  0.00    -0.264 OA
ATOM      5  C   UNK d   1      19.445 -53.761  35.481  0.00  0.00     0.250 C 
ATOM      6  O   UNK d   1      19.718 -52.993  36.453  0.00  0.00    -0.282 OA
ATOM      7  C   UNK d   1      18.565 -54.911  35.526  0.00  0.00     0.062 C 
ATOM      8  C   UNK d   1      17.628 -55.135  36.430  0.00  0.00     0.130 C 
ATOM      9  O   UNK d   1      16.854 -56.307  36.247  0.00  0.00    -0.190 OA
ENDROOT
BRANCH   2  10
ATOM     10  C   UNK d   1      19.319 -54.780  31.900  0.00  0.00     0.129 C 
BRANCH  10  11
ATOM     11  C   UNK d   1      19.959 -55.969  31.267  0.00  0.00     0.048 C 
BRANCH  11  12
ATOM     12  C   UNK d   1      19.262 -56.370  29.976  0.00  0.00     0.236 C 
BRANCH  12  13
ATOM     13  N   UNK d   1      19.889 -55.755  28.829  0.00  0.00    -0.067 N 
ATOM     14  C   UNK d   1      21.309 -55.558  29.011  0.00  0.00     0.261 C 
ATOM     15  C   UNK d   1      21.900 -55.319  27.620  0.00  0.00     0.195 C 
ATOM     16  O   UNK d   1      21.964 -56.541  26.953  0.00  0.00    -0.388 OA
ATOM     17  C   UNK d   1      20.831 -57.317  27.193  0.00  0.00     0.195 C 
ATOM     18  C   UNK d   1      19.651 -56.463  27.609  0.00  0.00     0.261 C 
ATOM     19  H   UNK d   1      19.461 -54.803  28.733  0.00  0.00     0.280 HD
ENDBRANCH  12  13
ENDBRANCH  11  12
ENDBRANCH  10  11
ENDBRANCH   2  10
BRANCH   1  20
ATOM     20  C   UNK d   1      17.920 -56.696  33.966  0.00  0.00    -0.030 A 
ATOM     21  C   UNK d   1      16.696 -56.448  33.444  0.00  0.00     0.011 A 
ATOM     22  C   UNK d   1      15.818 -57.459  33.104  0.00  0.00     0.019 A 
ATOM     23  C   UNK d   1      16.143 -58.786  33.281  0.00  0.00     0.011 A 
ATOM     24 Br   UNK d   1      14.945 -60.199  32.818  0.00  0.00    -0.051 Br
ATOM     25  C   UNK d   1      17.382 -59.075  33.811  0.00  0.00     0.019 A 
ATOM     26  C   UNK d   1      18.241 -58.053  34.142  0.00  0.00     0.011 A 
ENDBRANCH   1  20
BRANCH   8  27
ATOM     27  C   UNK d   1      17.362 -54.278  37.567  0.00  0.00     0.004 A 
ATOM     28  C   UNK d   1      16.507 -53.193  37.334  0.00  0.00     0.033 A 
ATOM     29  C   UNK d   1      16.135 -52.321  38.336  0.00  0.00     0.117 A 
ATOM     30  N   UNK d   1      16.601 -52.507  39.584  0.00  0.00    -0.273 NA
ATOM     31  C   UNK d   1      17.426 -53.544  39.838  0.00  0.00     0.117 A 
ATOM     32  C   UNK d   1      17.810 -54.431  38.834  0.00  0.00     0.033 A 
ENDBRANCH   8  27
TORSDOF 6
ENDMDL
