/Users/jonathanwahrer/Desktop/Msc/3_Semester/Drug_Design_Praktikum/waehrer_HTS_screening/HTS_experiment/out/docking_results/vina_output/6s1j/0361_docked.pdbqt
 OpenBabel03222221153D

 33 36  0  0  1  0  0  0  0  0999 V2000
   16.2020  -58.2260   35.5120 C   0  0  1  0  0  3  0  0  0  0  0  0
   14.8390  -58.6150   35.1060 N   0  0  0  0  0  0  0  0  0  0  0  0
   14.4590  -57.6340   34.1490 C   0  0  0  0  0  0  0  0  0  0  0  0
   13.2610  -57.3210   33.8870 O   0  0  0  0  0  0  0  0  0  0  0  0
   15.6630  -57.0750   33.5440 C   0  0  0  0  0  0  0  0  0  0  0  0
   15.7220  -56.1950   32.6600 O   0  0  0  0  0  0  0  0  0  0  0  0
   16.7650  -57.7660   34.1890 C   0  0  0  0  0  0  0  0  0  0  0  0
   17.9680  -57.9830   33.7240 C   0  0  0  0  0  0  0  0  0  0  0  0
   18.8970  -58.7120   34.4540 O   0  0  0  0  0  1  0  0  0  0  0  0
   16.1680  -57.0420   36.3980 C   0  0  0  0  0  0  0  0  0  0  0  0
   15.3040  -56.9710   37.4650 C   0  0  0  0  0  3  0  0  0  0  0  0
   15.2650  -55.8700   38.3190 C   0  0  0  0  0  3  0  0  0  0  0  0
   16.1150  -54.8000   38.1070 C   0  0  0  0  0  0  0  0  0  0  0  0
   16.0780  -53.2720   39.2720 Br  0  0  0  0  0  0  0  0  0  0  0  0
   16.9770  -54.8730   37.0410 C   0  0  0  0  0  3  0  0  0  0  0  0
   17.0050  -55.9650   36.2050 C   0  0  0  0  0  3  0  0  0  0  0  0
   18.3920  -57.4750   32.4330 C   0  0  0  0  0  0  0  0  0  0  0  0
   18.3420  -58.0150   31.1980 N   0  0  0  0  0  0  0  0  0  0  0  0
   18.8890  -57.1890   30.2940 C   0  0  0  0  0  0  0  0  0  0  0  0
   17.8350  -59.1880   30.7400 C   0  0  0  0  0  3  0  0  0  0  0  0
   19.2940  -56.0980   30.9810 N   0  0  0  0  0  0  0  0  0  0  0  0
   18.9560  -57.4870   28.9330 C   0  0  0  0  0  3  0  0  0  0  0  0
   19.0180  -56.2210   32.2650 C   0  0  0  0  0  0  0  0  0  0  0  0
   19.2790  -55.2690   33.3920 C   0  0  0  0  0  1  0  0  0  0  0  0
   18.4450  -58.6750   28.4630 C   0  0  0  0  0  3  0  0  0  0  0  0
   17.8860  -59.5090   29.4040 C   0  0  0  0  0  3  0  0  0  0  0  0
   14.0870  -59.7370   35.6060 C   0  0  0  0  0  2  0  0  0  0  0  0
   13.5820  -60.7520   34.6590 C   0  0  0  0  0  2  0  0  0  0  0  0
   14.4140  -61.2070   33.5260 C   0  0  0  0  0  2  0  0  0  0  0  0
   13.7610  -61.5010   32.2860 N   0  0  0  0  0  4  0  0  0  0  0  0
   14.8160  -61.4710   31.2330 C   0  0  0  0  0  1  0  0  0  0  0  0
   13.3010  -62.8750   32.2850 C   0  0  0  0  0  1  0  0  0  0  0  0
   13.0060  -60.8780   32.0010 H   0  0  0  0  0  0  0  0  0  0  0  0
  1 10  1  1  0  0  0
  2  1  1  0  0  0  0
  2 27  1  0  0  0  0
  3  2  1  0  0  0  0
  4  3  2  0  0  0  0
  5  3  1  0  0  0  0
  5  7  1  0  0  0  0
  6  5  2  0  0  0  0
  7  1  1  0  0  0  0
  8  7  2  0  0  0  0
  8  9  1  0  0  0  0
 10 11  1  0  0  0  0
 11 12  2  0  0  0  0
 13 12  1  0  0  0  0
 13 14  1  0  0  0  0
 15 13  2  0  0  0  0
 16 10  2  0  0  0  0
 16 15  1  0  0  0  0
 17  8  1  0  0  0  0
 18 17  1  0  0  0  0
 19 21  2  0  0  0  0
 19 18  1  0  0  0  0
 20 18  1  0  0  0  0
 21 23  1  0  0  0  0
 22 19  1  0  0  0  0
 23 17  2  0  0  0  0
 23 24  1  0  0  0  0
 25 22  2  0  0  0  0
 25 26  1  0  0  0  0
 26 20  2  0  0  0  0
 28 27  1  0  0  0  0
 29 28  1  0  0  0  0
 30 29  1  0  0  0  0
 31 30  1  0  0  0  0
 32 30  1  0  0  0  0
 33 30  1  0  0  0  0
M  END
>  <Pose>
1

>  <Score>
-9.352

$$$$
