MODEL 1
REMARK VINA RESULT:    -7.906      0.000      0.000
REMARK INTER + INTRA:         -11.858
REMARK INTER:                 -10.680
REMARK INTRA:                  -1.178
REMARK UNBOUND:                -1.178
REMARK  6 active torsions:
REMARK  status: ('A' for Active; 'I' for Inactive)
REMARK    1  A    between atoms: C_5  and  C_8 
REMARK    2  A    between atoms: N_9  and  C_27 
REMARK    3  A    between atoms: C_15  and  C_17 
REMARK    4  A    between atoms: C_27  and  C_28 
REMARK    5  A    between atoms: C_28  and  C_29 
REMARK    6  A    between atoms: C_29  and  N_30 
ROOT
ATOM      1  C   UNK d   1      15.885 -57.757  33.913  0.00  0.00     0.161 C 
ATOM      2  N   UNK d   1      15.386 -58.300  35.107  0.00  0.00    -0.332 N 
ATOM      3  C   UNK d   1      14.406 -59.264  34.635  0.00  0.00     0.295 C 
ATOM      4  O   UNK d   1      13.369 -59.695  35.245  0.00  0.00    -0.264 OA
ATOM      5  C   UNK d   1      14.810 -59.683  33.297  0.00  0.00     0.251 C 
ATOM      6  O   UNK d   1      14.273 -60.502  32.484  0.00  0.00    -0.282 OA
ATOM      7  C   UNK d   1      16.037 -58.937  33.024  0.00  0.00     0.064 C 
ATOM      8  C   UNK d   1      17.001 -59.228  32.171  0.00  0.00     0.149 C 
ATOM      9  O   UNK d   1      18.072 -58.359  32.012  0.00  0.00    -0.189 OA
ENDROOT
BRANCH   1  10
ATOM     10  C   UNK d   1      16.953 -56.808  33.868  0.00  0.00    -0.030 A 
ATOM     11  C   UNK d   1      18.100 -56.953  34.595  0.00  0.00     0.011 A 
ATOM     12  C   UNK d   1      19.091 -55.997  34.526  0.00  0.00     0.019 A 
ATOM     13  C   UNK d   1      18.973 -54.871  33.733  0.00  0.00     0.011 A 
ATOM     14 Br   UNK d   1      20.345 -53.549  33.637  0.00  0.00    -0.051 Br
ATOM     15  C   UNK d   1      17.810 -54.732  33.000  0.00  0.00     0.019 A 
ATOM     16  C   UNK d   1      16.832 -55.697  33.083  0.00  0.00     0.011 A 
ENDBRANCH   1  10
BRANCH   8  17
ATOM     17  C   UNK d   1      17.003 -60.442  31.370  0.00  0.00     0.102 A 
ATOM     18  N   UNK d   1      17.099 -61.713  31.796  0.00  0.00    -0.302 N 
ATOM     19  C   UNK d   1      17.024 -62.562  30.745  0.00  0.00     0.134 A 
ATOM     20  C   UNK d   1      17.264 -62.306  33.014  0.00  0.00     0.099 A 
ATOM     21  N   UNK d   1      16.879 -61.797  29.651  0.00  0.00    -0.233 NA
ATOM     22  C   UNK d   1      17.105 -63.930  30.892  0.00  0.00     0.051 A 
ATOM     23  C   UNK d   1      16.862 -60.508  29.982  0.00  0.00     0.063 A 
ATOM     24  C   UNK d   1      16.724 -59.305  29.119  0.00  0.00     0.073 C 
ATOM     25  C   UNK d   1      17.270 -64.499  32.133  0.00  0.00     0.005 A 
ATOM     26  C   UNK d   1      17.351 -63.649  33.213  0.00  0.00     0.018 A 
ENDBRANCH   8  17
BRANCH   2  27
ATOM     27  C   UNK d   1      15.541 -58.154  36.518  0.00  0.00     0.129 C 
BRANCH  27  28
ATOM     28  C   UNK d   1      15.320 -56.908  37.219  0.00  0.00     0.048 C 
BRANCH  28  29
ATOM     29  C   UNK d   1      16.527 -56.072  37.572  0.00  0.00     0.236 C 
BRANCH  29  30
ATOM     30  N   UNK d   1      16.205 -54.648  37.578  0.00  0.00    -0.067 N 
ATOM     31  C   UNK d   1      16.945 -53.878  36.622  0.00  0.00     0.261 C 
ATOM     32  C   UNK d   1      18.268 -53.370  37.115  0.00  0.00     0.195 C 
ATOM     33  O   UNK d   1      18.693 -53.968  38.271  0.00  0.00    -0.388 OA
ATOM     34  C   UNK d   1      17.791 -53.963  39.303  0.00  0.00     0.195 C 
ATOM     35  C   UNK d   1      16.365 -54.062  38.874  0.00  0.00     0.261 C 
ATOM     36  H   UNK d   1      15.193 -54.579  37.305  0.00  0.00     0.280 HD
ENDBRANCH  29  30
ENDBRANCH  28  29
ENDBRANCH  27  28
ENDBRANCH   2  27
TORSDOF 6
ENDMDL
