/Users/jonathanwahrer/Desktop/Msc/3_Semester/Drug_Design_Praktikum/waehrer_HTS_screening/HTS_experiment/out/docking_results/vina_output/6s1j/0362_docked.pdbqt
 OpenBabel03222221163D

 36 40  0  0  1  0  0  0  0  0999 V2000
   15.8850  -57.7570   33.9130 C   0  0  2  0  0  3  0  0  0  0  0  0
   15.3860  -58.3000   35.1070 N   0  0  0  0  0  0  0  0  0  0  0  0
   14.4060  -59.2640   34.6350 C   0  0  0  0  0  0  0  0  0  0  0  0
   13.3690  -59.6950   35.2450 O   0  0  0  0  0  0  0  0  0  0  0  0
   14.8100  -59.6830   33.2970 C   0  0  0  0  0  0  0  0  0  0  0  0
   14.2730  -60.5020   32.4840 O   0  0  0  0  0  0  0  0  0  0  0  0
   16.0370  -58.9370   33.0240 C   0  0  0  0  0  0  0  0  0  0  0  0
   17.0010  -59.2280   32.1710 C   0  0  0  0  0  0  0  0  0  0  0  0
   18.0720  -58.3590   32.0120 O   0  0  0  0  0  1  0  0  0  0  0  0
   16.9530  -56.8080   33.8680 C   0  0  0  0  0  0  0  0  0  0  0  0
   18.1000  -56.9530   34.5950 C   0  0  0  0  0  3  0  0  0  0  0  0
   19.0910  -55.9970   34.5260 C   0  0  0  0  0  3  0  0  0  0  0  0
   18.9730  -54.8710   33.7330 C   0  0  0  0  0  0  0  0  0  0  0  0
   20.3450  -53.5490   33.6370 Br  0  0  0  0  0  0  0  0  0  0  0  0
   17.8100  -54.7320   33.0000 C   0  0  0  0  0  3  0  0  0  0  0  0
   16.8320  -55.6970   33.0830 C   0  0  0  0  0  3  0  0  0  0  0  0
   17.0030  -60.4420   31.3700 C   0  0  0  0  0  0  0  0  0  0  0  0
   17.0990  -61.7130   31.7960 N   0  0  0  0  0  0  0  0  0  0  0  0
   17.0240  -62.5620   30.7450 C   0  0  0  0  0  0  0  0  0  0  0  0
   17.2640  -62.3060   33.0140 C   0  0  0  0  0  3  0  0  0  0  0  0
   16.8790  -61.7970   29.6510 N   0  0  0  0  0  0  0  0  0  0  0  0
   17.1050  -63.9300   30.8920 C   0  0  0  0  0  3  0  0  0  0  0  0
   16.8620  -60.5080   29.9820 C   0  0  0  0  0  0  0  0  0  0  0  0
   16.7240  -59.3050   29.1190 C   0  0  0  0  0  1  0  0  0  0  0  0
   17.2700  -64.4990   32.1330 C   0  0  0  0  0  3  0  0  0  0  0  0
   17.3510  -63.6490   33.2130 C   0  0  0  0  0  3  0  0  0  0  0  0
   15.5410  -58.1540   36.5180 C   0  0  0  0  0  2  0  0  0  0  0  0
   15.3200  -56.9080   37.2190 C   0  0  0  0  0  2  0  0  0  0  0  0
   16.5270  -56.0720   37.5720 C   0  0  0  0  0  2  0  0  0  0  0  0
   16.2050  -54.6480   37.5780 N   0  0  0  0  0  4  0  0  0  0  0  0
   16.9450  -53.8780   36.6220 C   0  0  0  0  0  2  0  0  0  0  0  0
   18.2680  -53.3700   37.1150 C   0  0  0  0  0  2  0  0  0  0  0  0
   18.6930  -53.9680   38.2710 O   0  0  0  0  0  0  0  0  0  0  0  0
   17.7910  -53.9630   39.3030 C   0  0  0  0  0  2  0  0  0  0  0  0
   16.3650  -54.0620   38.8740 C   0  0  0  0  0  2  0  0  0  0  0  0
   15.1930  -54.5790   37.3050 H   0  0  0  0  0  0  0  0  0  0  0  0
  1 10  1  1  0  0  0
  1  2  1  0  0  0  0
  2 27  1  0  0  0  0
  3  2  1  0  0  0  0
  3  4  2  0  0  0  0
  5  3  1  0  0  0  0
  6  5  2  0  0  0  0
  7  5  1  0  0  0  0
  7  1  1  0  0  0  0
  8  7  2  0  0  0  0
  9  8  1  0  0  0  0
 10 11  1  0  0  0  0
 12 11  2  0  0  0  0
 13 12  1  0  0  0  0
 14 13  1  0  0  0  0
 15 16  1  0  0  0  0
 15 13  2  0  0  0  0
 16 10  2  0  0  0  0
 17 18  1  0  0  0  0
 17  8  1  0  0  0  0
 18 20  1  0  0  0  0
 19 22  1  0  0  0  0
 19 18  1  0  0  0  0
 20 26  2  0  0  0  0
 21 23  1  0  0  0  0
 21 19  2  0  0  0  0
 22 25  2  0  0  0  0
 23 17  2  0  0  0  0
 24 23  1  0  0  0  0
 25 26  1  0  0  0  0
 27 28  1  0  0  0  0
 28 29  1  0  0  0  0
 29 30  1  0  0  0  0
 30 35  1  0  0  0  0
 31 32  1  0  0  0  0
 31 30  1  0  0  0  0
 32 33  1  0  0  0  0
 33 34  1  0  0  0  0
 35 34  1  0  0  0  0
 36 30  1  0  0  0  0
M  END
>  <Pose>
1

>  <Score>
-7.906

$$$$
