MODEL 1
REMARK VINA RESULT:    -9.255      0.000      0.000
REMARK INTER + INTRA:         -12.833
REMARK INTER:                 -11.960
REMARK INTRA:                  -0.873
REMARK UNBOUND:                -0.873
REMARK  5 active torsions:
REMARK  status: ('A' for Active; 'I' for Inactive)
REMARK    1  A    between atoms: C_5  and  C_8 
REMARK    2  A    between atoms: N_9  and  C_27 
REMARK    3  A    between atoms: C_15  and  C_17 
REMARK    4  A    between atoms: C_27  and  C_28 
REMARK    5  A    between atoms: C_28  and  N_29 
ROOT
ATOM      1  C   UNK d   1      16.209 -57.586  35.469  0.00  0.00     0.161 C 
ATOM      2  N   UNK d   1      14.837 -57.958  35.259  0.00  0.00    -0.331 N 
ATOM      3  C   UNK d   1      14.456 -57.477  33.982  0.00  0.00     0.295 C 
ATOM      4  O   UNK d   1      13.275 -57.438  33.533  0.00  0.00    -0.264 OA
ATOM      5  C   UNK d   1      15.650 -57.031  33.261  0.00  0.00     0.251 C 
ATOM      6  O   UNK d   1      15.711 -56.549  32.103  0.00  0.00    -0.282 OA
ATOM      7  C   UNK d   1      16.780 -57.254  34.146  0.00  0.00     0.064 C 
ATOM      8  C   UNK d   1      18.055 -57.218  33.795  0.00  0.00     0.149 C 
ATOM      9  O   UNK d   1      19.004 -57.539  34.785  0.00  0.00    -0.189 OA
ENDROOT
BRANCH   1  10
ATOM     10  C   UNK d   1      16.343 -56.457  36.430  0.00  0.00    -0.030 A 
ATOM     11  C   UNK d   1      17.029 -55.303  36.129  0.00  0.00     0.011 A 
ATOM     12  C   UNK d   1      17.173 -54.242  36.992  0.00  0.00     0.019 A 
ATOM     13  C   UNK d   1      16.610 -54.306  38.234  0.00  0.00     0.011 A 
ATOM     14 Br   UNK d   1      16.820 -52.822  39.420  0.00  0.00    -0.051 Br
ATOM     15  C   UNK d   1      15.914 -55.440  38.582  0.00  0.00     0.019 A 
ATOM     16  C   UNK d   1      15.781 -56.491  37.707  0.00  0.00     0.011 A 
ENDBRANCH   1  10
BRANCH   8  17
ATOM     17  C   UNK d   1      18.574 -56.872  32.495  0.00  0.00     0.102 A 
ATOM     18  N   UNK d   1      18.657 -57.537  31.336  0.00  0.00    -0.302 N 
ATOM     19  C   UNK d   1      19.272 -56.795  30.399  0.00  0.00     0.134 A 
ATOM     20  C   UNK d   1      18.222 -58.766  30.984  0.00  0.00     0.099 A 
ATOM     21  N   UNK d   1      19.589 -55.623  30.975  0.00  0.00    -0.233 NA
ATOM     22  C   UNK d   1      19.483 -57.225  29.094  0.00  0.00     0.051 A 
ATOM     23  C   UNK d   1      19.181 -55.634  32.245  0.00  0.00     0.063 A 
ATOM     24  C   UNK d   1      19.351 -54.513  33.211  0.00  0.00     0.073 C 
ATOM     25  C   UNK d   1      19.040 -58.470  28.743  0.00  0.00     0.005 A 
ATOM     26  C   UNK d   1      18.406 -59.236  29.704  0.00  0.00     0.018 A 
ENDBRANCH   8  17
BRANCH   2  27
ATOM     27  C   UNK d   1      13.972 -58.709  36.196  0.00  0.00     0.155 C 
BRANCH  27  28
ATOM     28  C   UNK d   1      13.462 -59.969  35.531  0.00  0.00     0.254 C 
BRANCH  28  29
ATOM     29  N   UNK d   1      12.058 -59.966  35.314  0.00  0.00    -0.077 N 
ATOM     30  C   UNK d   1      11.724 -61.164  34.543  0.00  0.00     0.269 C 
ATOM     31  C   UNK d   1      11.257 -59.947  36.499  0.00  0.00     0.269 C 
ATOM     32  H   UNK d   1      11.751 -59.147  34.718  0.00  0.00     0.279 HD
ENDBRANCH  28  29
ENDBRANCH  27  28
ENDBRANCH   2  27
TORSDOF 5
ENDMDL
