/Users/jonathanwahrer/Desktop/Msc/3_Semester/Drug_Design_Praktikum/waehrer_HTS_screening/HTS_experiment/out/docking_results/vina_output/6s1j/0382_docked.pdbqt
 OpenBabel03222221163D

 31 34  0  0  0  0  0  0  0  0999 V2000
   14.4290  -56.9430   38.5400 N   0  0  0  0  0  0  0  0  0  0  0  0
   13.2100  -57.4400   38.7510 N   0  0  0  0  0  0  0  0  0  0  0  0
   12.7900  -58.0430   37.6620 N   0  0  0  0  0  0  0  0  0  0  0  0
   13.7550  -57.9410   36.7170 C   0  0  0  0  0  0  0  0  0  0  0  0
   14.7610  -57.2580   37.2760 C   0  0  0  0  0  0  0  0  0  0  0  0
   15.7180  -57.1760   36.2860 C   0  0  0  0  0  0  0  0  0  0  0  0
   16.8280  -56.5890   36.4580 O   0  0  0  0  0  0  0  0  0  0  0  0
   15.3270  -57.7830   35.1550 N   0  0  0  0  0  0  0  0  0  0  0  0
   14.0810  -58.2700   35.4220 C   0  0  0  0  0  0  0  0  0  0  0  0
   13.4000  -58.9070   34.5730 O   0  0  0  0  0  0  0  0  0  0  0  0
   12.7060  -57.3420   39.6560 H   0  0  0  0  0  0  0  0  0  0  0  0
   11.8770  -58.5350   37.4970 H   0  0  0  0  0  0  0  0  0  0  0  0
   15.1980  -56.2100   39.5270 C   0  0  0  0  0  2  0  0  0  0  0  0
   15.7410  -54.9490   38.8770 C   0  0  0  0  0  0  0  0  0  0  0  0
   17.1230  -54.7850   38.7150 N   0  0  0  0  0  0  0  0  0  0  0  0
   17.7710  -55.5610   39.0620 H   0  0  0  0  0  0  0  0  0  0  0  0
   14.9390  -54.0700   38.4970 O   0  0  0  0  0  0  0  0  0  0  0  0
   17.7650  -53.6730   38.1240 C   0  0  0  0  0  0  0  0  0  0  0  0
   17.3770  -52.3580   38.2640 C   0  0  0  0  0  3  0  0  0  0  0  0
   18.0580  -51.2980   37.6820 C   0  0  0  0  0  3  0  0  0  0  0  0
   19.1780  -51.5260   36.9220 C   0  0  0  0  0  0  0  0  0  0  0  0
   20.1600  -50.1230   36.0980 Br  0  0  0  0  0  0  0  0  0  0  0  0
   19.5850  -52.8320   36.7680 C   0  0  0  0  0  3  0  0  0  0  0  0
   18.9170  -53.8680   37.3380 C   0  0  0  0  0  3  0  0  0  0  0  0
   16.0330  -57.9150   33.9130 C   0  0  0  0  0  0  0  0  0  0  0  0
   16.2040  -56.8340   33.0760 C   0  0  0  0  0  3  0  0  0  0  0  0
   16.8910  -56.9500   31.8840 C   0  0  0  0  0  3  0  0  0  0  0  0
   17.4390  -58.1500   31.4680 C   0  0  0  0  0  0  0  0  0  0  0  0
   17.2690  -59.2340   32.3040 C   0  0  0  0  0  3  0  0  0  0  0  0
   18.1780  -58.2400   30.1800 C   0  0  0  0  0  1  0  0  0  0  0  0
   16.5790  -59.1110   33.4990 C   0  0  0  0  0  3  0  0  0  0  0  0
  1  2  1  0  0  0  0
  1 13  1  0  0  0  0
  2 11  1  0  0  0  0
  3  2  1  0  0  0  0
  4  5  2  0  0  0  0
  4  3  1  0  0  0  0
  5  1  1  0  0  0  0
  6  7  2  0  0  0  0
  6  5  1  0  0  0  0
  8  9  1  0  0  0  0
  8  6  1  0  0  0  0
  9  4  1  0  0  0  0
 10  9  2  0  0  0  0
 12  3  1  0  0  0  0
 14 13  1  0  0  0  0
 15 14  1  0  0  0  0
 15 16  1  0  0  0  0
 17 14  2  0  0  0  0
 18 19  1  0  0  0  0
 18 15  1  0  0  0  0
 20 19  2  0  0  0  0
 21 20  1  0  0  0  0
 22 21  1  0  0  0  0
 23 21  2  0  0  0  0
 23 24  1  0  0  0  0
 24 18  2  0  0  0  0
 25  8  1  0  0  0  0
 26 25  2  0  0  0  0
 27 26  1  0  0  0  0
 28 27  2  0  0  0  0
 28 29  1  0  0  0  0
 29 31  2  0  0  0  0
 30 28  1  0  0  0  0
 31 25  1  0  0  0  0
M  END
>  <Pose>
1

>  <Score>
-10.080

$$$$
