MODEL 1
REMARK VINA RESULT:    -8.936      0.000      0.000
REMARK INTER + INTRA:         -11.337
REMARK INTER:                 -10.764
REMARK INTRA:                  -0.573
REMARK UNBOUND:                -0.573
REMARK  4 active torsions:
REMARK  status: ('A' for Active; 'I' for Inactive)
REMARK    1  A    between atoms: C_5  and  N_8 
REMARK       I    between atoms: N_8  and  C_9 
REMARK    2  A    between atoms: C_9  and  C_11 
REMARK    3  A    between atoms: C_18  and  N_23 
REMARK    4  A    between atoms: C_20  and  N_22 
ROOT
ATOM      1  C   UNK d   1      14.585 -57.335  36.321  0.00  0.00     0.127 C 
ATOM      2  C   UNK d   1      13.609 -57.459  37.453  0.00  0.00     0.122 C 
ATOM      3  C   UNK d   1      13.205 -58.836  37.763  0.00  0.00     0.224 C 
ATOM      4  O   UNK d   1      12.906 -59.109  38.958  0.00  0.00    -0.273 OA
ATOM      5  N   UNK d   1      13.161 -59.814  36.739  0.00  0.00    -0.310 N 
ATOM      6  C   UNK d   1      13.806 -59.577  35.507  0.00  0.00     0.160 A 
ATOM      7  N   UNK d   1      13.739 -60.531  34.527  0.00  0.00    -0.044 NA
ATOM      8  C   UNK d   1      14.314 -60.366  33.334  0.00  0.00     0.728 A 
ATOM      9  N   UNK d   1      14.974 -59.221  33.114  0.00  0.00    -0.045 NA
ATOM     10  C   UNK d   1      15.073 -58.239  34.057  0.00  0.00     0.151 A 
ATOM     11  C   UNK d   1      14.486 -58.384  35.299  0.00  0.00     0.048 A 
ATOM     12  H   UNK d   1      12.650 -60.735  36.870  0.00  0.00     0.170 HD
ENDROOT
BRANCH   1  13
ATOM     13  C   UNK d   1      15.977 -57.313  36.989  0.00  0.00     0.231 C 
ATOM     14  N   UNK d   1      16.709 -56.213  36.946  0.00  0.00    -0.327 N 
ATOM     15  H   UNK d   1      17.762 -56.887  37.485  0.00  0.00     0.169 HD
ATOM     16  O   UNK d   1      16.218 -58.469  37.521  0.00  0.00    -0.272 OA
BRANCH  14  17
ATOM     17  C   UNK d   1      17.469 -55.071  36.903  0.00  0.00     0.034 A 
ATOM     18  C   UNK d   1      18.020 -54.723  35.629  0.00  0.00     0.031 A 
ATOM     19  C   UNK d   1      18.723 -53.587  35.450  0.00  0.00     0.021 A 
ATOM     20  C   UNK d   1      18.945 -52.709  36.481  0.00  0.00     0.011 A 
ATOM     21 Br   UNK d   1      19.943 -51.092  36.207  0.00  0.00    -0.051 Br
ATOM     22  C   UNK d   1      18.434 -53.008  37.725  0.00  0.00     0.021 A 
ATOM     23  C   UNK d   1      17.716 -54.164  37.910  0.00  0.00     0.031 A 
ENDBRANCH  14  17
ENDBRANCH   1  13
BRANCH  10  24
ATOM     24  N   UNK d   1      15.796 -57.045  33.780  0.00  0.00    -0.383 N 
ATOM     25  H   UNK d   1      16.729 -56.852  34.157  0.00  0.00     0.157 HD
ATOM     26  H   UNK d   1      15.349 -56.321  33.161  0.00  0.00     0.157 HD
ENDBRANCH  10  24
BRANCH   8  27
ATOM     27  N   UNK d   1      14.231 -61.389  32.315  0.00  0.00    -0.210 N 
ATOM     28  C   UNK d   1      14.924 -61.149  31.098  0.00  0.00     0.167 C 
ATOM     29  C   UNK d   1      15.182 -62.381  30.279  0.00  0.00     0.188 C 
ATOM     30  O   UNK d   1      14.768 -63.543  30.922  0.00  0.00    -0.388 OA
ATOM     31  C   UNK d   1      13.459 -63.446  31.372  0.00  0.00     0.188 C 
ATOM     32  C   UNK d   1      13.460 -62.580  32.605  0.00  0.00     0.167 C 
ENDBRANCH   8  27
TORSDOF 4
ENDMDL
