MODEL 1
REMARK VINA RESULT:    -9.248      0.000      0.000
REMARK INTER + INTRA:         -12.256
REMARK INTER:                 -11.681
REMARK INTRA:                  -0.575
REMARK UNBOUND:                -0.575
REMARK  5 active torsions:
REMARK  status: ('A' for Active; 'I' for Inactive)
REMARK    1  A    between atoms: C_5  and  N_8 
REMARK    2  A    between atoms: C_9  and  C_11 
REMARK    3  A    between atoms: C_18  and  N_23 
REMARK    4  A    between atoms: C_20  and  O_22 
REMARK    5  A    between atoms: C_26  and  C_29 
REMARK       I    between atoms: C_29  and  N_31 
ROOT
ATOM      1  C   UNK d   1      16.385 -58.173  33.446  0.00  0.00     0.113 C 
ATOM      2  C   UNK d   1      17.175 -58.358  32.164  0.00  0.00     0.121 C 
ATOM      3  C   UNK d   1      17.214 -57.041  31.458  0.00  0.00     0.224 C 
ATOM      4  O   UNK d   1      16.936 -56.959  30.275  0.00  0.00    -0.273 OA
ATOM      5  N   UNK d   1      17.586 -55.930  32.228  0.00  0.00    -0.310 N 
ATOM      6  C   UNK d   1      17.466 -55.952  33.637  0.00  0.00     0.160 A 
ATOM      7  N   UNK d   1      17.911 -54.930  34.395  0.00  0.00    -0.044 NA
ATOM      8  C   UNK d   1      17.921 -54.906  35.729  0.00  0.00     0.729 A 
ATOM      9  N   UNK d   1      17.436 -56.024  36.327  0.00  0.00    -0.038 NA
ATOM     10  C   UNK d   1      16.969 -57.090  35.628  0.00  0.00     0.192 A 
ATOM     11  C   UNK d   1      16.954 -57.111  34.267  0.00  0.00     0.054 A 
ATOM     12  H   UNK d   1      17.970 -55.043  31.805  0.00  0.00     0.170 HD
ENDROOT
BRANCH   1  13
ATOM     13  C   UNK d   1      15.954 -59.447  34.083  0.00  0.00     0.165 C 
ATOM     14  N   UNK d   1      14.790 -59.561  34.752  0.00  0.00    -0.338 N 
ATOM     15  H   UNK d   1      14.990 -60.887  34.890  0.00  0.00     0.168 HD
ATOM     16  O   UNK d   1      16.856 -60.367  33.875  0.00  0.00    -0.176 OA
BRANCH  14  17
ATOM     17  C   UNK d   1      13.605 -59.679  35.434  0.00  0.00     0.033 A 
ATOM     18  C   UNK d   1      13.579 -58.988  36.688  0.00  0.00     0.031 A 
ATOM     19  C   UNK d   1      12.467 -59.113  37.452  0.00  0.00     0.021 A 
ATOM     20  C   UNK d   1      11.369 -59.869  37.080  0.00  0.00     0.011 A 
ATOM     21 Br   UNK d   1       9.867 -59.975  38.226  0.00  0.00    -0.051 Br
ATOM     22  C   UNK d   1      11.379 -60.535  35.887  0.00  0.00     0.021 A 
ATOM     23  C   UNK d   1      12.499 -60.422  35.095  0.00  0.00     0.031 A 
ENDBRANCH  14  17
ENDBRANCH   1  13
BRANCH  10  24
ATOM     24  O   UNK d   1      16.491 -58.199  36.322  0.00  0.00    -0.344 OA
ATOM     25  H   UNK d   1      15.530 -58.523  36.235  0.00  0.00     0.219 HD
ENDBRANCH  10  24
BRANCH   8  26
ATOM     26  N   UNK d   1      18.347 -53.799  36.501  0.00  0.00    -0.214 N 
ATOM     27  C   UNK d   1      17.739 -52.495  36.541  0.00  0.00     0.142 C 
ATOM     28  C   UNK d   1      17.788 -51.988  37.979  0.00  0.00     0.034 C 
ATOM     29  C   UNK d   1      17.752 -53.108  38.977  0.00  0.00     0.081 C 
ATOM     30  C   UNK d   1      18.903 -54.035  38.801  0.00  0.00     0.034 C 
ATOM     31  C   UNK d   1      19.510 -53.956  37.381  0.00  0.00     0.142 C 
BRANCH  29  32
ATOM     32  C   UNK d   1      16.444 -53.803  38.984  0.00  0.00     0.219 C 
ATOM     33  O   UNK d   1      15.416 -53.105  39.104  0.00  0.00    -0.273 OA
ATOM     34  N   UNK d   1      16.296 -55.203  38.870  0.00  0.00    -0.370 N 
ATOM     35  H   UNK d   1      16.914 -55.785  38.275  0.00  0.00     0.159 HD
ATOM     36  H   UNK d   1      15.536 -55.670  39.407  0.00  0.00     0.159 HD
ENDBRANCH  29  32
ENDBRANCH   8  26
TORSDOF 5
ENDMDL
