MODEL 1
REMARK VINA RESULT:    -8.586      0.000      0.000
REMARK INTER + INTRA:         -10.704
REMARK INTER:                 -10.091
REMARK INTRA:                  -0.612
REMARK UNBOUND:                -0.612
REMARK  3 active torsions:
REMARK  status: ('A' for Active; 'I' for Inactive)
REMARK    1  A    between atoms: C_5  and  N_8 
REMARK    2  A    between atoms: C_11  and  C_18 
REMARK    3  A    between atoms: C_12  and  N_13 
REMARK       I    between atoms: C_18  and  N_20 
ROOT
ATOM      1  N   UNK d   1      17.239 -56.267  35.849  0.00  0.00    -0.216 N 
ATOM      2  N   UNK d   1      16.603 -56.860  36.829  0.00  0.00    -0.177 NA
ATOM      3  C   UNK d   1      16.061 -58.035  36.454  0.00  0.00     0.160 A 
ATOM      4  C   UNK d   1      16.383 -58.192  35.134  0.00  0.00     0.097 A 
ATOM      5  C   UNK d   1      17.117 -57.080  34.780  0.00  0.00     0.153 A 
ENDROOT
BRANCH   4   6
ATOM      6  C   UNK d   1      16.004 -59.330  34.305  0.00  0.00     0.259 C 
ATOM      7  O   UNK d   1      16.943 -60.021  33.841  0.00  0.00    -0.267 OA
ATOM      8  N   UNK d   1      14.666 -59.671  34.014  0.00  0.00    -0.338 N 
ATOM      9  C   UNK d   1      14.399 -60.818  33.181  0.00  0.00     0.146 C 
ATOM     10  C   UNK d   1      13.503 -58.954  34.488  0.00  0.00     0.228 C 
ATOM     11  C   UNK d   1      13.729 -61.859  34.028  0.00  0.00     0.142 C 
ATOM     12  N   UNK d   1      13.106 -61.286  35.216  0.00  0.00    -0.358 N 
ATOM     13  C   UNK d   1      12.719 -59.919  35.294  0.00  0.00     0.235 C 
ATOM     14  H   UNK d   1      12.946 -61.933  36.045  0.00  0.00     0.162 HD
ATOM     15  O   UNK d   1      11.753 -59.584  36.022  0.00  0.00    -0.272 OA
ENDBRANCH   4   6
BRANCH   5  16
ATOM     16  N   UNK d   1      17.675 -56.808  33.474  0.00  0.00    -0.317 N 
ATOM     17  C   UNK d   1      17.165 -56.070  32.499  0.00  0.00     0.098 A 
ATOM     18  C   UNK d   1      18.006 -56.060  31.411  0.00  0.00     0.019 A 
ATOM     19  C   UNK d   1      19.076 -56.844  31.771  0.00  0.00     0.019 A 
ATOM     20  C   UNK d   1      18.852 -57.297  33.052  0.00  0.00     0.098 A 
ENDBRANCH   5  16
BRANCH   1  21
ATOM     21  C   UNK d   1      17.916 -55.010  35.935  0.00  0.00     0.060 A 
ATOM     22  C   UNK d   1      19.186 -54.826  35.422  0.00  0.00     0.033 A 
ATOM     23  C   UNK d   1      19.860 -53.623  35.492  0.00  0.00     0.021 A 
ATOM     24  C   UNK d   1      19.261 -52.539  36.099  0.00  0.00     0.011 A 
ATOM     25 Br   UNK d   1      20.175 -50.862  36.209  0.00  0.00    -0.051 Br
ATOM     26  C   UNK d   1      17.991 -52.705  36.620  0.00  0.00     0.021 A 
ATOM     27  C   UNK d   1      17.330 -53.914  36.541  0.00  0.00     0.033 A 
ENDBRANCH   1  21
TORSDOF 3
ENDMDL
