MODEL 1
REMARK VINA RESULT:    -8.991      0.000      0.000
REMARK INTER + INTRA:         -11.068
REMARK INTER:                 -10.568
REMARK INTRA:                  -0.500
REMARK UNBOUND:                -0.500
REMARK  3 active torsions:
REMARK  status: ('A' for Active; 'I' for Inactive)
REMARK    1  A    between atoms: C_5  and  N_8 
REMARK    2  A    between atoms: C_11  and  N_15 
REMARK    3  A    between atoms: N_18  and  C_21 
ROOT
ATOM      1  N   UNK d   1      17.758 -56.770  33.990  0.00  0.00    -0.251 N 
ATOM      2  C   UNK d   1      17.226 -57.937  34.608  0.00  0.00     0.262 C 
ATOM      3  O   UNK d   1      17.133 -58.116  35.841  0.00  0.00    -0.270 OA
ATOM      4  C   UNK d   1      16.792 -58.921  33.605  0.00  0.00     0.289 C 
ATOM      5  C   UNK d   1      17.634 -58.533  32.395  0.00  0.00     0.146 C 
ATOM      6  C   UNK d   1      17.802 -57.057  32.579  0.00  0.00     0.233 C 
ATOM      7  O   UNK d   1      17.949 -56.300  31.602  0.00  0.00    -0.273 OA
ENDROOT
BRANCH   4   8
ATOM      8  N   UNK d   1      15.386 -58.883  33.272  0.00  0.00    -0.055 N 
ATOM      9  C   UNK d   1      14.782 -60.194  33.280  0.00  0.00     0.255 C 
ATOM     10  C   UNK d   1      14.046 -60.533  34.558  0.00  0.00     0.150 C 
ATOM     11  N   UNK d   1      13.297 -59.405  35.048  0.00  0.00    -0.378 N 
ATOM     12  C   UNK d   1      13.206 -58.300  34.123  0.00  0.00     0.150 C 
ATOM     13  C   UNK d   1      14.668 -57.853  33.931  0.00  0.00     0.255 C 
ATOM     14  H   UNK d   1      15.385 -58.615  32.229  0.00  0.00     0.281 HD
BRANCH  11  15
ATOM     15  C   UNK d   1      12.713 -59.348  36.318  0.00  0.00     0.030 A 
ATOM     16  C   UNK d   1      13.316 -58.848  37.455  0.00  0.00     0.032 A 
ATOM     17  C   UNK d   1      12.699 -58.838  38.696  0.00  0.00     0.042 A 
ATOM     18  C   UNK d   1      11.433 -59.339  38.837  0.00  0.00     0.107 A 
ATOM     19  C   UNK d   1      10.783 -59.852  37.732  0.00  0.00     0.042 A 
ATOM     20  O   UNK d   1      10.756 -59.358  40.057  0.00  0.00    -0.192 OA
ATOM     21  C   UNK d   1      11.420 -59.851  36.504  0.00  0.00     0.032 A 
ENDBRANCH  11  15
ENDBRANCH   4   8
BRANCH   1  22
ATOM     22  C   UNK d   1      18.173 -55.542  34.592  0.00  0.00     0.045 A 
ATOM     23  C   UNK d   1      19.463 -55.103  34.506  0.00  0.00     0.031 A 
ATOM     24  C   UNK d   1      19.865 -53.901  35.098  0.00  0.00     0.021 A 
ATOM     25  C   UNK d   1      18.982 -53.115  35.787  0.00  0.00     0.011 A 
ATOM     26 Br   UNK d   1      19.523 -51.468  36.600  0.00  0.00    -0.051 Br
ATOM     27  C   UNK d   1      17.680 -53.553  35.875  0.00  0.00     0.021 A 
ATOM     28  C   UNK d   1      17.288 -54.761  35.278  0.00  0.00     0.031 A 
ENDBRANCH   1  22
TORSDOF 3
ENDMDL
