MODEL 1
REMARK VINA RESULT:    -9.296      0.000      0.000
REMARK INTER + INTRA:         -12.336
REMARK INTER:                 -11.470
REMARK INTRA:                  -0.866
REMARK UNBOUND:                -0.866
REMARK  4 active torsions:
REMARK  status: ('A' for Active; 'I' for Inactive)
REMARK    1  A    between atoms: C_5  and  N_8 
REMARK    2  A    between atoms: C_11  and  N_15 
REMARK    3  A    between atoms: C_18  and  N_21 
REMARK    4  A    between atoms: C_18  and  C_27 
REMARK       I    between atoms: C_27  and  N_29 
ROOT
ATOM      1  N   UNK d   1      18.861 -55.799  33.688  0.00  0.00    -0.399 N 
ATOM      2  C   UNK d   1      19.220 -55.991  35.035  0.00  0.00     0.120 C 
ATOM      3  C   UNK d   1      19.871 -54.703  35.556  0.00  0.00     0.060 C 
ATOM      4  C   UNK d   1      18.867 -53.574  35.629  0.00  0.00     0.112 C 
ATOM      5  C   UNK d   1      17.998 -53.606  34.437  0.00  0.00     0.060 C 
ATOM      6  C   UNK d   1      18.576 -54.460  33.337  0.00  0.00     0.120 C 
ENDROOT
BRANCH   1   7
ATOM      7  C   UNK d   1      18.136 -56.801  33.016  0.00  0.00     0.181 C 
ATOM      8  C   UNK d   1      16.741 -56.836  33.527  0.00  0.00     0.254 C 
ATOM      9  N   UNK d   1      16.574 -58.061  34.250  0.00  0.00    -0.251 N 
ATOM     10  O   UNK d   1      15.889 -55.935  33.340  0.00  0.00    -0.270 OA
ATOM     11  C   UNK d   1      17.520 -58.959  33.682  0.00  0.00     0.233 C 
ATOM     12  C   UNK d   1      18.697 -58.194  33.190  0.00  0.00     0.138 C 
ATOM     13  O   UNK d   1      17.362 -60.229  33.617  0.00  0.00    -0.273 OA
BRANCH   9  14
ATOM     14  C   UNK d   1      15.648 -58.310  35.310  0.00  0.00     0.045 A 
ATOM     15  C   UNK d   1      16.063 -58.232  36.613  0.00  0.00     0.031 A 
ATOM     16  C   UNK d   1      15.170 -58.471  37.665  0.00  0.00     0.021 A 
ATOM     17  C   UNK d   1      13.852 -58.791  37.438  0.00  0.00     0.011 A 
ATOM     18 Br   UNK d   1      12.624 -59.119  38.867  0.00  0.00    -0.051 Br
ATOM     19  C   UNK d   1      13.434 -58.869  36.127  0.00  0.00     0.021 A 
ATOM     20  C   UNK d   1      14.327 -58.630  35.094  0.00  0.00     0.031 A 
ENDBRANCH   9  14
ENDBRANCH   1   7
BRANCH   4  21
ATOM     21  N   UNK d   1      18.231 -53.625  36.880  0.00  0.00    -0.396 N 
ATOM     22  C   UNK d   1      16.833 -53.538  36.932  0.00  0.00     0.118 C 
ATOM     23  C   UNK d   1      16.496 -52.373  37.879  0.00  0.00     0.019 C 
ATOM     24  C   UNK d   1      16.982 -52.803  39.248  0.00  0.00     0.003 C 
ATOM     25  C   UNK d   1      17.942 -53.946  39.206  0.00  0.00     0.019 C 
ATOM     26  C   UNK d   1      18.942 -53.842  38.045  0.00  0.00     0.118 C 
ENDBRANCH   4  21
BRANCH   4  27
ATOM     27  C   UNK d   1      19.685 -52.310  35.583  0.00  0.00     0.243 C 
ATOM     28  O   UNK d   1      20.509 -52.126  34.636  0.00  0.00    -0.271 OA
ATOM     29  N   UNK d   1      19.583 -51.293  36.561  0.00  0.00    -0.368 N 
ATOM     30  H   UNK d   1      20.399 -51.059  37.139  0.00  0.00     0.159 HD
ATOM     31  H   UNK d   1      18.695 -50.776  36.703  0.00  0.00     0.159 HD
ENDBRANCH   4  27
TORSDOF 4
ENDMDL
