/Users/jonathanwahrer/Desktop/Msc/3_Semester/Drug_Design_Praktikum/waehrer_HTS_screening/HTS_experiment/out/docking_results/vina_output/6s1j/0400_docked.pdbqt
 OpenBabel03222221183D

 31 34  0  0  1  0  0  0  0  0999 V2000
   18.8610  -55.7990   33.6880 N   0  0  2  0  0  0  0  0  0  0  0  0
   19.2200  -55.9910   35.0350 C   0  0  0  0  0  2  0  0  0  0  0  0
   19.8710  -54.7030   35.5560 C   0  0  0  0  0  2  0  0  0  0  0  0
   18.8670  -53.5740   35.6290 C   0  0  1  0  0  0  0  0  0  0  0  0
   17.9980  -53.6060   34.4370 C   0  0  0  0  0  2  0  0  0  0  0  0
   18.5760  -54.4600   33.3370 C   0  0  0  0  0  2  0  0  0  0  0  0
   18.1360  -56.8010   33.0160 C   0  0  2  0  0  3  0  0  0  0  0  0
   16.7410  -56.8360   33.5270 C   0  0  0  0  0  0  0  0  0  0  0  0
   16.5740  -58.0610   34.2500 N   0  0  0  0  0  0  0  0  0  0  0  0
   15.8890  -55.9350   33.3400 O   0  0  0  0  0  0  0  0  0  0  0  0
   17.5200  -58.9590   33.6820 C   0  0  0  0  0  0  0  0  0  0  0  0
   18.6970  -58.1940   33.1900 C   0  0  0  0  0  2  0  0  0  0  0  0
   17.3620  -60.2290   33.6170 O   0  0  0  0  0  0  0  0  0  0  0  0
   15.6480  -58.3100   35.3100 C   0  0  0  0  0  0  0  0  0  0  0  0
   16.0630  -58.2320   36.6130 C   0  0  0  0  0  3  0  0  0  0  0  0
   15.1700  -58.4710   37.6650 C   0  0  0  0  0  3  0  0  0  0  0  0
   13.8520  -58.7910   37.4380 C   0  0  0  0  0  0  0  0  0  0  0  0
   12.6240  -59.1190   38.8670 Br  0  0  0  0  0  0  0  0  0  0  0  0
   13.4340  -58.8690   36.1270 C   0  0  0  0  0  3  0  0  0  0  0  0
   14.3270  -58.6300   35.0940 C   0  0  0  0  0  3  0  0  0  0  0  0
   18.2310  -53.6250   36.8800 N   0  0  0  0  0  0  0  0  0  0  0  0
   16.8330  -53.5380   36.9320 C   0  0  0  0  0  2  0  0  0  0  0  0
   16.4960  -52.3730   37.8790 C   0  0  0  0  0  2  0  0  0  0  0  0
   16.9820  -52.8030   39.2480 C   0  0  0  0  0  2  0  0  0  0  0  0
   17.9420  -53.9460   39.2060 C   0  0  0  0  0  2  0  0  0  0  0  0
   18.9420  -53.8420   38.0450 C   0  0  0  0  0  2  0  0  0  0  0  0
   19.6850  -52.3100   35.5830 C   0  0  0  0  0  0  0  0  0  0  0  0
   20.5090  -52.1260   34.6360 O   0  0  0  0  0  0  0  0  0  0  0  0
   19.5830  -51.2930   36.5610 N   0  0  0  0  0  0  0  0  0  0  0  0
   20.3990  -51.0590   37.1390 H   0  0  0  0  0  0  0  0  0  0  0  0
   18.6950  -50.7760   36.7030 H   0  0  0  0  0  0  0  0  0  0  0  0
  1  6  1  1  0  0  0
  1  2  1  0  0  0  0
  2  3  1  0  0  0  0
  3  4  1  0  0  0  0
  4 27  1  6  0  0  0
  4 21  1  0  0  0  0
  5  4  1  0  0  0  0
  6  5  1  0  0  0  0
  7 12  1  1  0  0  0
  7  8  1  0  0  0  0
  7  1  1  0  0  0  0
  8  9  1  0  0  0  0
  9 14  1  0  0  0  0
 10  8  2  0  0  0  0
 11  9  1  0  0  0  0
 12 11  1  0  0  0  0
 13 11  2  0  0  0  0
 14 15  1  0  0  0  0
 15 16  2  0  0  0  0
 17 16  1  0  0  0  0
 17 18  1  0  0  0  0
 19 17  2  0  0  0  0
 20 14  2  0  0  0  0
 20 19  1  0  0  0  0
 21 22  1  0  0  0  0
 21 26  1  0  0  0  0
 22 23  1  0  0  0  0
 23 24  1  0  0  0  0
 25 24  1  0  0  0  0
 26 25  1  0  0  0  0
 27 29  1  0  0  0  0
 28 27  2  0  0  0  0
 29 31  1  0  0  0  0
 29 30  1  0  0  0  0
M  END
>  <Pose>
1

>  <Score>
-9.296

$$$$
