/Users/jonathanwahrer/Desktop/Msc/3_Semester/Drug_Design_Praktikum/waehrer_HTS_screening/HTS_experiment/out/docking_results/vina_output/6s1j/0408_docked.pdbqt
 OpenBabel03222221183D

 31 34  0  0  0  0  0  0  0  0999 V2000
   13.1760  -59.3210   37.0590 N   0  0  0  0  0  0  0  0  0  0  0  0
   14.4290  -58.8510   36.9320 C   0  0  0  0  0  0  0  0  0  0  0  0
   15.2670  -58.8140   37.8850 O   0  0  0  0  0  0  0  0  0  0  0  0
   14.6710  -58.4180   35.6280 C   0  0  0  0  0  0  0  0  0  0  0  0
   13.5390  -58.6370   34.9670 C   0  0  0  0  0  0  0  0  0  0  0  0
   13.7950  -58.2130   33.7160 N   0  0  0  0  0  0  0  0  0  0  0  0
   15.0340  -57.7580   33.6290 N   0  0  0  0  0  0  0  0  0  0  0  0
   15.5870  -57.8820   34.8110 N   0  0  0  0  0  0  0  0  0  0  0  0
   12.6180  -59.1890   35.8340 C   0  0  0  0  0  0  0  0  0  0  0  0
   11.4430  -59.5280   35.5730 O   0  0  0  0  0  0  0  0  0  0  0  0
   13.0640  -58.2660   32.9610 H   0  0  0  0  0  0  0  0  0  0  0  0
   15.4420  -57.3800   32.7440 H   0  0  0  0  0  0  0  0  0  0  0  0
   16.9280  -57.5160   35.1910 C   0  0  0  0  0  2  0  0  0  0  0  0
   17.0400  -56.0540   35.5090 C   0  0  0  0  0  0  0  0  0  0  0  0
   16.8570  -55.2940   34.5280 O   0  0  0  0  0  0  0  0  0  0  0  0
   17.3240  -55.5830   36.7940 N   0  0  0  0  0  0  0  0  0  0  0  0
   17.4550  -56.3550   37.5300 H   0  0  0  0  0  0  0  0  0  0  0  0
   17.4510  -54.2490   37.1990 C   0  0  0  0  0  0  0  0  0  0  0  0
   16.5100  -53.7670   38.1230 C   0  0  0  0  0  0  0  0  0  0  0  0
   16.5960  -52.4660   38.5490 C   0  0  0  0  0  3  0  0  0  0  0  0
   15.4320  -54.6300   38.6450 C   0  0  0  0  0  1  0  0  0  0  0  0
   17.5730  -51.5980   38.1090 C   0  0  0  0  0  3  0  0  0  0  0  0
   18.4900  -52.0580   37.2120 C   0  0  0  0  0  3  0  0  0  0  0  0
   18.4130  -53.3650   36.7770 C   0  0  0  0  0  3  0  0  0  0  0  0
   12.5630  -59.8480   38.2320 C   0  0  0  0  0  0  0  0  0  0  0  0
   12.3080  -61.2040   38.3440 C   0  0  0  0  0  3  0  0  0  0  0  0
   11.7150  -61.7370   39.4730 C   0  0  0  0  0  3  0  0  0  0  0  0
   11.3510  -60.9360   40.5340 C   0  0  0  0  0  0  0  0  0  0  0  0
   10.5270  -61.6800   42.1000 Br  0  0  0  0  0  0  0  0  0  0  0  0
   11.6000  -59.5860   40.4330 C   0  0  0  0  0  3  0  0  0  0  0  0
   12.1920  -59.0640   39.3060 C   0  0  0  0  0  3  0  0  0  0  0  0
  1 25  1  0  0  0  0
  2  1  1  0  0  0  0
  2  3  2  0  0  0  0
  4  2  1  0  0  0  0
  5  4  2  0  0  0  0
  5  9  1  0  0  0  0
  6  5  1  0  0  0  0
  7  6  1  0  0  0  0
  7  8  1  0  0  0  0
  8 13  1  0  0  0  0
  8  4  1  0  0  0  0
  9  1  1  0  0  0  0
 10  9  2  0  0  0  0
 11  6  1  0  0  0  0
 12  7  1  0  0  0  0
 13 14  1  0  0  0  0
 14 16  1  0  0  0  0
 15 14  2  0  0  0  0
 16 18  1  0  0  0  0
 16 17  1  0  0  0  0
 18 19  1  0  0  0  0
 19 20  2  0  0  0  0
 19 21  1  0  0  0  0
 22 20  1  0  0  0  0
 23 22  2  0  0  0  0
 24 18  2  0  0  0  0
 24 23  1  0  0  0  0
 25 26  2  0  0  0  0
 25 31  1  0  0  0  0
 26 27  1  0  0  0  0
 27 28  2  0  0  0  0
 28 29  1  0  0  0  0
 30 28  1  0  0  0  0
 31 30  2  0  0  0  0
M  END
>  <Pose>
1

>  <Score>
-9.847

$$$$
