MODEL 1
REMARK VINA RESULT:    -8.873      0.000      0.000
REMARK INTER + INTRA:         -13.868
REMARK INTER:                 -12.504
REMARK INTRA:                  -1.364
REMARK UNBOUND:                -1.364
REMARK  7 active torsions:
REMARK  status: ('A' for Active; 'I' for Inactive)
REMARK    1  A    between atoms: C_5  and  N_8 
REMARK    2  A    between atoms: N_15  and  C_16 
REMARK    3  A    between atoms: C_16  and  C_17 
REMARK       I    between atoms: C_17  and  N_19 
REMARK    4  A    between atoms: N_19  and  C_20 
REMARK    5  A    between atoms: C_23  and  C_26 
REMARK    6  A    between atoms: C_26  and  O_28 
REMARK    7  A    between atoms: O_28  and  C_29 
ROOT
ATOM      1  N   UNK d   1      15.050 -60.242  33.873  0.00  0.00    -0.241 N 
ATOM      2  C   UNK d   1      15.539 -59.238  33.102  0.00  0.00     0.286 A 
ATOM      3  O   UNK d   1      15.174 -58.021  33.136  0.00  0.00    -0.265 OA
ATOM      4  C   UNK d   1      16.512 -59.737  32.253  0.00  0.00     0.155 A 
ATOM      5  C   UNK d   1      16.594 -61.036  32.528  0.00  0.00     0.152 A 
ATOM      6  N   UNK d   1      17.542 -61.550  31.709  0.00  0.00    -0.279 N 
ATOM      7  N   UNK d   1      18.008 -60.552  30.964  0.00  0.00    -0.239 N 
ATOM      8  N   UNK d   1      17.398 -59.423  31.270  0.00  0.00    -0.261 N 
ATOM      9  C   UNK d   1      15.700 -61.360  33.521  0.00  0.00     0.286 A 
ATOM     10  O   UNK d   1      15.508 -62.488  34.026  0.00  0.00    -0.265 OA
ATOM     11  H   UNK d   1      17.842 -62.546  31.680  0.00  0.00     0.189 HD
ATOM     12  H   UNK d   1      18.746 -60.654  30.246  0.00  0.00     0.208 HD
ENDROOT
BRANCH   8  13
ATOM     13  C   UNK d   1      17.589 -58.089  30.713  0.00  0.00     0.254 C 
BRANCH  13  14
ATOM     14  C   UNK d   1      18.289 -57.225  31.732  0.00  0.00     0.242 C 
ATOM     15  O   UNK d   1      19.442 -57.641  32.006  0.00  0.00    -0.271 OA
ATOM     16  N   UNK d   1      17.645 -56.105  32.255  0.00  0.00    -0.326 N 
ATOM     17  H   UNK d   1      16.658 -55.926  31.884  0.00  0.00     0.169 HD
BRANCH  16  18
ATOM     18  C   UNK d   1      18.152 -55.192  33.212  0.00  0.00     0.034 A 
ATOM     19  C   UNK d   1      19.366 -54.552  33.131  0.00  0.00     0.030 A 
ATOM     20  C   UNK d   1      19.798 -53.660  34.122  0.00  0.00     0.020 A 
ATOM     21  C   UNK d   1      19.024 -53.386  35.224  0.00  0.00     0.039 A 
ATOM     22  C   UNK d   1      17.809 -54.020  35.315  0.00  0.00     0.020 A 
ATOM     23  C   UNK d   1      17.385 -54.898  34.337  0.00  0.00     0.030 A 
BRANCH  21  24
ATOM     24  C   UNK d   1      19.515 -52.451  36.231  0.00  0.00     0.293 C 
ATOM     25  O   UNK d   1      20.508 -51.737  35.942  0.00  0.00    -0.259 OA
BRANCH  24  26
ATOM     26  O   UNK d   1      18.967 -52.296  37.474  0.00  0.00    -0.318 OA
BRANCH  26  27
ATOM     27  C   UNK d   1      17.906 -51.449  37.812  0.00  0.00     0.174 C 
ATOM     28  C   UNK d   1      16.894 -52.307  38.585  0.00  0.00     0.034 C 
ENDBRANCH  26  27
ENDBRANCH  24  26
ENDBRANCH  21  24
ENDBRANCH  16  18
ENDBRANCH  13  14
ENDBRANCH   8  13
BRANCH   1  29
ATOM     29  C   UNK d   1      14.031 -60.060  34.853  0.00  0.00     0.046 A 
ATOM     30  C   UNK d   1      12.751 -60.531  34.604  0.00  0.00     0.031 A 
ATOM     31  C   UNK d   1      11.754 -60.375  35.517  0.00  0.00     0.021 A 
ATOM     32  C   UNK d   1      11.968 -59.746  36.725  0.00  0.00     0.011 A 
ATOM     33 Br   UNK d   1      10.605 -59.507  38.030  0.00  0.00    -0.051 Br
ATOM     34  C   UNK d   1      13.245 -59.284  36.960  0.00  0.00     0.021 A 
ATOM     35  C   UNK d   1      14.258 -59.433  36.051  0.00  0.00     0.031 A 
ENDBRANCH   1  29
TORSDOF 7
ENDMDL
