/Users/jonathanwahrer/Desktop/Msc/3_Semester/Drug_Design_Praktikum/waehrer_HTS_screening/HTS_experiment/out/docking_results/vina_output/6s1j/0414_docked.pdbqt
 OpenBabel03222221193D

 35 38  0  0  0  0  0  0  0  0999 V2000
   15.0500  -60.2420   33.8730 N   0  0  0  0  0  0  0  0  0  0  0  0
   15.5390  -59.2380   33.1020 C   0  0  0  0  0  0  0  0  0  0  0  0
   15.1740  -58.0210   33.1360 O   0  0  0  0  0  0  0  0  0  0  0  0
   16.5120  -59.7370   32.2530 C   0  0  0  0  0  0  0  0  0  0  0  0
   16.5940  -61.0360   32.5280 C   0  0  0  0  0  0  0  0  0  0  0  0
   17.5420  -61.5500   31.7090 N   0  0  0  0  0  0  0  0  0  0  0  0
   18.0080  -60.5520   30.9640 N   0  0  0  0  0  0  0  0  0  0  0  0
   17.3980  -59.4230   31.2700 N   0  0  0  0  0  0  0  0  0  0  0  0
   15.7000  -61.3600   33.5210 C   0  0  0  0  0  0  0  0  0  0  0  0
   15.5080  -62.4880   34.0260 O   0  0  0  0  0  0  0  0  0  0  0  0
   17.8420  -62.5460   31.6800 H   0  0  0  0  0  0  0  0  0  0  0  0
   18.7460  -60.6540   30.2460 H   0  0  0  0  0  0  0  0  0  0  0  0
   17.5890  -58.0890   30.7130 C   0  0  0  0  0  2  0  0  0  0  0  0
   18.2890  -57.2250   31.7320 C   0  0  0  0  0  0  0  0  0  0  0  0
   19.4420  -57.6410   32.0060 O   0  0  0  0  0  0  0  0  0  0  0  0
   17.6450  -56.1050   32.2550 N   0  0  0  0  0  0  0  0  0  0  0  0
   16.6580  -55.9260   31.8840 H   0  0  0  0  0  0  0  0  0  0  0  0
   18.1520  -55.1920   33.2120 C   0  0  0  0  0  0  0  0  0  0  0  0
   19.3660  -54.5520   33.1310 C   0  0  0  0  0  3  0  0  0  0  0  0
   19.7980  -53.6600   34.1220 C   0  0  0  0  0  3  0  0  0  0  0  0
   19.0240  -53.3860   35.2240 C   0  0  0  0  0  0  0  0  0  0  0  0
   17.8090  -54.0200   35.3150 C   0  0  0  0  0  3  0  0  0  0  0  0
   17.3850  -54.8980   34.3370 C   0  0  0  0  0  3  0  0  0  0  0  0
   19.5150  -52.4510   36.2310 C   0  0  0  0  0  0  0  0  0  0  0  0
   20.5080  -51.7370   35.9420 O   0  0  0  0  0  0  0  0  0  0  0  0
   18.9670  -52.2960   37.4740 O   0  0  0  0  0  0  0  0  0  0  0  0
   17.9060  -51.4490   37.8120 C   0  0  0  0  0  2  0  0  0  0  0  0
   16.8940  -52.3070   38.5850 C   0  0  0  0  0  1  0  0  0  0  0  0
   14.0310  -60.0600   34.8530 C   0  0  0  0  0  0  0  0  0  0  0  0
   12.7510  -60.5310   34.6040 C   0  0  0  0  0  3  0  0  0  0  0  0
   11.7540  -60.3750   35.5170 C   0  0  0  0  0  3  0  0  0  0  0  0
   11.9680  -59.7460   36.7250 C   0  0  0  0  0  0  0  0  0  0  0  0
   10.6050  -59.5070   38.0300 Br  0  0  0  0  0  0  0  0  0  0  0  0
   13.2450  -59.2840   36.9600 C   0  0  0  0  0  3  0  0  0  0  0  0
   14.2580  -59.4330   36.0510 C   0  0  0  0  0  3  0  0  0  0  0  0
  1 29  1  0  0  0  0
  2  3  2  0  0  0  0
  2  1  1  0  0  0  0
  4  5  2  0  0  0  0
  4  2  1  0  0  0  0
  5  9  1  0  0  0  0
  6  5  1  0  0  0  0
  7  8  1  0  0  0  0
  7  6  1  0  0  0  0
  8  4  1  0  0  0  0
  9  1  1  0  0  0  0
  9 10  2  0  0  0  0
 11  6  1  0  0  0  0
 12  7  1  0  0  0  0
 13  8  1  0  0  0  0
 13 14  1  0  0  0  0
 14 15  2  0  0  0  0
 14 16  1  0  0  0  0
 16 18  1  0  0  0  0
 17 16  1  0  0  0  0
 18 23  1  0  0  0  0
 19 18  2  0  0  0  0
 19 20  1  0  0  0  0
 20 21  2  0  0  0  0
 21 22  1  0  0  0  0
 21 24  1  0  0  0  0
 23 22  2  0  0  0  0
 24 26  1  0  0  0  0
 25 24  2  0  0  0  0
 26 27  1  0  0  0  0
 27 28  1  0  0  0  0
 29 35  1  0  0  0  0
 30 29  2  0  0  0  0
 30 31  1  0  0  0  0
 31 32  2  0  0  0  0
 32 34  1  0  0  0  0
 32 33  1  0  0  0  0
 35 34  2  0  0  0  0
M  END
>  <Pose>
1

>  <Score>
-8.873

$$$$
