MODEL 1
REMARK VINA RESULT:    -8.945      0.000      0.000
REMARK INTER + INTRA:         -13.012
REMARK INTER:                 -12.083
REMARK INTRA:                  -0.928
REMARK UNBOUND:                -0.928
REMARK  6 active torsions:
REMARK  status: ('A' for Active; 'I' for Inactive)
REMARK    1  A    between atoms: C_5  and  N_8 
REMARK    2  A    between atoms: N_15  and  C_16 
REMARK    3  A    between atoms: C_16  and  C_17 
REMARK       I    between atoms: C_17  and  N_19 
REMARK    4  A    between atoms: N_19  and  C_20 
REMARK    5  A    between atoms: C_23  and  O_26 
REMARK    6  A    between atoms: O_26  and  C_27 
ROOT
ATOM      1  N   UNK d   1      15.430 -58.148  34.185  0.00  0.00    -0.241 N 
ATOM      2  C   UNK d   1      15.719 -57.733  35.449  0.00  0.00     0.286 A 
ATOM      3  O   UNK d   1      16.825 -57.247  35.787  0.00  0.00    -0.265 OA
ATOM      4  C   UNK d   1      14.641 -57.921  36.288  0.00  0.00     0.155 A 
ATOM      5  C   UNK d   1      13.688 -58.453  35.538  0.00  0.00     0.152 A 
ATOM      6  N   UNK d   1      12.620 -58.650  36.332  0.00  0.00    -0.279 N 
ATOM      7  N   UNK d   1      12.934 -58.237  37.551  0.00  0.00    -0.239 N 
ATOM      8  N   UNK d   1      14.173 -57.782  37.560  0.00  0.00    -0.261 N 
ATOM      9  C   UNK d   1      14.167 -58.592  34.255  0.00  0.00     0.286 A 
ATOM     10  O   UNK d   1      13.538 -59.065  33.256  0.00  0.00    -0.265 OA
ATOM     11  H   UNK d   1      11.700 -59.047  36.073  0.00  0.00     0.189 HD
ATOM     12  H   UNK d   1      12.280 -58.271  38.387  0.00  0.00     0.208 HD
ENDROOT
BRANCH   8  13
ATOM     13  C   UNK d   1      14.916 -57.254  38.666  0.00  0.00     0.254 C 
BRANCH  13  14
ATOM     14  C   UNK d   1      15.331 -55.813  38.478  0.00  0.00     0.242 C 
ATOM     15  O   UNK d   1      14.477 -54.959  38.798  0.00  0.00    -0.271 OA
ATOM     16  N   UNK d   1      16.586 -55.467  37.983  0.00  0.00    -0.326 N 
ATOM     17  H   UNK d   1      17.228 -56.300  37.737  0.00  0.00     0.169 HD
BRANCH  16  18
ATOM     18  C   UNK d   1      17.150 -54.202  37.749  0.00  0.00     0.034 A 
ATOM     19  C   UNK d   1      17.990 -54.002  36.653  0.00  0.00     0.032 A 
ATOM     20  C   UNK d   1      18.575 -52.791  36.398  0.00  0.00     0.039 A 
ATOM     21  C   UNK d   1      18.343 -51.705  37.244  0.00  0.00     0.068 A 
ATOM     22  C   UNK d   1      17.511 -51.933  38.313  0.00  0.00     0.039 A 
ATOM     23  C   UNK d   1      16.920 -53.147  38.573  0.00  0.00     0.032 A 
BRANCH  21  24
ATOM     24  O   UNK d   1      18.955 -50.508  36.953  0.00  0.00    -0.352 OA
BRANCH  24  25
ATOM     25  C   UNK d   1      20.056 -50.312  36.127  0.00  0.00     0.171 C 
ATOM     26  C   UNK d   1      20.537 -48.903  36.063  0.00  0.00     0.034 C 
ENDBRANCH  24  25
ENDBRANCH  21  24
ENDBRANCH  16  18
ENDBRANCH  13  14
ENDBRANCH   8  13
BRANCH   1  27
ATOM     27  C   UNK d   1      16.280 -58.124  33.042  0.00  0.00     0.046 A 
ATOM     28  C   UNK d   1      16.839 -59.253  32.479  0.00  0.00     0.031 A 
ATOM     29  C   UNK d   1      17.666 -59.187  31.369  0.00  0.00     0.021 A 
ATOM     30  C   UNK d   1      17.972 -57.983  30.770  0.00  0.00     0.011 A 
ATOM     31 Br   UNK d   1      19.111 -57.868  29.243  0.00  0.00    -0.051 Br
ATOM     32  C   UNK d   1      17.406 -56.848  31.337  0.00  0.00     0.021 A 
ATOM     33  C   UNK d   1      16.584 -56.915  32.443  0.00  0.00     0.031 A 
ENDBRANCH   1  27
TORSDOF 6
ENDMDL
