/Users/jonathanwahrer/Desktop/Msc/3_Semester/Drug_Design_Praktikum/waehrer_HTS_screening/HTS_experiment/out/docking_results/vina_output/6s1j/0416_docked.pdbqt
 OpenBabel03222221193D

 33 36  0  0  0  0  0  0  0  0999 V2000
   15.4300  -58.1480   34.1850 N   0  0  0  0  0  0  0  0  0  0  0  0
   15.7190  -57.7330   35.4490 C   0  0  0  0  0  0  0  0  0  0  0  0
   16.8250  -57.2470   35.7870 O   0  0  0  0  0  0  0  0  0  0  0  0
   14.6410  -57.9210   36.2880 C   0  0  0  0  0  0  0  0  0  0  0  0
   13.6880  -58.4530   35.5380 C   0  0  0  0  0  0  0  0  0  0  0  0
   12.6200  -58.6500   36.3320 N   0  0  0  0  0  0  0  0  0  0  0  0
   12.9340  -58.2370   37.5510 N   0  0  0  0  0  0  0  0  0  0  0  0
   14.1730  -57.7820   37.5600 N   0  0  0  0  0  0  0  0  0  0  0  0
   14.1670  -58.5920   34.2550 C   0  0  0  0  0  0  0  0  0  0  0  0
   13.5380  -59.0650   33.2560 O   0  0  0  0  0  0  0  0  0  0  0  0
   11.7000  -59.0470   36.0730 H   0  0  0  0  0  0  0  0  0  0  0  0
   12.2800  -58.2710   38.3870 H   0  0  0  0  0  0  0  0  0  0  0  0
   14.9160  -57.2540   38.6660 C   0  0  0  0  0  2  0  0  0  0  0  0
   15.3310  -55.8130   38.4780 C   0  0  0  0  0  0  0  0  0  0  0  0
   14.4770  -54.9590   38.7980 O   0  0  0  0  0  0  0  0  0  0  0  0
   16.5860  -55.4670   37.9830 N   0  0  0  0  0  0  0  0  0  0  0  0
   17.2280  -56.3000   37.7370 H   0  0  0  0  0  0  0  0  0  0  0  0
   17.1500  -54.2020   37.7490 C   0  0  0  0  0  0  0  0  0  0  0  0
   17.9900  -54.0020   36.6530 C   0  0  0  0  0  3  0  0  0  0  0  0
   18.5750  -52.7910   36.3980 C   0  0  0  0  0  3  0  0  0  0  0  0
   18.3430  -51.7050   37.2440 C   0  0  0  0  0  0  0  0  0  0  0  0
   17.5110  -51.9330   38.3130 C   0  0  0  0  0  3  0  0  0  0  0  0
   16.9200  -53.1470   38.5730 C   0  0  0  0  0  3  0  0  0  0  0  0
   18.9550  -50.5080   36.9530 O   0  0  0  0  0  0  0  0  0  0  0  0
   20.0560  -50.3120   36.1270 C   0  0  0  0  0  2  0  0  0  0  0  0
   20.5370  -48.9030   36.0630 C   0  0  0  0  0  1  0  0  0  0  0  0
   16.2800  -58.1240   33.0420 C   0  0  0  0  0  0  0  0  0  0  0  0
   16.8390  -59.2530   32.4790 C   0  0  0  0  0  3  0  0  0  0  0  0
   17.6660  -59.1870   31.3690 C   0  0  0  0  0  3  0  0  0  0  0  0
   17.9720  -57.9830   30.7700 C   0  0  0  0  0  0  0  0  0  0  0  0
   19.1110  -57.8680   29.2430 Br  0  0  0  0  0  0  0  0  0  0  0  0
   17.4060  -56.8480   31.3370 C   0  0  0  0  0  3  0  0  0  0  0  0
   16.5840  -56.9150   32.4430 C   0  0  0  0  0  3  0  0  0  0  0  0
  1  9  1  0  0  0  0
  1  2  1  0  0  0  0
  2  3  2  0  0  0  0
  2  4  1  0  0  0  0
  4  8  1  0  0  0  0
  5  4  2  0  0  0  0
  5  6  1  0  0  0  0
  6  7  1  0  0  0  0
  7  8  1  0  0  0  0
  7 12  1  0  0  0  0
  8 13  1  0  0  0  0
  9  5  1  0  0  0  0
 10  9  2  0  0  0  0
 11  6  1  0  0  0  0
 14 13  1  0  0  0  0
 14 15  2  0  0  0  0
 16 14  1  0  0  0  0
 17 16  1  0  0  0  0
 18 16  1  0  0  0  0
 18 23  1  0  0  0  0
 19 18  2  0  0  0  0
 20 19  1  0  0  0  0
 20 21  2  0  0  0  0
 21 22  1  0  0  0  0
 22 23  2  0  0  0  0
 24 21  1  0  0  0  0
 25 24  1  0  0  0  0
 26 25  1  0  0  0  0
 27  1  1  0  0  0  0
 28 27  1  0  0  0  0
 29 28  2  0  0  0  0
 30 32  2  0  0  0  0
 30 29  1  0  0  0  0
 31 30  1  0  0  0  0
 32 33  1  0  0  0  0
 33 27  2  0  0  0  0
M  END
>  <Pose>
1

>  <Score>
-8.945

$$$$
