MODEL 1
REMARK VINA RESULT:    -8.930      0.000      0.000
REMARK INTER + INTRA:         -10.776
REMARK INTER:                 -10.496
REMARK INTRA:                  -0.279
REMARK UNBOUND:                -0.279
REMARK  3 active torsions:
REMARK  status: ('A' for Active; 'I' for Inactive)
REMARK    1  A    between atoms: C_5  and  N_8 
REMARK    2  A    between atoms: N_15  and  C_16 
REMARK    3  A    between atoms: C_19  and  N_22 
ROOT
ATOM      1  N   UNK d   1      15.603 -57.558  36.132  0.00  0.00    -0.241 N 
ATOM      2  C   UNK d   1      16.354 -56.434  36.139  0.00  0.00     0.286 A 
ATOM      3  O   UNK d   1      17.065 -55.971  35.190  0.00  0.00    -0.265 OA
ATOM      4  C   UNK d   1      16.268 -55.793  37.361  0.00  0.00     0.160 A 
ATOM      5  C   UNK d   1      15.450 -56.552  38.094  0.00  0.00     0.152 A 
ATOM      6  N   UNK d   1      15.364 -55.926  39.292  0.00  0.00    -0.278 N 
ATOM      7  N   UNK d   1      16.112 -54.835  39.252  0.00  0.00    -0.234 N 
ATOM      8  N   UNK d   1      16.686 -54.727  38.066  0.00  0.00    -0.234 N 
ATOM      9  C   UNK d   1      15.038 -57.636  37.349  0.00  0.00     0.286 A 
ATOM     10  O   UNK d   1      14.267 -58.566  37.694  0.00  0.00    -0.265 OA
ATOM     11  H   UNK d   1      14.789 -56.273  40.104  0.00  0.00     0.189 HD
ATOM     12  H   UNK d   1      16.259 -54.132  40.022  0.00  0.00     0.209 HD
ENDROOT
BRANCH   8  13
ATOM     13  C   UNK d   1      17.568 -53.684  37.631  0.00  0.00     0.058 A 
ATOM     14  C   UNK d   1      17.259 -52.356  37.842  0.00  0.00     0.034 A 
ATOM     15  C   UNK d   1      18.094 -51.324  37.433  0.00  0.00     0.038 A 
ATOM     16  C   UNK d   1      19.280 -51.609  36.791  0.00  0.00     0.103 A 
ATOM     17  C   UNK d   1      19.592 -52.935  36.579  0.00  0.00     0.038 A 
ATOM     18  C   UNK d   1      18.757 -53.963  36.989  0.00  0.00     0.034 A 
BRANCH  16  19
ATOM     19  N   UNK d   1      20.158 -50.572  36.360  0.00  0.00    -0.116 N 
ATOM     20  O   UNK d   1      21.394 -50.719  36.331  0.00  0.00    -0.532 OA
ATOM     21  O   UNK d   1      19.635 -49.381  35.966  0.00  0.00    -0.532 OA
ENDBRANCH  16  19
ENDBRANCH   8  13
BRANCH   1  22
ATOM     22  C   UNK d   1      15.457 -58.467  35.034  0.00  0.00     0.046 A 
ATOM     23  C   UNK d   1      16.519 -59.176  34.512  0.00  0.00     0.031 A 
ATOM     24  C   UNK d   1      16.344 -60.051  33.444  0.00  0.00     0.021 A 
ATOM     25  C   UNK d   1      15.102 -60.239  32.874  0.00  0.00     0.011 A 
ATOM     26 Br   UNK d   1      14.841 -61.439  31.405  0.00  0.00    -0.051 Br
ATOM     27  C   UNK d   1      14.037 -59.532  33.394  0.00  0.00     0.021 A 
ATOM     28  C   UNK d   1      14.220 -58.665  34.454  0.00  0.00     0.031 A 
ENDBRANCH   1  22
TORSDOF 3
ENDMDL
