/Users/jonathanwahrer/Desktop/Msc/3_Semester/Drug_Design_Praktikum/waehrer_HTS_screening/HTS_experiment/out/docking_results/vina_output/6s1j/0426_docked.pdbqt
 OpenBabel03222221203D

 29 32  0  0  1  0  0  0  0  0999 V2000
   17.0820  -56.7580   33.4110 N   0  0  0  0  0  0  0  0  0  0  0  0
   17.5470  -56.4950   32.0730 C   0  0  0  0  0  0  0  0  0  0  0  0
   16.8560  -56.5570   31.0160 O   0  0  0  0  0  0  0  0  0  0  0  0
   18.9820  -56.1420   32.1790 C   0  0  1  0  0  3  0  0  0  0  0  0
   19.4310  -55.1600   31.2120 N   0  0  0  0  0  0  0  0  0  0  0  0
   20.3590  -54.4530   32.0380 N   0  0  0  0  0  0  0  0  0  0  0  0
   19.7900  -54.3060   33.3380 C   0  0  0  0  0  0  0  0  0  0  0  0
   18.9440  -55.3240   33.4500 C   0  0  0  0  0  0  0  0  0  0  0  0
   17.9600  -56.0210   34.2700 C   0  0  0  0  0  0  0  0  0  0  0  0
   17.9640  -55.9280   35.5290 O   0  0  0  0  0  0  0  0  0  0  0  0
   18.6160  -54.4930   31.1000 H   0  0  0  0  0  0  0  0  0  0  0  0
   21.2930  -54.1010   31.7500 H   0  0  0  0  0  0  0  0  0  0  0  0
   20.0670  -53.2790   34.3360 C   0  0  0  0  0  0  0  0  0  0  0  0
   20.3900  -52.1120   34.0100 O   0  0  0  0  0  0  0  0  0  0  0  0
   19.9910  -53.5320   35.6980 O   0  0  0  0  0  0  0  0  0  0  0  0
   19.9250  -52.4790   36.6500 C   0  0  0  0  0  2  0  0  0  0  0  0
   18.7940  -52.7440   37.6010 C   0  0  0  0  0  0  0  0  0  0  0  0
   17.7470  -51.8310   37.7210 C   0  0  0  0  0  3  0  0  0  0  0  0
   16.6940  -52.0360   38.5720 C   0  0  0  0  0  3  0  0  0  0  0  0
   16.6680  -53.1940   39.3460 C   0  0  0  0  0  3  0  0  0  0  0  0
   17.7050  -54.0920   39.2240 C   0  0  0  0  0  3  0  0  0  0  0  0
   18.7740  -53.8740   38.3520 C   0  0  0  0  0  3  0  0  0  0  0  0
   15.9940  -57.5590   33.8220 C   0  0  0  0  0  0  0  0  0  0  0  0
   14.6800  -57.1100   33.6420 C   0  0  0  0  0  3  0  0  0  0  0  0
   13.5790  -57.8160   34.0080 C   0  0  0  0  0  3  0  0  0  0  0  0
   13.7490  -59.0450   34.5920 C   0  0  0  0  0  0  0  0  0  0  0  0
   12.2030  -60.0690   35.1210 Br  0  0  0  0  0  0  0  0  0  0  0  0
   15.0300  -59.5240   34.7880 C   0  0  0  0  0  3  0  0  0  0  0  0
   16.1360  -58.7880   34.4070 C   0  0  0  0  0  3  0  0  0  0  0  0
  1 23  1  0  0  0  0
  1  9  1  0  0  0  0
  2  1  1  0  0  0  0
  3  2  2  0  0  0  0
  4  2  1  6  0  0  0
  4  8  1  0  0  0  0
  5  6  1  0  0  0  0
  5  4  1  0  0  0  0
  6  7  1  0  0  0  0
  7  8  2  0  0  0  0
  7 13  1  0  0  0  0
  8  9  1  0  0  0  0
  9 10  2  0  0  0  0
 11  5  1  0  0  0  0
 12  6  1  0  0  0  0
 13 15  1  0  0  0  0
 14 13  2  0  0  0  0
 15 16  1  0  0  0  0
 16 17  1  0  0  0  0
 17 18  2  0  0  0  0
 17 22  1  0  0  0  0
 18 19  1  0  0  0  0
 19 20  2  0  0  0  0
 21 20  1  0  0  0  0
 22 21  2  0  0  0  0
 23 29  1  0  0  0  0
 24 23  2  0  0  0  0
 24 25  1  0  0  0  0
 25 26  2  0  0  0  0
 26 28  1  0  0  0  0
 26 27  1  0  0  0  0
 29 28  2  0  0  0  0
M  END
>  <Pose>
1

>  <Score>
-10.387

$$$$
