/Users/jonathanwahrer/Desktop/Msc/3_Semester/Drug_Design_Praktikum/waehrer_HTS_screening/HTS_experiment/out/docking_results/vina_output/6s1j/0428_docked.pdbqt
 OpenBabel03222221203D

 28 31  0  0  1  0  0  0  0  0999 V2000
   15.2510  -57.1940   35.0850 N   0  0  0  0  0  0  0  0  0  0  0  0
   14.9590  -57.3340   33.6820 C   0  0  0  0  0  0  0  0  0  0  0  0
   14.0200  -58.0930   33.3150 O   0  0  0  0  0  0  0  0  0  0  0  0
   15.7570  -56.5970   32.7840 N   0  0  0  0  0  2  0  0  0  0  0  0
   16.7040  -55.8280   33.1300 C   0  0  0  0  0  0  0  0  0  0  0  0
   17.1470  -55.5600   34.5200 C   0  0  1  0  0  0  0  0  0  0  0  0
   18.6030  -55.8610   34.6100 C   0  0  0  0  0  2  0  0  0  0  0  0
   19.3530  -55.1420   35.5760 N   0  0  0  0  0  4  0  0  0  0  0  0
   18.6040  -54.4010   36.5120 C   0  0  0  0  0  0  0  0  0  0  0  0
   17.3830  -53.8210   36.1450 C   0  0  0  0  0  0  0  0  0  0  0  0
   16.6720  -53.1060   37.0670 C   0  0  0  0  0  3  0  0  0  0  0  0
   17.0830  -52.9130   38.3660 C   0  0  0  0  0  0  0  0  0  0  0  0
   18.2850  -53.4870   38.7230 C   0  0  0  0  0  3  0  0  0  0  0  0
   19.0310  -54.2180   37.8090 C   0  0  0  0  0  3  0  0  0  0  0  0
   16.2820  -52.1330   39.3380 C   0  0  0  0  0  1  0  0  0  0  0  0
   16.9770  -54.0530   34.7350 C   0  0  0  0  0  2  0  0  0  0  0  0
   20.3880  -54.2940   34.9610 C   0  0  0  0  0  1  0  0  0  0  0  0
   16.3150  -56.3300   35.4690 C   0  0  0  0  0  0  0  0  0  0  0  0
   16.5220  -56.2530   36.7250 O   0  0  0  0  0  0  0  0  0  0  0  0
   17.4220  -55.1490   32.1220 O   0  0  0  0  0  0  0  0  0  0  0  0
   19.9100  -55.8520   36.1400 H   0  0  0  0  0  0  0  0  0  0  0  0
   14.4890  -57.9030   36.0520 C   0  0  0  0  0  0  0  0  0  0  0  0
   14.0140  -57.2040   37.1380 C   0  0  0  0  0  3  0  0  0  0  0  0
   13.2620  -57.8170   38.1330 C   0  0  0  0  0  3  0  0  0  0  0  0
   12.9820  -59.1530   38.0370 C   0  0  0  0  0  0  0  0  0  0  0  0
   11.9490  -59.9860   39.4070 Br  0  0  0  0  0  0  0  0  0  0  0  0
   13.4480  -59.8810   36.9530 C   0  0  0  0  0  3  0  0  0  0  0  0
   14.1950  -59.2470   35.9750 C   0  0  0  0  0  3  0  0  0  0  0  0
  1 18  1  0  0  0  0
  1 22  1  0  0  0  0
  2  1  1  0  0  0  0
  3  2  2  0  0  0  0
  4  5  1  0  0  0  0
  4  2  1  0  0  0  0
  5  6  1  0  0  0  0
  6  7  1  1  0  0  0
  6 16  1  0  0  0  0
  6 18  1  0  0  0  0
  7  8  1  0  0  0  0
  8 21  1  0  0  0  0
  8  9  1  0  0  0  0
  9 14  1  0  0  0  0
 10  9  2  0  0  0  0
 10 11  1  0  0  0  0
 11 12  2  0  0  0  0
 12 13  1  0  0  0  0
 12 15  1  0  0  0  0
 14 13  2  0  0  0  0
 16 10  1  0  0  0  0
 17  8  1  0  0  0  0
 18 19  2  0  0  0  0
 20  5  2  0  0  0  0
 22 23  1  0  0  0  0
 23 24  2  0  0  0  0
 25 24  1  0  0  0  0
 25 26  1  0  0  0  0
 27 25  2  0  0  0  0
 28 22  2  0  0  0  0
 28 27  1  0  0  0  0
M  END
>  <Pose>
1

>  <Score>
-10.856

$$$$
