MODEL 1
REMARK VINA RESULT:   -10.856      0.000      0.000
REMARK INTER + INTRA:         -10.966
REMARK INTER:                 -11.491
REMARK INTRA:                   0.524
REMARK UNBOUND:                 0.524
REMARK  1 active torsions:
REMARK  status: ('A' for Active; 'I' for Inactive)
REMARK    1  A    between atoms: C_5  and  N_8 
ROOT
ATOM      1  N   UNK d   1      15.251 -57.194  35.085  0.00  0.00    -0.231 N 
ATOM      2  C   UNK d   1      14.959 -57.334  33.682  0.00  0.00     0.357 A 
ATOM      3  O   UNK d   1      14.020 -58.093  33.315  0.00  0.00    -0.244 OA
ATOM      4  N   UNK d   1      15.757 -56.597  32.784  0.00  0.00    -0.169 NA
ATOM      5  C   UNK d   1      16.704 -55.828  33.130  0.00  0.00     0.202 A 
ATOM      6  C   UNK d   1      17.147 -55.560  34.520  0.00  0.00     0.140 A 
ATOM      7  C   UNK d   1      18.603 -55.861  34.610  0.00  0.00     0.269 C 
ATOM      8  N   UNK d   1      19.353 -55.142  35.576  0.00  0.00    -0.043 N 
ATOM      9  C   UNK d   1      18.604 -54.401  36.512  0.00  0.00     0.140 A 
ATOM     10  C   UNK d   1      17.383 -53.821  36.145  0.00  0.00    -0.021 A 
ATOM     11  C   UNK d   1      16.672 -53.106  37.067  0.00  0.00     0.016 A 
ATOM     12  C   UNK d   1      17.083 -52.913  38.366  0.00  0.00    -0.061 A 
ATOM     13  C   UNK d   1      18.285 -53.487  38.723  0.00  0.00     0.009 A 
ATOM     14  C   UNK d   1      19.031 -54.218  37.809  0.00  0.00     0.038 A 
ATOM     15  C   UNK d   1      16.282 -52.133  39.338  0.00  0.00     0.048 C 
ATOM     16  C   UNK d   1      16.977 -54.053  34.735  0.00  0.00     0.070 C 
ATOM     17  C   UNK d   1      20.388 -54.294  34.961  0.00  0.00     0.276 C 
ATOM     18  C   UNK d   1      16.315 -56.330  35.469  0.00  0.00     0.251 A 
ATOM     19  O   UNK d   1      16.522 -56.253  36.725  0.00  0.00    -0.271 OA
ATOM     20  O   UNK d   1      17.422 -55.149  32.122  0.00  0.00    -0.173 OA
ATOM     21  H   UNK d   1      19.910 -55.852  36.140  0.00  0.00     0.286 HD
ENDROOT
BRANCH   1  22
ATOM     22  C   UNK d   1      14.489 -57.903  36.052  0.00  0.00     0.047 A 
ATOM     23  C   UNK d   1      14.014 -57.204  37.138  0.00  0.00     0.031 A 
ATOM     24  C   UNK d   1      13.262 -57.817  38.133  0.00  0.00     0.021 A 
ATOM     25  C   UNK d   1      12.982 -59.153  38.037  0.00  0.00     0.011 A 
ATOM     26 Br   UNK d   1      11.949 -59.986  39.407  0.00  0.00    -0.051 Br
ATOM     27  C   UNK d   1      13.448 -59.881  36.953  0.00  0.00     0.021 A 
ATOM     28  C   UNK d   1      14.195 -59.247  35.975  0.00  0.00     0.031 A 
ENDBRANCH   1  22
TORSDOF 1
ENDMDL
