MODEL 1
REMARK VINA RESULT:    -9.886      0.000      0.000
REMARK INTER + INTRA:         -12.942
REMARK INTER:                 -12.198
REMARK INTRA:                  -0.744
REMARK UNBOUND:                -0.744
REMARK  4 active torsions:
REMARK  status: ('A' for Active; 'I' for Inactive)
REMARK    1  A    between atoms: C_5  and  N_8 
REMARK    2  A    between atoms: C_15  and  N_16 
REMARK    3  A    between atoms: N_16  and  N_17 
REMARK    4  A    between atoms: N_17  and  C_18 
ROOT
ATOM      1  N   UNK d   1      19.171 -54.847  33.842  0.00  0.00    -0.229 N 
ATOM      2  C   UNK d   1      19.935 -53.938  33.045  0.00  0.00     0.337 A 
ATOM      3  O   UNK d   1      20.208 -52.803  33.551  0.00  0.00    -0.246 OA
ATOM      4  N   UNK d   1      20.353 -54.322  31.748  0.00  0.00    -0.274 N 
ATOM      5  C   UNK d   1      20.058 -55.586  31.162  0.00  0.00     0.266 A 
ATOM      6  O   UNK d   1      20.445 -55.900  30.002  0.00  0.00    -0.267 OA
ATOM      7  C   UNK d   1      19.272 -56.548  31.955  0.00  0.00     0.117 A 
ATOM      8  C   UNK d   1      18.964 -57.739  31.466  0.00  0.00     0.130 C 
ATOM      9  C   UNK d   1      18.857 -56.124  33.288  0.00  0.00     0.273 A 
ATOM     10  O   UNK d   1      18.185 -56.911  34.002  0.00  0.00    -0.266 OA
ATOM     11  H   UNK d   1      20.911 -53.628  31.198  0.00  0.00     0.173 HD
ENDROOT
BRANCH   8  12
ATOM     12  N   UNK d   1      18.206 -58.645  32.255  0.00  0.00    -0.296 N 
ATOM     13  H   UNK d   1      18.717 -59.067  33.076  0.00  0.00     0.186 HD
BRANCH  12  14
ATOM     14  N   UNK d   1      16.886 -58.997  32.023  0.00  0.00    -0.130 N 
ATOM     15  H   UNK d   1      16.631 -59.123  31.000  0.00  0.00     0.205 HD
BRANCH  14  16
ATOM     16  C   UNK d   1      15.910 -59.186  33.040  0.00  0.00     0.723 A 
ATOM     17  N   UNK d   1      14.968 -60.135  33.037  0.00  0.00    -0.175 N 
ATOM     18  C   UNK d   1      14.219 -60.028  34.147  0.00  0.00     0.166 A 
ATOM     19  C   UNK d   1      14.706 -61.177  32.038  0.00  0.00     0.176 C 
ATOM     20  C   UNK d   1      14.718 -58.958  34.878  0.00  0.00     0.186 A 
ATOM     21  C   UNK d   1      13.147 -60.694  34.677  0.00  0.00     0.282 A 
ATOM     22  N   UNK d   1      15.738 -58.486  34.163  0.00  0.00    -0.042 NA
ATOM     23  N   UNK d   1      14.175 -58.591  36.052  0.00  0.00    -0.285 N 
ATOM     24  C   UNK d   1      13.132 -59.275  36.522  0.00  0.00     0.332 A 
ATOM     25  C   UNK d   1      14.744 -57.475  36.749  0.00  0.00     0.163 C 
ATOM     26  O   UNK d   1      12.590 -58.961  37.626  0.00  0.00    -0.246 OA
ATOM     27  N   UNK d   1      12.593 -60.333  35.858  0.00  0.00    -0.269 N 
ATOM     28  C   UNK d   1      11.466 -61.042  36.408  0.00  0.00     0.164 C 
ATOM     29  O   UNK d   1      12.655 -61.664  34.064  0.00  0.00    -0.265 OA
ENDBRANCH  14  16
ENDBRANCH  12  14
ENDBRANCH   8  12
BRANCH   1  30
ATOM     30  C   UNK d   1      18.757 -54.466  35.123  0.00  0.00     0.047 A 
ATOM     31  C   UNK d   1      17.459 -54.045  35.331  0.00  0.00     0.031 A 
ATOM     32  C   UNK d   1      17.005 -53.662  36.578  0.00  0.00     0.021 A 
ATOM     33  C   UNK d   1      17.855 -53.688  37.671  0.00  0.00     0.011 A 
ATOM     34 Br   UNK d   1      17.239 -53.158  39.404  0.00  0.00    -0.051 Br
ATOM     35  C   UNK d   1      19.146 -54.111  37.440  0.00  0.00     0.021 A 
ATOM     36  C   UNK d   1      19.616 -54.498  36.201  0.00  0.00     0.031 A 
ENDBRANCH   1  30
TORSDOF 4
ENDMDL
