MODEL 1
REMARK VINA RESULT:    -9.026      0.000      0.000
REMARK INTER + INTRA:         -14.124
REMARK INTER:                 -13.247
REMARK INTRA:                  -0.877
REMARK UNBOUND:                -0.877
REMARK  10 active torsions:
REMARK  status: ('A' for Active; 'I' for Inactive)
REMARK    1  A    between atoms: C_5  and  O_8 
REMARK    2  A    between atoms: O_8  and  C_9 
REMARK    3  A    between atoms: C_9  and  C_10 
REMARK       I    between atoms: C_10  and  N_12 
REMARK    4  A    between atoms: N_12  and  C_13 
REMARK    5  A    between atoms: N_16  and  C_23 
REMARK    6  A    between atoms: C_20  and  O_22 
REMARK    7  A    between atoms: C_25  and  C_30 
REMARK    8  A    between atoms: C_26  and  O_29 
REMARK    9  A    between atoms: C_27  and  O_28 
REMARK   10  A    between atoms: C_30  and  O_31 
ROOT
ATOM      1  C   UNK d   1      13.207 -57.814  37.342  0.00  0.00     0.733 A 
ATOM      2  N   UNK d   1      13.639 -58.264  36.149  0.00  0.00    -0.042 NA
ATOM      3  C   UNK d   1      13.294 -59.474  35.743  0.00  0.00     0.185 A 
ATOM      4  N   UNK d   1      13.595 -60.134  34.616  0.00  0.00    -0.293 N 
ATOM      5  C   UNK d   1      12.980 -61.335  34.722  0.00  0.00     0.214 A 
ATOM      6  N   UNK d   1      12.319 -61.413  35.880  0.00  0.00    -0.235 NA
ATOM      7  C   UNK d   1      12.483 -60.274  36.556  0.00  0.00     0.158 A 
ATOM      8  C   UNK d   1      12.035 -59.819  37.782  0.00  0.00     0.214 A 
ATOM      9  N   UNK d   1      12.415 -58.589  38.139  0.00  0.00    -0.036 NA
ENDROOT
BRANCH   1  10
ATOM     10  N   UNK d   1      13.562 -56.516  37.816  0.00  0.00    -0.154 N 
ATOM     11  C   UNK d   1      14.811 -56.235  38.405  0.00  0.00     0.260 C 
ATOM     12  O   UNK d   1      15.661 -57.134  38.533  0.00  0.00    -0.270 OA
ATOM     13  H   UNK d   1      12.836 -55.750  37.706  0.00  0.00     0.187 HD
BRANCH  11  14
ATOM     14  C   UNK d   1      15.108 -54.868  38.871  0.00  0.00     0.279 C 
BRANCH  14  15
ATOM     15  O   UNK d   1      16.435 -54.701  39.279  0.00  0.00    -0.342 OA
BRANCH  15  16
ATOM     16  C   UNK d   1      17.260 -53.849  38.578  0.00  0.00     0.069 A 
ATOM     17  C   UNK d   1      16.915 -52.529  38.403  0.00  0.00     0.038 A 
ATOM     18  C   UNK d   1      17.745 -51.657  37.693  0.00  0.00     0.022 A 
ATOM     19  C   UNK d   1      18.927 -52.122  37.161  0.00  0.00     0.011 A 
ATOM     20 Br   UNK d   1      20.068 -50.924  36.186  0.00  0.00    -0.051 Br
ATOM     21  C   UNK d   1      19.269 -53.447  37.339  0.00  0.00     0.022 A 
ATOM     22  C   UNK d   1      18.442 -54.293  38.040  0.00  0.00     0.038 A 
ENDBRANCH  15  16
ENDBRANCH  14  15
ENDBRANCH  11  14
ENDBRANCH   1  10
BRANCH   8  23
ATOM     23  O   UNK d   1      11.234 -60.654  38.548  0.00  0.00    -0.343 OA
ATOM     24  H   UNK d   1      11.530 -60.782  39.522  0.00  0.00     0.219 HD
ENDBRANCH   8  23
BRANCH   4  25
ATOM     25  C   UNK d   1      14.370 -59.762  33.496  0.00  0.00     0.262 C 
ATOM     26  O   UNK d   1      14.769 -60.874  32.743  0.00  0.00    -0.353 OA
ATOM     27  C   UNK d   1      16.068 -61.096  33.192  0.00  0.00     0.179 C 
ATOM     28  C   UNK d   1      16.650 -59.699  33.039  0.00  0.00     0.182 C 
ATOM     29  C   UNK d   1      15.542 -58.906  33.728  0.00  0.00     0.198 C 
BRANCH  27  30
ATOM     30  C   UNK d   1      16.800 -62.109  32.360  0.00  0.00     0.198 C 
BRANCH  30  31
ATOM     31  O   UNK d   1      18.042 -62.427  32.837  0.00  0.00    -0.398 OA
ATOM     32  H   UNK d   1      18.720 -61.947  32.294  0.00  0.00     0.209 HD
ENDBRANCH  30  31
ENDBRANCH  27  30
BRANCH  28  33
ATOM     33  O   UNK d   1      17.875 -59.547  33.627  0.00  0.00    -0.390 OA
ATOM     34  H   UNK d   1      18.369 -60.420  33.748  0.00  0.00     0.210 HD
ENDBRANCH  28  33
BRANCH  29  35
ATOM     35  O   UNK d   1      15.407 -57.640  33.115  0.00  0.00    -0.388 OA
ATOM     36  H   UNK d   1      15.944 -57.691  32.285  0.00  0.00     0.210 HD
ENDBRANCH  29  35
ENDBRANCH   4  25
TORSDOF 10
ENDMDL
