MODEL 1
REMARK VINA RESULT:    -7.674      0.000      0.000
REMARK INTER + INTRA:          -8.730
REMARK INTER:                  -8.571
REMARK INTRA:                  -0.159
REMARK UNBOUND:                -0.159
REMARK  2 active torsions:
REMARK  status: ('A' for Active; 'I' for Inactive)
REMARK    1  A    between atoms: C_7  and  C_8 
REMARK    2  A    between atoms: C_8  and  N_9 
ROOT
ATOM      1  C   UNK d   1      18.300 -55.747  35.490  0.00  0.00     0.284 C 
ENDROOT
BRANCH   1   2
ATOM      2  C   UNK d   1      17.204 -56.457  34.831  0.00  0.00    -0.012 A 
ATOM      3  C   UNK d   1      16.934 -56.135  33.489  0.00  0.00     0.021 A 
ATOM      4 Br   UNK d   1      18.027 -54.953  32.455  0.00  0.00    -0.050 Br
ATOM      5  C   UNK d   1      15.808 -56.711  32.932  0.00  0.00     0.059 A 
ATOM      6  C   UNK d   1      15.007 -57.561  33.668  0.00  0.00     0.106 A 
ATOM      7  C   UNK d   1      15.240 -57.896  34.980  0.00  0.00     0.105 A 
ATOM      8  O   UNK d   1      13.816 -58.236  33.258  0.00  0.00    -0.323 OA
ATOM      9  C   UNK d   1      16.355 -57.322  35.526  0.00  0.00     0.050 A 
ATOM     10  O   UNK d   1      14.203 -58.747  35.326  0.00  0.00    -0.323 OA
ATOM     11  C   UNK d   1      13.059 -58.409  34.494  0.00  0.00     0.352 C 
ENDBRANCH   1   2
BRANCH   1  12
ATOM     12  N   UNK d   1      18.033 -54.673  36.352  0.00  0.00     0.016 N 
ATOM     13  C   UNK d   1      19.432 -54.191  36.641  0.00  0.00     0.517 C 
ATOM     14  N   UNK d   1      19.534 -53.300  37.718  0.00  0.00     0.171 N 
ATOM     15  C   UNK d   1      18.967 -53.959  38.881  0.00  0.00     0.551 C 
ATOM     16  C   UNK d   1      18.792 -52.097  37.322  0.00  0.00     0.551 C 
ATOM     17  N   UNK d   1      17.564 -54.159  38.617  0.00  0.00     0.171 N 
ATOM     18  C   UNK d   1      17.362 -55.113  37.574  0.00  0.00     0.517 C 
ATOM     19  C   UNK d   1      16.851 -52.927  38.260  0.00  0.00     0.551 C 
ATOM     20  N   UNK d   1      17.427 -52.450  37.014  0.00  0.00     0.171 N 
ATOM     21  C   UNK d   1      17.354 -53.480  35.955  0.00  0.00     0.517 C 
ENDBRANCH   1  12
TORSDOF 2
ENDMDL
