MODEL 1
REMARK VINA RESULT:    -8.481      0.000      0.000
REMARK INTER + INTRA:         -11.991
REMARK INTER:                 -10.960
REMARK INTRA:                  -1.030
REMARK UNBOUND:                -1.030
REMARK  5 active torsions:
REMARK  status: ('A' for Active; 'I' for Inactive)
REMARK    1  A    between atoms: C_7  and  C_8 
REMARK    2  A    between atoms: C_8  and  N_9 
REMARK    3  A    between atoms: N_12  and  C_15 
REMARK    4  A    between atoms: C_15  and  C_16 
REMARK       I    between atoms: C_16  and  N_18 
REMARK    5  A    between atoms: N_18  and  C_19 
ROOT
ATOM      1  N   UNK d   1      18.690 -53.497  36.526  0.00  0.00     0.095 N 
ATOM      2  C   UNK d   1      19.300 -54.072  37.753  0.00  0.00     0.292 C 
ATOM      3  C   UNK d   1      18.374 -53.583  38.862  0.00  0.00     0.147 C 
ATOM      4  N   UNK d   1      17.459 -52.584  38.449  0.00  0.00    -0.401 N 
ATOM      5  C   UNK d   1      18.084 -51.516  37.713  0.00  0.00     0.147 C 
ATOM      6  C   UNK d   1      19.002 -52.073  36.664  0.00  0.00     0.292 C 
ENDROOT
BRANCH   1   7
ATOM      7  C   UNK d   1      19.346 -54.052  35.358  0.00  0.00     0.312 C 
BRANCH   7   8
ATOM      8  C   UNK d   1      18.427 -54.964  34.631  0.00  0.00    -0.010 A 
ATOM      9  C   UNK d   1      18.581 -55.205  33.268  0.00  0.00     0.021 A 
ATOM     10 Br   UNK d   1      20.000 -54.290  32.375  0.00  0.00    -0.050 Br
ATOM     11  C   UNK d   1      17.758 -56.062  32.573  0.00  0.00     0.059 A 
ATOM     12  C   UNK d   1      16.734 -56.726  33.201  0.00  0.00     0.103 A 
ATOM     13  C   UNK d   1      16.556 -56.512  34.538  0.00  0.00     0.102 A 
ATOM     14  O   UNK d   1      15.883 -57.599  32.536  0.00  0.00    -0.346 OA
ATOM     15  C   UNK d   1      17.391 -55.643  35.238  0.00  0.00     0.050 A 
ATOM     16  O   UNK d   1      15.528 -57.174  35.191  0.00  0.00    -0.346 OA
ATOM     17  C   UNK d   1      14.492 -57.849  34.525  0.00  0.00     0.202 C 
ATOM     18  C   UNK d   1      14.954 -58.405  33.216  0.00  0.00     0.202 C 
ENDBRANCH   7   8
ENDBRANCH   1   7
BRANCH   4  19
ATOM     19  C   UNK d   1      16.189 -52.995  37.983  0.00  0.00     0.219 C 
BRANCH  19  20
ATOM     20  C   UNK d   1      15.550 -54.072  38.716  0.00  0.00     0.235 C 
ATOM     21  O   UNK d   1      15.027 -53.872  39.832  0.00  0.00    -0.272 OA
ATOM     22  N   UNK d   1      15.498 -55.382  38.185  0.00  0.00    -0.355 N 
ATOM     23  H   UNK d   1      15.916 -55.632  37.243  0.00  0.00     0.162 HD
BRANCH  22  24
ATOM     24  C   UNK d   1      14.865 -56.489  38.893  0.00  0.00     0.084 A 
ATOM     25  C   UNK d   1      14.975 -57.864  38.381  0.00  0.00     0.027 A 
ATOM     26  C   UNK d   1      13.689 -57.126  38.158  0.00  0.00     0.027 A 
ENDBRANCH  22  24
ENDBRANCH  19  20
ENDBRANCH   4  19
TORSDOF 5
ENDMDL
