MODEL 1
REMARK VINA RESULT:    -8.340      0.000      0.000
REMARK INTER + INTRA:         -11.513
REMARK INTER:                 -10.778
REMARK INTRA:                  -0.736
REMARK UNBOUND:                -0.736
REMARK  5 active torsions:
REMARK  status: ('A' for Active; 'I' for Inactive)
REMARK    1  A    between atoms: C_7  and  C_8 
REMARK    2  A    between atoms: N_9  and  N_10 
REMARK    3  A    between atoms: N_10  and  C_11 
REMARK    4  A    between atoms: C_13  and  N_19 
REMARK    5  A    between atoms: C_15  and  O_17 
ROOT
ATOM      1  C   UNK d   1      19.972 -55.075  31.790  0.00  0.00     0.762 A 
ATOM      2  N   UNK d   1      19.034 -55.938  32.216  0.00  0.00     0.132 NA
ATOM      3  C   UNK d   1      18.607 -56.988  31.465  0.00  0.00     0.744 A 
ATOM      4  N   UNK d   1      19.177 -57.117  30.268  0.00  0.00    -0.017 NA
ATOM      5  C   UNK d   1      20.109 -56.298  29.788  0.00  0.00     0.302 A 
ATOM      6  N   UNK d   1      20.503 -55.258  30.583  0.00  0.00    -0.016 NA
ENDROOT
BRANCH   1   7
ATOM      7  N   UNK d   1      20.291 -54.013  32.664  0.00  0.00    -0.105 N 
ATOM      8  H   UNK d   1      21.143 -53.443  32.468  0.00  0.00     0.208 HD
BRANCH   7   9
ATOM      9  N   UNK d   1      19.524 -53.697  33.768  0.00  0.00    -0.172 NA
ATOM     10  C   UNK d   1      19.911 -53.413  34.938  0.00  0.00     0.152 C 
BRANCH  10  11
ATOM     11  C   UNK d   1      18.974 -53.104  35.998  0.00  0.00     0.003 A 
ATOM     12  C   UNK d   1      18.990 -51.895  36.657  0.00  0.00     0.025 A 
ATOM     13 Br   UNK d   1      20.270 -50.589  36.163  0.00  0.00    -0.050 Br
ATOM     14  C   UNK d   1      18.085 -51.633  37.668  0.00  0.00     0.059 A 
ATOM     15  C   UNK d   1      17.125 -52.565  38.067  0.00  0.00     0.106 A 
ATOM     16  C   UNK d   1      17.100 -53.791  37.407  0.00  0.00     0.105 A 
ATOM     17  O   UNK d   1      16.120 -52.580  39.021  0.00  0.00    -0.323 OA
ATOM     18  C   UNK d   1      18.013 -54.030  36.401  0.00  0.00     0.054 A 
ATOM     19  O   UNK d   1      16.081 -54.521  37.976  0.00  0.00    -0.323 OA
ATOM     20  C   UNK d   1      15.561 -53.864  39.116  0.00  0.00     0.352 C 
ENDBRANCH  10  11
ENDBRANCH   7   9
ENDBRANCH   1   7
BRANCH   3  21
ATOM     21  N   UNK d   1      17.635 -57.845  31.987  0.00  0.00    -0.209 N 
ATOM     22  C   UNK d   1      17.299 -59.087  31.334  0.00  0.00     0.167 C 
ATOM     23  C   UNK d   1      16.545 -60.009  32.270  0.00  0.00     0.188 C 
ATOM     24  O   UNK d   1      16.895 -59.937  33.578  0.00  0.00    -0.388 OA
ATOM     25  C   UNK d   1      17.200 -58.728  34.120  0.00  0.00     0.188 C 
ATOM     26  C   UNK d   1      16.941 -57.531  33.210  0.00  0.00     0.167 C 
ENDBRANCH   3  21
BRANCH   5  27
ATOM     27  O   UNK d   1      20.682 -56.458  28.538  0.00  0.00    -0.323 OA
ATOM     28  C   UNK d   1      21.437 -55.428  27.958  0.00  0.00     0.213 C 
ENDBRANCH   5  27
TORSDOF 5
ENDMDL
