MODEL 1
REMARK VINA RESULT:    -9.734      0.000      0.000
REMARK INTER + INTRA:         -12.213
REMARK INTER:                 -11.441
REMARK INTRA:                  -0.771
REMARK UNBOUND:                -0.771
REMARK  3 active torsions:
REMARK  status: ('A' for Active; 'I' for Inactive)
REMARK    1  A    between atoms: C_11  and  C_13 
REMARK       I    between atoms: C_13  and  N_15 
REMARK    2  A    between atoms: N_18  and  C_21 
REMARK    3  A    between atoms: C_21  and  C_22 
ROOT
ATOM      1  C   UNK d   1      19.719 -54.111  34.091  0.00  0.00     0.277 C 
ATOM      2  O   UNK d   1      20.968 -53.915  34.121  0.00  0.00    -0.265 OA
ATOM      3  N   UNK d   1      19.129 -54.630  32.921  0.00  0.00    -0.343 N 
ATOM      4  C   UNK d   1      19.970 -54.924  31.789  0.00  0.00     0.145 C 
ATOM      5  C   UNK d   1      19.825 -56.350  31.303  0.00  0.00     0.137 C 
ATOM      6  N   UNK d   1      18.502 -56.781  31.564  0.00  0.00    -0.404 N 
ATOM      7  C   UNK d   1      17.557 -55.739  31.480  0.00  0.00     0.137 C 
ATOM      8  C   UNK d   1      17.721 -54.898  32.760  0.00  0.00     0.145 C 
ENDROOT
BRANCH   1   9
ATOM      9  C   UNK d   1      18.943 -53.781  35.293  0.00  0.00     0.147 A 
ATOM     10  C   UNK d   1      19.063 -52.538  35.868  0.00  0.00     0.098 A 
ATOM     11  C   UNK d   1      18.354 -52.184  36.997  0.00  0.00     0.187 A 
ATOM     12  C   UNK d   1      17.498 -53.108  37.567  0.00  0.00     0.048 A 
ATOM     13  O   UNK d   1      18.472 -51.028  37.522  0.00  0.00    -0.287 OA
ATOM     14  C   UNK d   1      17.423 -54.340  36.944  0.00  0.00     0.091 A 
ATOM     15  C   UNK d   1      16.781 -52.784  38.692  0.00  0.00     0.020 A 
ATOM     16  C   UNK d   1      16.563 -55.263  37.521  0.00  0.00     0.057 A 
ATOM     17  O   UNK d   1      18.121 -54.620  35.871  0.00  0.00    -0.304 OA
ATOM     18  C   UNK d   1      15.826 -54.963  38.654  0.00  0.00     0.013 A 
ATOM     19 Br   UNK d   1      14.655 -56.261  39.415  0.00  0.00    -0.051 Br
ATOM     20  C   UNK d   1      15.936 -53.717  39.241  0.00  0.00     0.020 A 
ENDBRANCH   1   9
BRANCH   6  21
ATOM     21  C   UNK d   1      18.326 -57.748  32.572  0.00  0.00     0.181 C 
BRANCH  21  22
ATOM     22  C   UNK d   1      17.050 -58.457  32.555  0.00  0.00     0.108 A 
ATOM     23  N   UNK d   1      16.638 -59.294  31.589  0.00  0.00    -0.106 NA
ATOM     24  O   UNK d   1      15.472 -59.719  31.925  0.00  0.00    -0.106 OA
ATOM     25  N   UNK d   1      15.088 -59.207  33.067  0.00  0.00    -0.108 NA
ATOM     26  C   UNK d   1      16.071 -58.391  33.507  0.00  0.00     0.088 A 
ATOM     27  C   UNK d   1      16.076 -57.590  34.768  0.00  0.00     0.075 C 
ENDBRANCH  21  22
ENDBRANCH   6  21
TORSDOF 3
ENDMDL
