/Users/jonathanwahrer/Desktop/Msc/3_Semester/Drug_Design_Praktikum/waehrer_HTS_screening/HTS_experiment/out/docking_results/vina_output/6s1j/0471_docked.pdbqt
 OpenBabel03222221233D

 27 30  0  0  0  0  0  0  0  0999 V2000
   19.7190  -54.1110   34.0910 C   0  0  0  0  0  0  0  0  0  0  0  0
   20.9680  -53.9150   34.1210 O   0  0  0  0  0  0  0  0  0  0  0  0
   19.1290  -54.6300   32.9210 N   0  0  0  0  0  0  0  0  0  0  0  0
   19.9700  -54.9240   31.7890 C   0  0  0  0  0  2  0  0  0  0  0  0
   19.8250  -56.3500   31.3030 C   0  0  0  0  0  2  0  0  0  0  0  0
   18.5020  -56.7810   31.5640 N   0  0  0  0  0  0  0  0  0  0  0  0
   17.5570  -55.7390   31.4800 C   0  0  0  0  0  2  0  0  0  0  0  0
   17.7210  -54.8980   32.7600 C   0  0  0  0  0  2  0  0  0  0  0  0
   18.9430  -53.7810   35.2930 C   0  0  0  0  0  0  0  0  0  0  0  0
   19.0630  -52.5380   35.8680 C   0  0  0  0  0  3  0  0  0  0  0  0
   18.3540  -52.1840   36.9970 C   0  0  0  0  0  0  0  0  0  0  0  0
   17.4980  -53.1080   37.5670 C   0  0  0  0  0  0  0  0  0  0  0  0
   18.4720  -51.0280   37.5220 O   0  0  0  0  0  0  0  0  0  0  0  0
   17.4230  -54.3400   36.9440 C   0  0  0  0  0  0  0  0  0  0  0  0
   16.7810  -52.7840   38.6920 C   0  0  0  0  0  3  0  0  0  0  0  0
   16.5630  -55.2630   37.5210 C   0  0  0  0  0  3  0  0  0  0  0  0
   18.1210  -54.6200   35.8710 O   0  0  0  0  0  0  0  0  0  0  0  0
   15.8260  -54.9630   38.6540 C   0  0  0  0  0  0  0  0  0  0  0  0
   14.6550  -56.2610   39.4150 Br  0  0  0  0  0  0  0  0  0  0  0  0
   15.9360  -53.7170   39.2410 C   0  0  0  0  0  3  0  0  0  0  0  0
   18.3260  -57.7480   32.5720 C   0  0  0  0  0  2  0  0  0  0  0  0
   17.0500  -58.4570   32.5550 C   0  0  0  0  0  0  0  0  0  0  0  0
   16.6380  -59.2940   31.5890 N   0  0  0  0  0  0  0  0  0  0  0  0
   15.4720  -59.7190   31.9250 O   0  0  0  0  0  0  0  0  0  0  0  0
   15.0880  -59.2070   33.0670 N   0  0  0  0  0  0  0  0  0  0  0  0
   16.0710  -58.3910   33.5070 C   0  0  0  0  0  0  0  0  0  0  0  0
   16.0760  -57.5900   34.7680 C   0  0  0  0  0  1  0  0  0  0  0  0
  1  2  2  0  0  0  0
  1  9  1  0  0  0  0
  3  1  1  0  0  0  0
  4  3  1  0  0  0  0
  5  6  1  0  0  0  0
  5  4  1  0  0  0  0
  6 21  1  0  0  0  0
  7  6  1  0  0  0  0
  7  8  1  0  0  0  0
  8  3  1  0  0  0  0
  9 10  2  0  0  0  0
  9 17  1  0  0  0  0
 10 11  1  0  0  0  0
 11 13  2  0  0  0  0
 11 12  1  0  0  0  0
 12 15  1  0  0  0  0
 14 16  1  0  0  0  0
 14 12  2  0  0  0  0
 15 20  2  0  0  0  0
 16 18  2  0  0  0  0
 17 14  1  0  0  0  0
 18 20  1  0  0  0  0
 18 19  1  0  0  0  0
 22 21  1  0  0  0  0
 22 26  1  0  0  0  0
 23 24  1  0  0  0  0
 23 22  2  0  0  0  0
 24 25  1  0  0  0  0
 25 26  2  0  0  0  0
 26 27  1  0  0  0  0
M  END
>  <Pose>
1

>  <Score>
-9.734

$$$$
