/Users/jonathanwahrer/Desktop/Msc/3_Semester/Drug_Design_Praktikum/waehrer_HTS_screening/HTS_experiment/out/docking_results/vina_output/6s1j/0485_docked.pdbqt
 OpenBabel03222221243D

 34 37  0  0  0  0  0  0  0  0999 V2000
    9.9820  -60.6040   40.6580 Br  0  0  0  0  0  0  0  0  0  0  0  0
   10.9680  -60.1220   39.0790 C   0  0  0  0  0  0  0  0  0  0  0  0
   12.0090  -59.2250   39.1280 C   0  0  0  0  0  3  0  0  0  0  0  0
   12.7500  -58.8450   38.0140 C   0  0  0  0  0  0  0  0  0  0  0  0
   12.4180  -59.4070   36.7790 C   0  0  0  0  0  0  0  0  0  0  0  0
   11.3740  -60.3080   36.7290 C   0  0  0  0  0  3  0  0  0  0  0  0
   10.6450  -60.6740   37.8570 C   0  0  0  0  0  3  0  0  0  0  0  0
   13.2890  -58.8990   35.7590 N   0  0  0  0  0  0  0  0  0  0  0  0
   14.1810  -57.9960   36.3980 C   0  0  0  0  0  0  0  0  0  0  0  0
   15.0910  -57.3520   35.8290 O   0  0  0  0  0  0  0  0  0  0  0  0
   13.8680  -57.9420   37.8130 C   0  0  0  0  0  0  0  0  0  0  0  0
   14.4550  -57.2390   38.7150 N   0  0  0  0  0  0  0  0  0  0  0  0
   15.5230  -56.3920   38.4440 N   0  0  0  0  0  0  0  0  0  0  0  0
   15.5700  -55.1120   39.0350 C   0  0  0  0  0  0  0  0  0  0  0  0
   14.6480  -54.7030   39.8220 O   0  0  0  0  0  0  0  0  0  0  0  0
   16.2730  -56.7060   37.8130 H   0  0  0  0  0  0  0  0  0  0  0  0
   16.6720  -54.1450   38.8020 C   0  0  0  0  0  2  0  0  0  0  0  0
   16.6670  -53.7130   37.4420 O   0  0  0  0  0  0  0  0  0  0  0  0
   17.7460  -53.0060   36.9390 C   0  0  0  0  0  0  0  0  0  0  0  0
   18.5310  -53.5530   35.9460 C   0  0  0  0  0  0  0  0  0  0  0  0
   19.6130  -52.8370   35.4450 C   0  0  0  0  0  3  0  0  0  0  0  0
   19.9100  -51.5800   35.9360 C   0  0  0  0  0  3  0  0  0  0  0  0
   19.1250  -51.0520   36.9180 C   0  0  0  0  0  3  0  0  0  0  0  0
   18.0470  -51.7660   37.4160 C   0  0  0  0  0  3  0  0  0  0  0  0
   18.2630  -54.7990   35.4370 O   0  0  0  0  0  0  0  0  0  0  0  0
   17.3520  -54.9590   34.3800 C   0  0  0  0  0  1  0  0  0  0  0  0
   13.2310  -59.2710   34.3550 C   0  0  0  0  0  2  0  0  0  0  0  0
   13.9890  -60.4190   34.0090 N   0  0  0  0  0  0  0  0  0  0  0  0
   13.2400  -61.5690   33.6330 C   0  0  0  0  0  2  0  0  0  0  0  0
   14.1420  -62.7750   33.3550 C   0  0  0  0  0  2  0  0  0  0  0  0
   15.4430  -62.4460   33.8630 N   0  0  0  0  0  0  0  0  0  0  0  0
   16.0720  -61.3800   33.1460 C   0  0  0  0  0  2  0  0  0  0  0  0
   16.2830  -63.5860   34.0950 C   0  0  0  0  0  1  0  0  0  0  0  0
   15.1530  -60.1740   33.2080 C   0  0  0  0  0  2  0  0  0  0  0  0
  2  3  1  0  0  0  0
  2  1  1  0  0  0  0
  4  3  2  0  0  0  0
  5  4  1  0  0  0  0
  6  5  2  0  0  0  0
  6  7  1  0  0  0  0
  7  2  2  0  0  0  0
  8  9  1  0  0  0  0
  8  5  1  0  0  0  0
  9 11  1  0  0  0  0
 10  9  2  0  0  0  0
 11  4  1  0  0  0  0
 11 12  2  0  0  0  0
 13 12  1  0  0  0  0
 13 14  1  0  0  0  0
 14 15  2  0  0  0  0
 16 13  1  0  0  0  0
 17 14  1  0  0  0  0
 18 17  1  0  0  0  0
 19 24  1  0  0  0  0
 19 18  1  0  0  0  0
 20 19  2  0  0  0  0
 21 22  2  0  0  0  0
 21 20  1  0  0  0  0
 22 23  1  0  0  0  0
 23 24  2  0  0  0  0
 25 20  1  0  0  0  0
 26 25  1  0  0  0  0
 27  8  1  0  0  0  0
 28 27  1  0  0  0  0
 29 28  1  0  0  0  0
 30 29  1  0  0  0  0
 30 31  1  0  0  0  0
 31 33  1  0  0  0  0
 32 34  1  0  0  0  0
 32 31  1  0  0  0  0
 34 28  1  0  0  0  0
M  END
>  <Pose>
1

>  <Score>
-9.074

$$$$
