/Users/jonathanwahrer/Desktop/Msc/3_Semester/Drug_Design_Praktikum/waehrer_HTS_screening/HTS_experiment/out/docking_results/vina_output/6s1j/0500_docked.pdbqt
 OpenBabel03222221253D

 32 35  0  0  1  0  0  0  0  0999 V2000
    7.9370  -62.9100   32.5400 Br  0  0  0  0  0  0  0  0  0  0  0  0
    9.6500  -63.2230   33.3630 C   0  0  0  0  0  0  0  0  0  0  0  0
   10.7850  -62.5490   33.0170 C   0  0  0  0  0  3  0  0  0  0  0  0
   11.9920  -62.8240   33.6070 C   0  0  0  0  0  0  0  0  0  0  0  0
   12.0160  -63.8020   34.5600 C   0  0  0  0  0  0  0  0  0  0  0  0
   10.8650  -64.5060   34.9350 C   0  0  0  0  0  3  0  0  0  0  0  0
    9.6560  -64.2220   34.3340 C   0  0  0  0  0  3  0  0  0  0  0  0
   13.3250  -64.0080   35.0520 N   0  0  0  0  0  0  0  0  0  0  0  0
   14.1670  -63.1240   34.3800 C   0  0  0  0  0  0  0  0  0  0  0  0
   15.4100  -63.0620   34.5690 O   0  0  0  0  0  0  0  0  0  0  0  0
   13.3520  -62.2870   33.4240 C   0  0  2  0  0  0  0  0  0  0  0  0
   13.5780  -60.9130   33.8460 C   0  0  0  0  0  0  0  0  0  0  0  0
   14.2480  -60.0490   33.0350 C   0  0  0  0  0  0  0  0  0  0  0  0
   14.3090  -58.8610   33.6990 N   0  0  0  0  0  0  0  0  0  0  0  0
   13.7130  -58.9810   34.8570 N   0  0  0  0  0  0  0  0  0  0  0  0
   13.2300  -60.2340   35.0250 C   0  0  0  0  0  0  0  0  0  0  0  0
   14.7440  -60.4180   31.7690 O   0  0  0  0  0  0  0  0  0  0  0  0
   14.5260  -61.7230   31.3730 C   0  0  0  0  0  0  0  0  0  0  0  0
   13.8950  -62.5940   32.1090 C   0  0  0  0  0  0  0  0  0  0  0  0
   13.7190  -63.9590   31.6010 C   0  0  0  0  0  0  0  0  0  0  0  0
   13.5640  -65.0200   31.1970 N   0  0  0  0  0  0  0  0  0  0  0  0
   13.7250  -64.9800   36.0900 C   0  0  0  0  0  1  0  0  0  0  0  0
   13.5970  -58.2290   35.5970 H   0  0  0  0  0  0  0  0  0  0  0  0
   15.0360  -62.1060   30.0730 N   0  0  0  0  0  0  0  0  0  0  0  0
   15.2530  -61.4280   29.3220 H   0  0  0  0  0  0  0  0  0  0  0  0
   15.1900  -63.1110   29.8960 H   0  0  0  0  0  0  0  0  0  0  0  0
   12.4810  -60.7070   36.2160 C   0  0  0  0  0  2  0  0  0  0  0  0
   12.4090  -59.6620   37.2610 C   0  0  0  0  0  0  0  0  0  0  0  0
   11.3500  -59.1510   37.7070 O   0  0  0  0  0  0  0  0  0  0  0  0
   13.5990  -59.2130   37.7880 O   0  0  0  0  0  0  0  0  0  0  0  0
   13.8280  -57.9590   38.3750 C   0  0  0  0  0  2  0  0  0  0  0  0
   15.2100  -57.4710   38.0110 C   0  0  0  0  0  1  0  0  0  0  0  0
  1  2  1  0  0  0  0
  2  7  1  0  0  0  0
  3  2  2  0  0  0  0
  3  4  1  0  0  0  0
  4  5  2  0  0  0  0
  5  6  1  0  0  0  0
  5  8  1  0  0  0  0
  7  6  2  0  0  0  0
  8 22  1  0  0  0  0
  9 10  2  0  0  0  0
  9  8  1  0  0  0  0
 11 19  1  6  0  0  0
 11  4  1  0  0  0  0
 11 12  1  0  0  0  0
 11  9  1  0  0  0  0
 12 16  2  0  0  0  0
 13 14  2  0  0  0  0
 13 12  1  0  0  0  0
 14 15  1  0  0  0  0
 15 16  1  0  0  0  0
 15 23  1  0  0  0  0
 16 27  1  0  0  0  0
 17 13  1  0  0  0  0
 18 17  1  0  0  0  0
 18 19  2  0  0  0  0
 20 19  1  0  0  0  0
 21 20  3  0  0  0  0
 24 18  1  0  0  0  0
 25 24  1  0  0  0  0
 26 24  1  0  0  0  0
 27 28  1  0  0  0  0
 28 29  2  0  0  0  0
 28 30  1  0  0  0  0
 30 31  1  0  0  0  0
 32 31  1  0  0  0  0
M  END
>  <Pose>
1

>  <Score>
-5.736

$$$$
