MODEL 1
REMARK VINA RESULT:    -5.736      0.000      0.000
REMARK INTER + INTRA:          -7.996
REMARK INTER:                  -7.246
REMARK INTRA:                  -0.751
REMARK UNBOUND:                -0.751
REMARK  5 active torsions:
REMARK  status: ('A' for Active; 'I' for Inactive)
REMARK    1  A    between atoms: C_16  and  C_17 
REMARK    2  A    between atoms: C_17  and  C_18 
REMARK    3  A    between atoms: C_18  and  O_20 
REMARK    4  A    between atoms: O_20  and  C_21 
REMARK    5  A    between atoms: C_24  and  N_28 
ROOT
ATOM      1 Br   UNK d   1       7.937 -62.910  32.540  0.00  0.00    -0.051 Br
ATOM      2  C   UNK d   1       9.650 -63.223  33.363  0.00  0.00     0.011 A 
ATOM      3  C   UNK d   1      10.785 -62.549  33.017  0.00  0.00     0.030 A 
ATOM      4  C   UNK d   1      11.992 -62.824  33.607  0.00  0.00    -0.002 A 
ATOM      5  C   UNK d   1      12.016 -63.802  34.560  0.00  0.00     0.045 A 
ATOM      6  C   UNK d   1      10.865 -64.506  34.935  0.00  0.00     0.031 A 
ATOM      7  C   UNK d   1       9.656 -64.222  34.334  0.00  0.00     0.021 A 
ATOM      8  N   UNK d   1      13.325 -64.008  35.052  0.00  0.00    -0.320 N 
ATOM      9  C   UNK d   1      14.167 -63.124  34.380  0.00  0.00     0.247 A 
ATOM     10  O   UNK d   1      15.410 -63.062  34.569  0.00  0.00    -0.271 OA
ATOM     11  C   UNK d   1      13.352 -62.287  33.424  0.00  0.00     0.145 A 
ATOM     12  C   UNK d   1      13.578 -60.913  33.846  0.00  0.00     0.049 A 
ATOM     13  C   UNK d   1      14.248 -60.049  33.035  0.00  0.00     0.200 A 
ATOM     14  N   UNK d   1      14.309 -58.861  33.699  0.00  0.00    -0.148 NA
ATOM     15  N   UNK d   1      13.713 -58.981  34.857  0.00  0.00    -0.279 N 
ATOM     16  C   UNK d   1      13.230 -60.234  35.025  0.00  0.00     0.050 A 
ATOM     17  O   UNK d   1      14.744 -60.418  31.769  0.00  0.00    -0.272 OA
ATOM     18  C   UNK d   1      14.526 -61.723  31.373  0.00  0.00     0.162 A 
ATOM     19  C   UNK d   1      13.895 -62.594  32.109  0.00  0.00     0.100 A 
ATOM     20  C   UNK d   1      13.719 -63.959  31.601  0.00  0.00     0.101 C 
ATOM     21  N   UNK d   1      13.564 -65.020  31.197  0.00  0.00    -0.191 NA
ATOM     22  C   UNK d   1      13.725 -64.980  36.090  0.00  0.00     0.159 C 
ATOM     23  H   UNK d   1      13.597 -58.229  35.597  0.00  0.00     0.189 HD
ENDROOT
BRANCH  18  24
ATOM     24  N   UNK d   1      15.036 -62.106  30.073  0.00  0.00    -0.379 N 
ATOM     25  H   UNK d   1      15.253 -61.428  29.322  0.00  0.00     0.158 HD
ATOM     26  H   UNK d   1      15.190 -63.111  29.896  0.00  0.00     0.158 HD
ENDBRANCH  18  24
BRANCH  16  27
ATOM     27  C   UNK d   1      12.481 -60.707  36.216  0.00  0.00     0.170 C 
BRANCH  27  28
ATOM     28  C   UNK d   1      12.409 -59.662  37.261  0.00  0.00     0.264 C 
ATOM     29  O   UNK d   1      11.350 -59.151  37.707  0.00  0.00    -0.265 OA
BRANCH  28  30
ATOM     30  O   UNK d   1      13.599 -59.213  37.788  0.00  0.00    -0.322 OA
BRANCH  30  31
ATOM     31  C   UNK d   1      13.828 -57.959  38.375  0.00  0.00     0.174 C 
ATOM     32  C   UNK d   1      15.210 -57.471  38.011  0.00  0.00     0.034 C 
ENDBRANCH  30  31
ENDBRANCH  28  30
ENDBRANCH  27  28
ENDBRANCH  16  27
TORSDOF 5
ENDMDL
