/Users/jonathanwahrer/Desktop/Msc/3_Semester/Drug_Design_Praktikum/waehrer_HTS_screening/HTS_experiment/out/docking_results/vina_output/6s1j/0502_docked.pdbqt
 OpenBabel03222221253D

 27 30  0  0  1  0  0  0  0  0999 V2000
   13.2370  -58.7500   36.4500 Br  0  0  0  0  0  0  0  0  0  0  0  0
   13.0490  -60.2360   35.2370 C   0  0  0  0  0  0  0  0  0  0  0  0
   14.1450  -60.9170   34.7790 C   0  0  0  0  0  3  0  0  0  0  0  0
   13.9860  -61.9770   33.9120 C   0  0  0  0  0  0  0  0  0  0  0  0
   12.7110  -62.3090   33.5400 C   0  0  0  0  0  0  0  0  0  0  0  0
   11.5840  -61.6070   34.0130 C   0  0  0  0  0  3  0  0  0  0  0  0
   11.7600  -60.5570   34.8740 C   0  0  0  0  0  3  0  0  0  0  0  0
   12.7090  -63.4180   32.6470 N   0  0  0  0  0  0  0  0  0  0  0  0
   14.0390  -63.8080   32.4420 C   0  0  0  0  0  0  0  0  0  0  0  0
   14.4130  -64.7670   31.6990 O   0  0  0  0  0  0  0  0  0  0  0  0
   14.9340  -62.9020   33.2440 C   0  0  2  0  0  0  0  0  0  0  0  0
   15.6430  -63.7680   34.1790 C   0  0  0  0  0  0  0  0  0  0  0  0
   16.9950  -63.9080   34.1260 C   0  0  0  0  0  0  0  0  0  0  0  0
   17.3370  -64.7760   35.1230 N   0  0  0  0  0  0  0  0  0  0  0  0
   16.2620  -65.1670   35.7750 N   0  0  0  0  0  0  0  0  0  0  0  0
   15.2010  -64.5760   35.2310 C   0  0  0  0  0  0  0  0  0  0  0  0
   13.7570  -64.6910   35.6080 C   0  0  0  0  0  1  0  0  0  0  0  0
   17.7890  -63.2410   33.1870 O   0  0  0  0  0  0  0  0  0  0  0  0
   17.1100  -62.4160   32.2960 C   0  0  0  0  0  0  0  0  0  0  0  0
   15.8140  -62.2420   32.2980 C   0  0  0  0  0  0  0  0  0  0  0  0
   15.2640  -61.3290   31.2800 C   0  0  0  0  0  0  0  0  0  0  0  0
   14.8070  -60.6090   30.4820 N   0  0  0  0  0  0  0  0  0  0  0  0
   11.5290  -64.0510   32.0390 C   0  0  0  0  0  1  0  0  0  0  0  0
   16.1950  -65.8290   36.5900 H   0  0  0  0  0  0  0  0  0  0  0  0
   17.8830  -61.6950   31.2960 N   0  0  0  0  0  0  0  0  0  0  0  0
   17.6140  -61.8960   30.3120 H   0  0  0  0  0  0  0  0  0  0  0  0
   18.6310  -61.0440   31.5260 H   0  0  0  0  0  0  0  0  0  0  0  0
  2  1  1  0  0  0  0
  3  2  2  0  0  0  0
  4  3  1  0  0  0  0
  5  4  2  0  0  0  0
  5  6  1  0  0  0  0
  6  7  2  0  0  0  0
  7  2  1  0  0  0  0
  8  5  1  0  0  0  0
  9  8  1  0  0  0  0
  9 11  1  0  0  0  0
 10  9  2  0  0  0  0
 11 20  1  6  0  0  0
 11  4  1  0  0  0  0
 11 12  1  0  0  0  0
 12 16  2  0  0  0  0
 13 12  1  0  0  0  0
 13 14  2  0  0  0  0
 14 15  1  0  0  0  0
 15 24  1  0  0  0  0
 16 17  1  0  0  0  0
 16 15  1  0  0  0  0
 18 13  1  0  0  0  0
 19 20  2  0  0  0  0
 19 18  1  0  0  0  0
 21 20  1  0  0  0  0
 22 21  3  0  0  0  0
 23  8  1  0  0  0  0
 25 27  1  0  0  0  0
 25 19  1  0  0  0  0
 26 25  1  0  0  0  0
M  END
>  <Pose>
1

>  <Score>
-5.297

$$$$
