MODEL 1
REMARK VINA RESULT:    -5.781      0.000      0.000
REMARK INTER + INTRA:          -5.950
REMARK INTER:                  -5.950
REMARK INTRA:                   0.000
REMARK UNBOUND:                 0.000
REMARK  1 active torsions:
REMARK  status: ('A' for Active; 'I' for Inactive)
REMARK    1  A    between atoms: C_15  and  N_19 
ROOT
ATOM      1 Br   UNK d   1      14.723 -60.354  27.773  0.00  0.00    -0.051 Br
ATOM      2  C   UNK d   1      15.340 -61.370  29.255  0.00  0.00     0.011 A 
ATOM      3  C   UNK d   1      14.739 -61.334  30.490  0.00  0.00     0.030 A 
ATOM      4  C   UNK d   1      15.253 -62.110  31.528  0.00  0.00    -0.002 A 
ATOM      5  C   UNK d   1      16.332 -62.916  31.388  0.00  0.00     0.045 A 
ATOM      6  C   UNK d   1      16.942 -62.954  30.131  0.00  0.00     0.031 A 
ATOM      7  C   UNK d   1      16.449 -62.193  29.094  0.00  0.00     0.021 A 
ATOM      8  N   UNK d   1      16.651 -63.597  32.586  0.00  0.00    -0.320 N 
ATOM      9  C   UNK d   1      15.714 -63.200  33.560  0.00  0.00     0.247 A 
ATOM     10  O   UNK d   1      15.675 -63.595  34.758  0.00  0.00    -0.271 OA
ATOM     11  C   UNK d   1      14.769 -62.230  32.941  0.00  0.00     0.146 A 
ATOM     12  C   UNK d   1      14.865 -60.910  33.615  0.00  0.00     0.071 A 
ATOM     13  C   UNK d   1      13.840 -60.297  34.086  0.00  0.00     0.060 A 
ATOM     14  N   UNK d   1      12.493 -60.838  34.002  0.00  0.00    -0.342 N 
ATOM     15  C   UNK d   1      12.387 -62.093  33.362  0.00  0.00     0.118 A 
ATOM     16  C   UNK d   1      13.415 -62.734  32.877  0.00  0.00     0.093 A 
ATOM     17  C   UNK d   1      13.151 -64.021  32.245  0.00  0.00     0.101 C 
ATOM     18  N   UNK d   1      12.963 -65.046  31.739  0.00  0.00    -0.191 NA
ATOM     19  C   UNK d   1      14.290 -59.007  34.693  0.00  0.00     0.106 A 
ATOM     20  O   UNK d   1      15.657 -58.972  34.511  0.00  0.00    -0.301 OA
ATOM     21  C   UNK d   1      16.094 -60.088  33.864  0.00  0.00     0.294 A 
ATOM     22  O   UNK d   1      17.266 -60.425  33.517  0.00  0.00    -0.259 OA
ATOM     23  C   UNK d   1      13.872 -58.947  36.150  0.00  0.00     0.053 C 
ATOM     24  C   UNK d   1      13.686 -57.827  33.953  0.00  0.00     0.053 C 
ATOM     25  C   UNK d   1      17.749 -64.548  32.816  0.00  0.00     0.159 C 
ATOM     26  H   UNK d   1      11.702 -60.302  34.398  0.00  0.00     0.167 HD
ENDROOT
BRANCH  15  27
ATOM     27  N   UNK d   1      11.063 -62.684  33.249  0.00  0.00    -0.384 N 
ATOM     28  H   UNK d   1      10.658 -62.749  32.293  0.00  0.00     0.157 HD
ATOM     29  H   UNK d   1      10.549 -63.018  34.076  0.00  0.00     0.157 HD
ENDBRANCH  15  27
TORSDOF 1
ENDMDL
