MODEL 1
REMARK VINA RESULT:    -5.896      0.000      0.000
REMARK INTER + INTRA:          -6.675
REMARK INTER:                  -6.585
REMARK INTRA:                  -0.089
REMARK UNBOUND:                -0.089
REMARK  3 active torsions:
REMARK  status: ('A' for Active; 'I' for Inactive)
REMARK    1  A    between atoms: C_15  and  N_19 
REMARK    2  A    between atoms: C_23  and  C_25 
REMARK    3  A    between atoms: C_25  and  O_26 
ROOT
ATOM      1 Br   UNK d   1      17.791 -65.173  35.366  0.00  0.00    -0.051 Br
ATOM      2  C   UNK d   1      15.991 -64.555  35.339  0.00  0.00     0.011 A 
ATOM      3  C   UNK d   1      15.638 -63.509  34.515  0.00  0.00     0.030 A 
ATOM      4  C   UNK d   1      14.323 -63.037  34.477  0.00  0.00     0.000 A 
ATOM      5  C   UNK d   1      13.411 -63.645  35.278  0.00  0.00     0.045 A 
ATOM      6  C   UNK d   1      13.774 -64.715  36.122  0.00  0.00     0.031 A 
ATOM      7  C   UNK d   1      15.070 -65.174  36.153  0.00  0.00     0.021 A 
ATOM      8  N   UNK d   1      12.146 -63.022  35.092  0.00  0.00    -0.320 N 
ATOM      9  C   UNK d   1      12.260 -61.988  34.145  0.00  0.00     0.249 A 
ATOM     10  O   UNK d   1      11.354 -61.224  33.730  0.00  0.00    -0.271 OA
ATOM     11  C   UNK d   1      13.682 -61.940  33.691  0.00  0.00     0.163 A 
ATOM     12  C   UNK d   1      14.288 -60.641  34.003  0.00  0.00     0.119 A 
ATOM     13  C   UNK d   1      14.877 -59.881  33.045  0.00  0.00     0.159 A 
ATOM     14  O   UNK d   1      14.918 -60.326  31.720  0.00  0.00    -0.286 OA
ATOM     15  C   UNK d   1      14.361 -61.541  31.374  0.00  0.00     0.161 A 
ATOM     16  C   UNK d   1      13.791 -62.287  32.272  0.00  0.00     0.102 A 
ATOM     17  C   UNK d   1      13.225 -63.564  31.814  0.00  0.00     0.101 C 
ATOM     18  N   UNK d   1      12.793 -64.558  31.462  0.00  0.00    -0.191 NA
ATOM     19  C   UNK d   1      15.443 -58.650  33.389  0.00  0.00     0.210 A 
ATOM     20  O   UNK d   1      15.981 -57.961  32.498  0.00  0.00    -0.285 OA
ATOM     21  C   UNK d   1      15.394 -58.226  34.696  0.00  0.00     0.092 A 
ATOM     22  C   UNK d   1      14.784 -59.040  35.627  0.00  0.00     0.080 A 
ATOM     23  O   UNK d   1      14.279 -60.166  35.251  0.00  0.00    -0.312 OA
ATOM     24  C   UNK d   1      10.929 -63.440  35.815  0.00  0.00     0.159 C 
ENDROOT
BRANCH  15  25
ATOM     25  N   UNK d   1      14.441 -61.932  29.994  0.00  0.00    -0.379 N 
ATOM     26  H   UNK d   1      14.826 -62.847  29.767  0.00  0.00     0.158 HD
ATOM     27  H   UNK d   1      14.111 -61.278  29.285  0.00  0.00     0.158 HD
ENDBRANCH  15  25
BRANCH  22  28
ATOM     28  C   UNK d   1      14.718 -58.595  37.072  0.00  0.00     0.229 C 
BRANCH  28  29
ATOM     29  O   UNK d   1      15.846 -59.065  37.745  0.00  0.00    -0.394 OA
ATOM     30  H   UNK d   1      15.556 -59.711  38.457  0.00  0.00     0.209 HD
ENDBRANCH  28  29
ENDBRANCH  22  28
TORSDOF 3
ENDMDL
