/Users/jonathanwahrer/Desktop/Msc/3_Semester/Drug_Design_Praktikum/waehrer_HTS_screening/HTS_experiment/out/docking_results/vina_output/6s1j/0505_docked.pdbqt
 OpenBabel03222221253D

 30 33  0  0  1  0  0  0  0  0999 V2000
   17.7910  -65.1730   35.3660 Br  0  0  0  0  0  0  0  0  0  0  0  0
   15.9910  -64.5550   35.3390 C   0  0  0  0  0  0  0  0  0  0  0  0
   15.6380  -63.5090   34.5150 C   0  0  0  0  0  3  0  0  0  0  0  0
   14.3230  -63.0370   34.4770 C   0  0  0  0  0  0  0  0  0  0  0  0
   13.4110  -63.6450   35.2780 C   0  0  0  0  0  0  0  0  0  0  0  0
   13.7740  -64.7150   36.1220 C   0  0  0  0  0  3  0  0  0  0  0  0
   15.0700  -65.1740   36.1530 C   0  0  0  0  0  3  0  0  0  0  0  0
   12.1460  -63.0220   35.0920 N   0  0  0  0  0  0  0  0  0  0  0  0
   12.2600  -61.9880   34.1450 C   0  0  0  0  0  0  0  0  0  0  0  0
   11.3540  -61.2240   33.7300 O   0  0  0  0  0  0  0  0  0  0  0  0
   13.6820  -61.9400   33.6910 C   0  0  1  0  0  0  0  0  0  0  0  0
   14.2880  -60.6410   34.0030 C   0  0  0  0  0  0  0  0  0  0  0  0
   14.8770  -59.8810   33.0450 C   0  0  0  0  0  0  0  0  0  0  0  0
   14.9180  -60.3260   31.7200 O   0  0  0  0  0  0  0  0  0  0  0  0
   14.3610  -61.5410   31.3740 C   0  0  0  0  0  0  0  0  0  0  0  0
   13.7910  -62.2870   32.2720 C   0  0  0  0  0  0  0  0  0  0  0  0
   13.2250  -63.5640   31.8140 C   0  0  0  0  0  0  0  0  0  0  0  0
   12.7930  -64.5580   31.4620 N   0  0  0  0  0  0  0  0  0  0  0  0
   15.4430  -58.6500   33.3890 C   0  0  0  0  0  0  0  0  0  0  0  0
   15.9810  -57.9610   32.4980 O   0  0  0  0  0  0  0  0  0  0  0  0
   15.3940  -58.2260   34.6960 C   0  0  0  0  0  3  0  0  0  0  0  0
   14.7840  -59.0400   35.6270 C   0  0  0  0  0  0  0  0  0  0  0  0
   14.2790  -60.1660   35.2510 O   0  0  0  0  0  0  0  0  0  0  0  0
   10.9290  -63.4400   35.8150 C   0  0  0  0  0  1  0  0  0  0  0  0
   14.4410  -61.9320   29.9940 N   0  0  0  0  0  0  0  0  0  0  0  0
   14.8260  -62.8470   29.7670 H   0  0  0  0  0  0  0  0  0  0  0  0
   14.1110  -61.2780   29.2850 H   0  0  0  0  0  0  0  0  0  0  0  0
   14.7180  -58.5950   37.0720 C   0  0  0  0  0  2  0  0  0  0  0  0
   15.8460  -59.0650   37.7450 O   0  0  0  0  0  0  0  0  0  0  0  0
   15.5560  -59.7110   38.4570 H   0  0  0  0  0  0  0  0  0  0  0  0
  2  1  1  0  0  0  0
  2  7  1  0  0  0  0
  3  2  2  0  0  0  0
  4  3  1  0  0  0  0
  4  5  2  0  0  0  0
  5  6  1  0  0  0  0
  6  7  2  0  0  0  0
  8  5  1  0  0  0  0
  8 24  1  0  0  0  0
  9  8  1  0  0  0  0
 10  9  2  0  0  0  0
 11 16  1  6  0  0  0
 11 12  1  0  0  0  0
 11  9  1  0  0  0  0
 11  4  1  0  0  0  0
 12 23  1  0  0  0  0
 13 19  1  0  0  0  0
 13 12  2  0  0  0  0
 14 13  1  0  0  0  0
 15 14  1  0  0  0  0
 15 16  2  0  0  0  0
 17 16  1  0  0  0  0
 18 17  3  0  0  0  0
 19 21  1  0  0  0  0
 20 19  2  0  0  0  0
 21 22  2  0  0  0  0
 22 28  1  0  0  0  0
 23 22  1  0  0  0  0
 25 15  1  0  0  0  0
 26 25  1  0  0  0  0
 27 25  1  0  0  0  0
 28 29  1  0  0  0  0
 29 30  1  0  0  0  0
M  END
>  <Pose>
1

>  <Score>
-5.896

$$$$
