MODEL 1
REMARK VINA RESULT:   -10.332      0.000      0.000
REMARK INTER + INTRA:         -13.578
REMARK INTER:                 -12.748
REMARK INTRA:                  -0.830
REMARK UNBOUND:                -0.830
REMARK  4 active torsions:
REMARK  status: ('A' for Active; 'I' for Inactive)
REMARK    1  A    between atoms: C_12  and  N_13 
REMARK    2  A    between atoms: N_13  and  N_14 
REMARK       I    between atoms: N_14  and  C_15 
REMARK    3  A    between atoms: C_15  and  C_17 
REMARK    4  A    between atoms: C_17  and  N_18 
ROOT
ATOM      1  N   UNK d   1      18.432 -55.909  34.228  0.00  0.00    -0.269 N 
ATOM      2  C   UNK d   1      17.273 -56.708  34.428  0.00  0.00     0.254 C 
ATOM      3  O   UNK d   1      16.951 -56.954  35.601  0.00  0.00    -0.270 OA
ATOM      4  H   UNK d   1      18.709 -55.715  33.241  0.00  0.00     0.190 HD
ENDROOT
BRANCH   1   5
ATOM      5  N   UNK d   1      19.195 -55.393  35.258  0.00  0.00    -0.308 N 
ATOM      6  H   UNK d   1      19.507 -56.025  36.045  0.00  0.00     0.186 HD
BRANCH   5   7
ATOM      7  C   UNK d   1      19.604 -54.055  35.345  0.00  0.00     0.125 C 
ATOM      8  C   UNK d   1      19.083 -53.152  36.148  0.00  0.00     0.061 A 
ATOM      9  C   UNK d   1      17.992 -53.293  37.118  0.00  0.00     0.009 A 
ATOM     10  C   UNK d   1      19.499 -51.744  36.250  0.00  0.00     0.258 A 
ATOM     11  C   UNK d   1      17.204 -54.362  37.486  0.00  0.00     0.034 A 
ATOM     12  C   UNK d   1      17.757 -52.099  37.756  0.00  0.00     0.046 A 
ATOM     13  C   UNK d   1      16.206 -54.274  38.456  0.00  0.00     0.011 A 
ATOM     14 Br   UNK d   1      15.157 -55.809  38.914  0.00  0.00    -0.051 Br
ATOM     15  C   UNK d   1      16.002 -53.065  39.069  0.00  0.00     0.021 A 
ATOM     16  C   UNK d   1      16.762 -51.974  38.736  0.00  0.00     0.032 A 
ATOM     17  N   UNK d   1      18.673 -51.147  37.233  0.00  0.00    -0.322 N 
ATOM     18  H   UNK d   1      18.738 -50.142  37.521  0.00  0.00     0.169 HD
ATOM     19  O   UNK d   1      20.416 -51.221  35.573  0.00  0.00    -0.267 OA
ENDBRANCH   5   7
ENDBRANCH   1   5
BRANCH   2  20
ATOM     20  C   UNK d   1      16.454 -57.241  33.317  0.00  0.00     0.236 C 
BRANCH  20  21
ATOM     21  N   UNK d   1      16.312 -58.620  33.376  0.00  0.00    -0.316 N 
ATOM     22  C   UNK d   1      15.299 -59.398  33.755  0.00  0.00     0.149 A 
ATOM     23  C   UNK d   1      15.700 -60.725  33.681  0.00  0.00     0.170 A 
ATOM     24  N   UNK d   1      14.054 -59.058  34.148  0.00  0.00    -0.287 N 
ATOM     25  N   UNK d   1      16.975 -60.719  33.247  0.00  0.00    -0.234 NA
ATOM     26  C   UNK d   1      14.819 -61.733  34.016  0.00  0.00     0.283 A 
ATOM     27  C   UNK d   1      17.340 -59.471  33.065  0.00  0.00     0.212 A 
ATOM     28  O   UNK d   1      15.212 -62.926  33.941  0.00  0.00    -0.265 OA
ATOM     29  N   UNK d   1      13.602 -61.379  34.401  0.00  0.00    -0.269 N 
ATOM     30  C   UNK d   1      13.223 -60.090  34.467  0.00  0.00     0.332 A 
ATOM     31  C   UNK d   1      12.623 -62.414  34.773  0.00  0.00     0.164 C 
ATOM     32  O   UNK d   1      12.061 -59.798  34.837  0.00  0.00    -0.246 OA
ATOM     33  C   UNK d   1      13.608 -57.695  34.194  0.00  0.00     0.163 C 
ENDBRANCH  20  21
ENDBRANCH   2  20
TORSDOF 4
ENDMDL
