MODEL 1
REMARK VINA RESULT:    -8.652      0.000      0.000
REMARK INTER + INTRA:         -10.120
REMARK INTER:                  -9.664
REMARK INTRA:                  -0.456
REMARK UNBOUND:                -0.456
REMARK  2 active torsions:
REMARK  status: ('A' for Active; 'I' for Inactive)
REMARK    1  A    between atoms: N_18  and  C_21 
REMARK    2  A    between atoms: C_21  and  C_22 
ROOT
ATOM      1 Br   UNK d   1      16.590 -51.832  38.094  0.00  0.00    -0.051 Br
ATOM      2  C   UNK d   1      17.598 -53.153  37.157  0.00  0.00     0.011 A 
ATOM      3  C   UNK d   1      17.003 -54.277  36.597  0.00  0.00     0.031 A 
ATOM      4  C   UNK d   1      17.733 -55.221  35.926  0.00  0.00     0.019 A 
ATOM      5  C   UNK d   1      19.100 -55.012  35.823  0.00  0.00     0.044 A 
ATOM      6  C   UNK d   1      19.697 -53.899  36.375  0.00  0.00     0.031 A 
ATOM      7  C   UNK d   1      18.954 -52.957  37.048  0.00  0.00     0.021 A 
ATOM      8  N   UNK d   1      19.707 -56.081  35.093  0.00  0.00    -0.324 N 
ATOM      9  C   UNK d   1      18.704 -57.000  34.719  0.00  0.00     0.267 A 
ATOM     10  O   UNK d   1      18.911 -58.036  34.069  0.00  0.00    -0.270 OA
ATOM     11  C   UNK d   1      17.425 -56.477  35.246  0.00  0.00     0.281 A 
ATOM     12  N   UNK d   1      16.848 -57.507  36.056  0.00  0.00     0.118 N 
ATOM     13  C   UNK d   1      16.321 -58.466  35.087  0.00  0.00     0.239 C 
ATOM     14  C   UNK d   1      15.889 -57.671  33.899  0.00  0.00     0.128 C 
ATOM     15  C   UNK d   1      16.388 -56.293  34.167  0.00  0.00     0.147 C 
ATOM     16  C   UNK d   1      16.942 -55.839  32.895  0.00  0.00     0.235 C 
ATOM     17  O   UNK d   1      17.339 -54.683  32.630  0.00  0.00    -0.272 OA
ATOM     18  N   UNK d   1      16.968 -56.913  31.988  0.00  0.00    -0.285 N 
ATOM     19  C   UNK d   1      16.553 -58.125  32.636  0.00  0.00     0.233 C 
ATOM     20  O   UNK d   1      16.701 -59.314  32.259  0.00  0.00    -0.272 OA
ATOM     21  C   UNK d   1      15.080 -59.060  35.738  0.00  0.00     0.038 C 
ATOM     22  C   UNK d   1      14.979 -58.419  37.107  0.00  0.00     0.032 C 
ATOM     23  C   UNK d   1      15.703 -57.092  36.840  0.00  0.00     0.275 C 
ATOM     24  H   UNK d   1      20.746 -56.152  34.881  0.00  0.00     0.169 HD
ENDROOT
BRANCH  18  25
ATOM     25  C   UNK d   1      17.346 -56.843  30.611  0.00  0.00     0.166 C 
BRANCH  25  26
ATOM     26  C   UNK d   1      18.777 -56.532  30.361  0.00  0.00     0.140 C 
ATOM     27  O   UNK d   1      19.052 -56.171  29.047  0.00  0.00    -0.384 OA
ATOM     28  C   UNK d   1      20.439 -56.166  28.993  0.00  0.00     0.168 C 
ATOM     29  C   UNK d   1      20.944 -57.285  29.849  0.00  0.00     0.029 C 
ATOM     30  C   UNK d   1      19.744 -57.600  30.741  0.00  0.00     0.035 C 
ENDBRANCH  25  26
ENDBRANCH  18  25
TORSDOF 2
ENDMDL
