/Users/jonathanwahrer/Desktop/Msc/3_Semester/Drug_Design_Praktikum/waehrer_HTS_screening/HTS_experiment/out/docking_results/vina_output/6s1j/0558_docked.pdbqt
 OpenBabel03222221263D

 29 32  0  0  1  0  0  0  0  0999 V2000
   15.1640  -59.5620   27.2330 Br  0  0  0  0  0  0  0  0  0  0  0  0
   16.0650  -60.4890   28.6250 C   0  0  0  0  0  0  0  0  0  0  0  0
   15.4760  -60.7090   29.8740 C   0  0  0  0  0  3  0  0  0  0  0  0
   16.1320  -61.3790   30.8720 C   0  0  0  0  0  0  0  0  0  0  0  0
   17.3950  -61.8430   30.6460 C   0  0  0  0  0  0  0  0  0  0  0  0
   18.0290  -61.6470   29.4120 C   0  0  0  0  0  3  0  0  0  0  0  0
   17.3450  -60.9720   28.4290 C   0  0  0  0  0  3  0  0  0  0  0  0
   17.9020  -62.5040   31.7930 N   0  0  0  0  0  0  0  0  0  0  0  0
   16.9070  -62.4500   32.7850 C   0  0  0  0  0  0  0  0  0  0  0  0
   16.9510  -62.9170   33.9530 O   0  0  0  0  0  0  0  0  0  0  0  0
   15.7310  -61.7310   32.2460 C   0  0  1  0  0  0  0  0  0  0  0  0
   15.4850  -60.4970   33.0600 C   0  0  0  0  0  0  0  0  0  0  0  0
   14.3640  -60.1980   33.6630 C   0  0  0  0  0  0  0  0  0  0  0  0
   13.2810  -61.1010   33.5490 N   0  0  0  0  0  0  0  0  0  0  0  0
   13.4210  -62.2970   32.7980 C   0  0  0  0  0  0  0  0  0  0  0  0
   14.5430  -62.6000   32.1920 C   0  0  0  0  0  0  0  0  0  0  0  0
   14.6050  -63.8540   31.4360 C   0  0  0  0  0  0  0  0  0  0  0  0
   14.6730  -64.8430   30.8410 N   0  0  0  0  0  0  0  0  0  0  0  0
   14.5340  -58.8980   34.3570 C   0  0  0  0  0  0  0  0  0  0  0  0
   15.8470  -58.4660   34.1070 O   0  0  0  0  0  0  0  0  0  0  0  0
   16.4580  -59.4210   33.3170 C   0  0  0  0  0  0  0  0  0  0  0  0
   17.6620  -59.3620   32.8910 O   0  0  0  0  0  0  0  0  0  0  0  0
   14.4220  -59.0730   35.8730 C   0  0  0  0  0  1  0  0  0  0  0  0
   13.5100  -57.8810   33.8740 C   0  0  0  0  0  1  0  0  0  0  0  0
   18.8670  -62.9550   31.8690 H   0  0  0  0  0  0  0  0  0  0  0  0
   12.3550  -60.9130   34.0120 H   0  0  0  0  0  0  0  0  0  0  0  0
   12.2950  -63.2100   32.6950 N   0  0  0  0  0  0  0  0  0  0  0  0
   11.4460  -63.1330   33.2780 H   0  0  0  0  0  0  0  0  0  0  0  0
   12.3560  -63.9710   31.9990 H   0  0  0  0  0  0  0  0  0  0  0  0
  1  2  1  0  0  0  0
  2  3  1  0  0  0  0
  3  4  2  0  0  0  0
  5  4  1  0  0  0  0
  5  8  1  0  0  0  0
  6  5  2  0  0  0  0
  7  2  2  0  0  0  0
  7  6  1  0  0  0  0
  8 25  1  0  0  0  0
  8  9  1  0  0  0  0
  9 10  2  0  0  0  0
 11  4  1  6  0  0  0
 11  9  1  0  0  0  0
 11 12  1  0  0  0  0
 12 21  1  0  0  0  0
 12 13  2  0  0  0  0
 13 19  1  0  0  0  0
 14 13  1  0  0  0  0
 14 26  1  0  0  0  0
 15 14  1  0  0  0  0
 16 11  1  0  0  0  0
 16 15  2  0  0  0  0
 17 16  1  0  0  0  0
 18 17  3  0  0  0  0
 19 23  1  0  0  0  0
 20 19  1  0  0  0  0
 21 20  1  0  0  0  0
 22 21  2  0  0  0  0
 24 19  1  0  0  0  0
 27 15  1  0  0  0  0
 27 28  1  0  0  0  0
 29 27  1  0  0  0  0
M  END
>  <Pose>
1

>  <Score>
-5.886

$$$$
