MODEL 1
REMARK VINA RESULT:    -5.886      0.000      0.000
REMARK INTER + INTRA:          -6.058
REMARK INTER:                  -6.058
REMARK INTRA:                   0.000
REMARK UNBOUND:                 0.000
REMARK  1 active torsions:
REMARK  status: ('A' for Active; 'I' for Inactive)
REMARK    1  A    between atoms: C_15  and  N_19 
ROOT
ATOM      1 Br   UNK d   1      15.164 -59.562  27.233  0.00  0.00    -0.051 Br
ATOM      2  C   UNK d   1      16.065 -60.489  28.625  0.00  0.00     0.011 A 
ATOM      3  C   UNK d   1      15.476 -60.709  29.874  0.00  0.00     0.030 A 
ATOM      4  C   UNK d   1      16.132 -61.379  30.872  0.00  0.00    -0.002 A 
ATOM      5  C   UNK d   1      17.395 -61.843  30.646  0.00  0.00     0.043 A 
ATOM      6  C   UNK d   1      18.029 -61.647  29.412  0.00  0.00     0.031 A 
ATOM      7  C   UNK d   1      17.345 -60.972  28.429  0.00  0.00     0.021 A 
ATOM      8  N   UNK d   1      17.902 -62.504  31.793  0.00  0.00    -0.325 N 
ATOM      9  C   UNK d   1      16.907 -62.450  32.785  0.00  0.00     0.246 A 
ATOM     10  O   UNK d   1      16.951 -62.917  33.953  0.00  0.00    -0.271 OA
ATOM     11  C   UNK d   1      15.731 -61.731  32.246  0.00  0.00     0.146 A 
ATOM     12  C   UNK d   1      15.485 -60.497  33.060  0.00  0.00     0.071 A 
ATOM     13  C   UNK d   1      14.364 -60.198  33.663  0.00  0.00     0.060 A 
ATOM     14  N   UNK d   1      13.281 -61.101  33.549  0.00  0.00    -0.342 N 
ATOM     15  C   UNK d   1      13.421 -62.297  32.798  0.00  0.00     0.118 A 
ATOM     16  C   UNK d   1      14.543 -62.600  32.192  0.00  0.00     0.093 A 
ATOM     17  C   UNK d   1      14.605 -63.854  31.436  0.00  0.00     0.101 C 
ATOM     18  N   UNK d   1      14.673 -64.843  30.841  0.00  0.00    -0.191 NA
ATOM     19  C   UNK d   1      14.534 -58.898  34.357  0.00  0.00     0.106 A 
ATOM     20  O   UNK d   1      15.847 -58.466  34.107  0.00  0.00    -0.301 OA
ATOM     21  C   UNK d   1      16.458 -59.421  33.317  0.00  0.00     0.294 A 
ATOM     22  O   UNK d   1      17.662 -59.362  32.891  0.00  0.00    -0.259 OA
ATOM     23  C   UNK d   1      14.422 -59.073  35.873  0.00  0.00     0.053 C 
ATOM     24  C   UNK d   1      13.510 -57.881  33.874  0.00  0.00     0.053 C 
ATOM     25  H   UNK d   1      18.867 -62.955  31.869  0.00  0.00     0.169 HD
ATOM     26  H   UNK d   1      12.355 -60.913  34.012  0.00  0.00     0.167 HD
ENDROOT
BRANCH  15  27
ATOM     27  N   UNK d   1      12.295 -63.210  32.695  0.00  0.00    -0.384 N 
ATOM     28  H   UNK d   1      11.446 -63.133  33.278  0.00  0.00     0.157 HD
ATOM     29  H   UNK d   1      12.356 -63.971  31.999  0.00  0.00     0.157 HD
ENDBRANCH  15  27
TORSDOF 1
ENDMDL
