MODEL 1
REMARK VINA RESULT:    -7.324      0.000      0.000
REMARK INTER + INTRA:         -10.044
REMARK INTER:                  -9.251
REMARK INTRA:                  -0.793
REMARK UNBOUND:                -0.793
REMARK  5 active torsions:
REMARK  status: ('A' for Active; 'I' for Inactive)
REMARK    1  A    between atoms: C_13  and  C_25 
REMARK    2  A    between atoms: N_18  and  C_21 
REMARK    3  A    between atoms: C_21  and  C_22 
REMARK    4  A    between atoms: C_22  and  C_23 
REMARK    5  A    between atoms: C_25  and  O_26 
ROOT
ATOM      1 Br   UNK d   1      19.604 -54.235  37.390  0.00  0.00    -0.051 Br
ATOM      2  C   UNK d   1      19.203 -54.549  35.551  0.00  0.00     0.011 A 
ATOM      3  C   UNK d   1      18.311 -55.524  35.184  0.00  0.00     0.031 A 
ATOM      4  C   UNK d   1      18.008 -55.765  33.831  0.00  0.00     0.019 A 
ATOM      5  C   UNK d   1      18.593 -55.035  32.835  0.00  0.00     0.044 A 
ATOM      6  C   UNK d   1      19.505 -54.038  33.210  0.00  0.00     0.031 A 
ATOM      7  C   UNK d   1      19.787 -53.819  34.539  0.00  0.00     0.021 A 
ATOM      8  N   UNK d   1      18.133 -55.457  31.559  0.00  0.00    -0.324 N 
ATOM      9  C   UNK d   1      17.211 -56.507  31.770  0.00  0.00     0.267 A 
ATOM     10  O   UNK d   1      16.623 -57.097  30.804  0.00  0.00    -0.270 OA
ATOM     11  C   UNK d   1      17.096 -56.743  33.199  0.00  0.00     0.279 A 
ATOM     12  N   UNK d   1      15.740 -56.625  33.699  0.00  0.00     0.116 N 
ATOM     13  C   UNK d   1      15.160 -57.950  33.580  0.00  0.00     0.264 C 
ATOM     14  C   UNK d   1      16.294 -58.828  34.026  0.00  0.00     0.130 C 
ATOM     15  C   UNK d   1      17.524 -58.162  33.510  0.00  0.00     0.147 C 
ATOM     16  C   UNK d   1      17.917 -58.920  32.312  0.00  0.00     0.234 C 
ATOM     17  O   UNK d   1      18.721 -58.583  31.382  0.00  0.00    -0.272 OA
ATOM     18  N   UNK d   1      17.246 -60.174  32.302  0.00  0.00    -0.288 N 
ATOM     19  C   UNK d   1      16.297 -60.142  33.349  0.00  0.00     0.233 C 
ATOM     20  O   UNK d   1      15.530 -61.091  33.695  0.00  0.00    -0.272 OA
ATOM     21  H   UNK d   1      18.456 -55.028  30.654  0.00  0.00     0.169 HD
ATOM     22  H   UNK d   1      15.192 -55.897  33.206  0.00  0.00     0.318 HD
ENDROOT
BRANCH  13  23
ATOM     23  C   UNK d   1      13.955 -58.042  34.463  0.00  0.00     0.148 C 
ATOM     24  C   UNK d   1      14.291 -57.560  35.853  0.00  0.00     0.041 C 
BRANCH  23  25
ATOM     25  O   UNK d   1      12.982 -57.175  33.949  0.00  0.00    -0.394 OA
ATOM     26  H   UNK d   1      12.123 -57.283  34.431  0.00  0.00     0.210 HD
ENDBRANCH  23  25
ENDBRANCH  13  23
BRANCH  18  27
ATOM     27  C   UNK d   1      17.484 -61.279  31.395  0.00  0.00     0.135 C 
BRANCH  27  28
ATOM     28  C   UNK d   1      16.488 -61.329  30.282  0.00  0.00     0.020 C 
BRANCH  28  29
ATOM     29  C   UNK d   1      17.241 -60.964  28.997  0.00  0.00    -0.003 C 
ATOM     30  C   UNK d   1      16.705 -59.682  28.420  0.00  0.00     0.005 C 
ENDBRANCH  28  29
ENDBRANCH  27  28
ENDBRANCH  18  27
TORSDOF 5
ENDMDL
