MODEL 1
REMARK VINA RESULT:    -7.122      0.000      0.000
REMARK INTER + INTRA:         -10.044
REMARK INTER:                  -8.995
REMARK INTRA:                  -1.049
REMARK UNBOUND:                -1.049
REMARK  5 active torsions:
REMARK  status: ('A' for Active; 'I' for Inactive)
REMARK    1  A    between atoms: C_13  and  C_29 
REMARK    2  A    between atoms: N_18  and  C_21 
REMARK    3  A    between atoms: C_21  and  C_22 
REMARK    4  A    between atoms: C_22  and  C_23 
REMARK    5  A    between atoms: C_29  and  O_30 
ROOT
ATOM      1 Br   UNK d   1      17.372 -64.573  34.064  0.00  0.00    -0.051 Br
ATOM      2  C   UNK d   1      15.793 -63.501  34.036  0.00  0.00     0.011 A 
ATOM      3  C   UNK d   1      15.808 -62.151  34.306  0.00  0.00     0.031 A 
ATOM      4  C   UNK d   1      14.642 -61.369  34.291  0.00  0.00     0.019 A 
ATOM      5  C   UNK d   1      13.462 -62.004  33.991  0.00  0.00     0.044 A 
ATOM      6  C   UNK d   1      13.439 -63.364  33.717  0.00  0.00     0.031 A 
ATOM      7  C   UNK d   1      14.590 -64.121  33.736  0.00  0.00     0.021 A 
ATOM      8  N   UNK d   1      12.376 -61.098  34.027  0.00  0.00    -0.324 N 
ATOM      9  C   UNK d   1      12.893 -59.831  34.367  0.00  0.00     0.267 A 
ATOM     10  O   UNK d   1      12.163 -58.806  34.480  0.00  0.00    -0.270 OA
ATOM     11  C   UNK d   1      14.355 -59.957  34.546  0.00  0.00     0.279 A 
ATOM     12  N   UNK d   1      14.737 -59.584  35.912  0.00  0.00     0.116 N 
ATOM     13  C   UNK d   1      16.051 -58.992  35.798  0.00  0.00     0.264 C 
ATOM     14  C   UNK d   1      16.195 -58.447  34.433  0.00  0.00     0.130 C 
ATOM     15  C   UNK d   1      15.005 -58.971  33.650  0.00  0.00     0.147 C 
ATOM     16  C   UNK d   1      15.549 -59.451  32.385  0.00  0.00     0.234 C 
ATOM     17  O   UNK d   1      14.924 -60.078  31.494  0.00  0.00    -0.272 OA
ATOM     18  N   UNK d   1      16.947 -59.105  32.282  0.00  0.00    -0.287 N 
ATOM     19  C   UNK d   1      17.354 -58.927  33.654  0.00  0.00     0.233 C 
ATOM     20  O   UNK d   1      18.496 -59.146  34.087  0.00  0.00    -0.272 OA
ATOM     21  H   UNK d   1      11.364 -61.332  33.833  0.00  0.00     0.169 HD
ATOM     22  H   UNK d   1      14.746 -60.414  36.547  0.00  0.00     0.318 HD
ENDROOT
BRANCH  13  23
ATOM     23  C   UNK d   1      16.260 -57.969  36.890  0.00  0.00     0.148 C 
ATOM     24  C   UNK d   1      15.151 -57.986  37.913  0.00  0.00     0.041 C 
BRANCH  23  25
ATOM     25  O   UNK d   1      16.449 -56.719  36.335  0.00  0.00    -0.394 OA
ATOM     26  H   UNK d   1      16.459 -56.739  35.359  0.00  0.00     0.210 HD
ENDBRANCH  23  25
ENDBRANCH  13  23
BRANCH  18  27
ATOM     27  C   UNK d   1      17.753 -58.936  31.116  0.00  0.00     0.139 C 
BRANCH  27  28
ATOM     28  C   UNK d   1      17.631 -57.615  30.413  0.00  0.00     0.059 C 
BRANCH  28  29
ATOM     29  C   UNK d   1      18.402 -56.515  31.019  0.00  0.00    -0.057 A 
ATOM     30  C   UNK d   1      19.657 -56.202  30.511  0.00  0.00     0.007 A 
ATOM     31  C   UNK d   1      20.365 -55.177  31.042  0.00  0.00     0.001 A 
ATOM     32  C   UNK d   1      19.896 -54.415  32.074  0.00  0.00     0.000 A 
ATOM     33  C   UNK d   1      18.643 -54.735  32.572  0.00  0.00     0.001 A 
ATOM     34  C   UNK d   1      17.911 -55.765  32.055  0.00  0.00     0.007 A 
ENDBRANCH  28  29
ENDBRANCH  27  28
ENDBRANCH  18  27
TORSDOF 5
ENDMDL
