/Users/jonathanwahrer/Desktop/Msc/3_Semester/Drug_Design_Praktikum/waehrer_HTS_screening/HTS_experiment/out/docking_results/vina_output/6s1j/0571_docked.pdbqt
 OpenBabel03222221263D

 34 38  0  0  1  0  0  0  0  0999 V2000
   17.3720  -64.5730   34.0640 Br  0  0  0  0  0  0  0  0  0  0  0  0
   15.7930  -63.5010   34.0360 C   0  0  0  0  0  0  0  0  0  0  0  0
   15.8080  -62.1510   34.3060 C   0  0  0  0  0  3  0  0  0  0  0  0
   14.6420  -61.3690   34.2910 C   0  0  0  0  0  0  0  0  0  0  0  0
   13.4620  -62.0040   33.9910 C   0  0  0  0  0  0  0  0  0  0  0  0
   13.4390  -63.3640   33.7170 C   0  0  0  0  0  3  0  0  0  0  0  0
   14.5900  -64.1210   33.7360 C   0  0  0  0  0  3  0  0  0  0  0  0
   12.3760  -61.0980   34.0270 N   0  0  0  0  0  0  0  0  0  0  0  0
   12.8930  -59.8310   34.3670 C   0  0  0  0  0  0  0  0  0  0  0  0
   12.1630  -58.8060   34.4800 O   0  0  0  0  0  0  0  0  0  0  0  0
   14.3550  -59.9570   34.5460 C   0  0  1  0  0  0  0  0  0  0  0  0
   14.7370  -59.5840   35.9120 N   0  0  0  0  0  0  0  0  0  0  0  0
   16.0510  -58.9920   35.7980 C   0  0  1  0  0  3  0  0  0  0  0  0
   16.1950  -58.4470   34.4330 C   0  0  2  0  0  3  0  0  0  0  0  0
   15.0050  -58.9710   33.6500 C   0  0  1  0  0  3  0  0  0  0  0  0
   15.5490  -59.4510   32.3850 C   0  0  0  0  0  0  0  0  0  0  0  0
   14.9240  -60.0780   31.4940 O   0  0  0  0  0  0  0  0  0  0  0  0
   16.9470  -59.1050   32.2820 N   0  0  0  0  0  0  0  0  0  0  0  0
   17.3540  -58.9270   33.6540 C   0  0  0  0  0  0  0  0  0  0  0  0
   18.4960  -59.1460   34.0870 O   0  0  0  0  0  0  0  0  0  0  0  0
   11.3640  -61.3320   33.8330 H   0  0  0  0  0  0  0  0  0  0  0  0
   14.7460  -60.4140   36.5470 H   0  0  0  0  0  0  0  0  0  0  0  0
   16.2600  -57.9690   36.8900 C   0  0  2  0  0  3  0  0  0  0  0  0
   15.1510  -57.9860   37.9130 C   0  0  0  0  0  1  0  0  0  0  0  0
   16.4490  -56.7190   36.3350 O   0  0  0  0  0  0  0  0  0  0  0  0
   16.4590  -56.7390   35.3590 H   0  0  0  0  0  0  0  0  0  0  0  0
   17.7530  -58.9360   31.1160 C   0  0  0  0  0  2  0  0  0  0  0  0
   17.6310  -57.6150   30.4130 C   0  0  0  0  0  2  0  0  0  0  0  0
   18.4020  -56.5150   31.0190 C   0  0  0  0  0  0  0  0  0  0  0  0
   19.6570  -56.2020   30.5110 C   0  0  0  0  0  3  0  0  0  0  0  0
   20.3650  -55.1770   31.0420 C   0  0  0  0  0  3  0  0  0  0  0  0
   19.8960  -54.4150   32.0740 C   0  0  0  0  0  3  0  0  0  0  0  0
   18.6430  -54.7350   32.5720 C   0  0  0  0  0  3  0  0  0  0  0  0
   17.9110  -55.7650   32.0550 C   0  0  0  0  0  3  0  0  0  0  0  0
  2  1  1  0  0  0  0
  2  3  1  0  0  0  0
  4  3  2  0  0  0  0
  5  8  1  0  0  0  0
  5  4  1  0  0  0  0
  6  7  1  0  0  0  0
  6  5  2  0  0  0  0
  7  2  2  0  0  0  0
  8  9  1  0  0  0  0
  9 10  2  0  0  0  0
  9 11  1  0  0  0  0
 11  4  1  6  0  0  0
 11 12  1  0  0  0  0
 12 22  1  0  0  0  0
 13 12  1  0  0  0  0
 13 23  1  1  0  0  0
 14 19  1  6  0  0  0
 14 13  1  0  0  0  0
 15 16  1  6  0  0  0
 15 14  1  0  0  0  0
 15 11  1  0  0  0  0
 17 16  2  0  0  0  0
 18 16  1  0  0  0  0
 18 19  1  0  0  0  0
 19 20  2  0  0  0  0
 21  8  1  0  0  0  0
 23 24  1  1  0  0  0
 25 23  1  0  0  0  0
 26 25  1  0  0  0  0
 27 18  1  0  0  0  0
 28 29  1  0  0  0  0
 28 27  1  0  0  0  0
 29 34  1  0  0  0  0
 30 29  2  0  0  0  0
 30 31  1  0  0  0  0
 31 32  2  0  0  0  0
 32 33  1  0  0  0  0
 34 33  2  0  0  0  0
M  END
>  <Pose>
1

>  <Score>
-7.122

$$$$
