MODEL 1
REMARK VINA RESULT:    -8.163      0.000      0.000
REMARK INTER + INTRA:         -10.306
REMARK INTER:                  -9.594
REMARK INTRA:                  -0.712
REMARK UNBOUND:                -0.712
REMARK  3 active torsions:
REMARK  status: ('A' for Active; 'I' for Inactive)
REMARK    1  A    between atoms: N_18  and  C_21 
REMARK    2  A    between atoms: C_21  and  C_22 
REMARK    3  A    between atoms: C_22  and  C_23 
ROOT
ATOM      1 Br   UNK d   1      14.733 -55.428  39.298  0.00  0.00    -0.051 Br
ATOM      2  C   UNK d   1      16.307 -55.049  38.284  0.00  0.00     0.011 A 
ATOM      3  C   UNK d   1      16.434 -55.410  36.967  0.00  0.00     0.031 A 
ATOM      4  C   UNK d   1      17.577 -55.148  36.190  0.00  0.00     0.019 A 
ATOM      5  C   UNK d   1      18.600 -54.495  36.808  0.00  0.00     0.044 A 
ATOM      6  C   UNK d   1      18.488 -54.117  38.160  0.00  0.00     0.031 A 
ATOM      7  C   UNK d   1      17.356 -54.389  38.893  0.00  0.00     0.021 A 
ATOM      8  N   UNK d   1      19.681 -54.287  35.910  0.00  0.00    -0.324 N 
ATOM      9  C   UNK d   1      19.306 -54.840  34.670  0.00  0.00     0.267 A 
ATOM     10  O   UNK d   1      20.021 -54.835  33.602  0.00  0.00    -0.270 OA
ATOM     11  C   UNK d   1      17.959 -55.419  34.821  0.00  0.00     0.279 A 
ATOM     12  N   UNK d   1      17.136 -54.622  33.894  0.00  0.00     0.113 N 
ATOM     13  C   UNK d   1      16.932 -55.380  32.699  0.00  0.00     0.232 C 
ATOM     14  C   UNK d   1      16.999 -56.795  33.144  0.00  0.00     0.127 C 
ATOM     15  C   UNK d   1      17.874 -56.830  34.367  0.00  0.00     0.147 C 
ATOM     16  C   UNK d   1      17.222 -57.790  35.228  0.00  0.00     0.234 C 
ATOM     17  O   UNK d   1      17.747 -58.329  36.246  0.00  0.00    -0.272 OA
ATOM     18  N   UNK d   1      15.907 -58.029  34.746  0.00  0.00    -0.288 N 
ATOM     19  C   UNK d   1      15.640 -57.192  33.630  0.00  0.00     0.233 C 
ATOM     20  O   UNK d   1      14.504 -56.900  33.207  0.00  0.00    -0.272 OA
ATOM     21  C   UNK d   1      17.890 -55.063  31.576  0.00  0.00     0.043 C 
ATOM     22  H   UNK d   1      20.606 -53.807  36.114  0.00  0.00     0.169 HD
ATOM     23  H   UNK d   1      16.235 -54.344  34.341  0.00  0.00     0.318 HD
ENDROOT
BRANCH  18  24
ATOM     24  C   UNK d   1      15.009 -59.002  35.353  0.00  0.00     0.135 C 
BRANCH  24  25
ATOM     25  C   UNK d   1      14.089 -58.370  36.354  0.00  0.00     0.020 C 
BRANCH  25  26
ATOM     26  C   UNK d   1      14.367 -58.800  37.769  0.00  0.00    -0.003 C 
ATOM     27  C   UNK d   1      13.004 -58.933  38.457  0.00  0.00     0.005 C 
ENDBRANCH  25  26
ENDBRANCH  24  25
ENDBRANCH  18  24
TORSDOF 3
ENDMDL
