/Users/jonathanwahrer/Desktop/Msc/3_Semester/Drug_Design_Praktikum/waehrer_HTS_screening/HTS_experiment/out/docking_results/vina_output/6s1j/0578_docked.pdbqt
 OpenBabel03222221273D

 27 30  0  0  1  0  0  0  0  0999 V2000
   14.7330  -55.4280   39.2980 Br  0  0  0  0  0  0  0  0  0  0  0  0
   16.3070  -55.0490   38.2840 C   0  0  0  0  0  0  0  0  0  0  0  0
   16.4340  -55.4100   36.9670 C   0  0  0  0  0  3  0  0  0  0  0  0
   17.5770  -55.1480   36.1900 C   0  0  0  0  0  0  0  0  0  0  0  0
   18.6000  -54.4950   36.8080 C   0  0  0  0  0  0  0  0  0  0  0  0
   18.4880  -54.1170   38.1600 C   0  0  0  0  0  3  0  0  0  0  0  0
   17.3560  -54.3890   38.8930 C   0  0  0  0  0  3  0  0  0  0  0  0
   19.6810  -54.2870   35.9100 N   0  0  0  0  0  0  0  0  0  0  0  0
   19.3060  -54.8400   34.6700 C   0  0  0  0  0  0  0  0  0  0  0  0
   20.0210  -54.8350   33.6020 O   0  0  0  0  0  0  0  0  0  0  0  0
   17.9590  -55.4190   34.8210 C   0  0  2  0  0  0  0  0  0  0  0  0
   17.1360  -54.6220   33.8940 N   0  0  0  0  0  0  0  0  0  0  0  0
   16.9320  -55.3800   32.6990 C   0  0  2  0  0  3  0  0  0  0  0  0
   16.9990  -56.7950   33.1440 C   0  0  1  0  0  3  0  0  0  0  0  0
   17.8740  -56.8300   34.3670 C   0  0  2  0  0  3  0  0  0  0  0  0
   17.2220  -57.7900   35.2280 C   0  0  0  0  0  0  0  0  0  0  0  0
   17.7470  -58.3290   36.2460 O   0  0  0  0  0  0  0  0  0  0  0  0
   15.9070  -58.0290   34.7460 N   0  0  0  0  0  0  0  0  0  0  0  0
   15.6400  -57.1920   33.6300 C   0  0  0  0  0  0  0  0  0  0  0  0
   14.5040  -56.9000   33.2070 O   0  0  0  0  0  0  0  0  0  0  0  0
   17.8900  -55.0630   31.5760 C   0  0  0  0  0  1  0  0  0  0  0  0
   20.6060  -53.8070   36.1140 H   0  0  0  0  0  0  0  0  0  0  0  0
   16.2350  -54.3440   34.3410 H   0  0  0  0  0  0  0  0  0  0  0  0
   15.0090  -59.0020   35.3530 C   0  0  0  0  0  2  0  0  0  0  0  0
   14.0890  -58.3700   36.3540 C   0  0  0  0  0  2  0  0  0  0  0  0
   14.3670  -58.8000   37.7690 C   0  0  0  0  0  2  0  0  0  0  0  0
   13.0040  -58.9330   38.4570 C   0  0  0  0  0  1  0  0  0  0  0  0
  2  7  1  0  0  0  0
  2  1  1  0  0  0  0
  3  2  2  0  0  0  0
  4  5  2  0  0  0  0
  4  3  1  0  0  0  0
  5  6  1  0  0  0  0
  6  7  2  0  0  0  0
  8 22  1  0  0  0  0
  8  5  1  0  0  0  0
  9  8  1  0  0  0  0
 10  9  2  0  0  0  0
 11  9  1  6  0  0  0
 11  4  1  0  0  0  0
 12 23  1  0  0  0  0
 12 11  1  0  0  0  0
 13 21  1  6  0  0  0
 13 14  1  0  0  0  0
 13 12  1  0  0  0  0
 14 19  1  1  0  0  0
 14 15  1  0  0  0  0
 15 11  1  0  0  0  0
 15 16  1  1  0  0  0
 16 17  2  0  0  0  0
 18 16  1  0  0  0  0
 18 24  1  0  0  0  0
 19 18  1  0  0  0  0
 20 19  2  0  0  0  0
 24 25  1  0  0  0  0
 25 26  1  0  0  0  0
 26 27  1  0  0  0  0
M  END
>  <Pose>
1

>  <Score>
-8.163

$$$$
