MODEL 1
REMARK VINA RESULT:    -8.754      0.000      0.000
REMARK INTER + INTRA:         -12.043
REMARK INTER:                 -11.313
REMARK INTRA:                  -0.731
REMARK UNBOUND:                -0.731
REMARK  5 active torsions:
REMARK  status: ('A' for Active; 'I' for Inactive)
REMARK    1  A    between atoms: C_13  and  C_25 
REMARK    2  A    between atoms: N_18  and  C_21 
REMARK    3  A    between atoms: C_21  and  C_22 
REMARK    4  A    between atoms: C_22  and  O_23 
REMARK    5  A    between atoms: C_25  and  C_26 
REMARK       I    between atoms: C_26  and  N_28 
ROOT
ATOM      1 Br   UNK d   1      14.676 -55.144  39.235  0.00  0.00    -0.051 Br
ATOM      2  C   UNK d   1      15.561 -56.294  37.997  0.00  0.00     0.011 A 
ATOM      3  C   UNK d   1      16.304 -55.822  36.938  0.00  0.00     0.031 A 
ATOM      4  C   UNK d   1      16.949 -56.668  36.037  0.00  0.00     0.019 A 
ATOM      5  C   UNK d   1      16.845 -58.027  36.202  0.00  0.00     0.044 A 
ATOM      6  C   UNK d   1      16.103 -58.531  37.258  0.00  0.00     0.031 A 
ATOM      7  C   UNK d   1      15.466 -57.659  38.148  0.00  0.00     0.021 A 
ATOM      8  N   UNK d   1      17.581 -58.704  35.179  0.00  0.00    -0.324 N 
ATOM      9  C   UNK d   1      18.172 -57.728  34.338  0.00  0.00     0.267 A 
ATOM     10  O   UNK d   1      18.888 -58.012  33.358  0.00  0.00    -0.270 OA
ATOM     11  C   UNK d   1      17.790 -56.414  34.832  0.00  0.00     0.279 A 
ATOM     12  N   UNK d   1      19.021 -55.717  35.202  0.00  0.00     0.114 N 
ATOM     13  C   UNK d   1      18.825 -54.352  34.814  0.00  0.00     0.245 C 
ATOM     14  C   UNK d   1      18.052 -54.448  33.550  0.00  0.00     0.128 C 
ATOM     15  C   UNK d   1      17.058 -55.545  33.854  0.00  0.00     0.147 C 
ATOM     16  C   UNK d   1      16.767 -56.148  32.560  0.00  0.00     0.235 C 
ATOM     17  O   UNK d   1      15.785 -56.874  32.294  0.00  0.00    -0.272 OA
ATOM     18  N   UNK d   1      17.798 -55.764  31.659  0.00  0.00    -0.286 N 
ATOM     19  C   UNK d   1      18.794 -55.016  32.397  0.00  0.00     0.233 C 
ATOM     20  O   UNK d   1      19.980 -54.944  32.037  0.00  0.00    -0.272 OA
ATOM     21  H   UNK d   1      17.652 -59.756  35.092  0.00  0.00     0.169 HD
ATOM     22  H   UNK d   1      19.831 -56.093  34.654  0.00  0.00     0.318 HD
ENDROOT
BRANCH  13  23
ATOM     23  C   UNK d   1      20.085 -53.561  34.736  0.00  0.00     0.139 C 
BRANCH  23  24
ATOM     24  C   UNK d   1      19.972 -52.359  35.570  0.00  0.00     0.217 C 
ATOM     25  O   UNK d   1      20.472 -51.270  35.169  0.00  0.00    -0.274 OA
ATOM     26  N   UNK d   1      19.304 -52.403  36.829  0.00  0.00    -0.370 N 
ATOM     27  H   UNK d   1      18.821 -51.558  37.196  0.00  0.00     0.159 HD
ATOM     28  H   UNK d   1      19.303 -53.287  37.378  0.00  0.00     0.159 HD
ENDBRANCH  23  24
ENDBRANCH  13  23
BRANCH  18  29
ATOM     29  C   UNK d   1      17.810 -56.080  30.260  0.00  0.00     0.161 C 
BRANCH  29  30
ATOM     30  C   UNK d   1      18.225 -57.473  29.923  0.00  0.00     0.187 C 
BRANCH  30  31
ATOM     31  O   UNK d   1      17.158 -58.342  29.766  0.00  0.00    -0.394 OA
ATOM     32  C   UNK d   1      17.332 -59.510  30.504  0.00  0.00     0.201 C 
ENDBRANCH  30  31
ENDBRANCH  29  30
ENDBRANCH  18  29
TORSDOF 5
ENDMDL
