MODEL 1
REMARK VINA RESULT:    -9.155      0.000      0.000
REMARK INTER + INTRA:          -9.155
REMARK INTER:                  -9.155
REMARK INTRA:                   0.000
REMARK UNBOUND:                 0.000
REMARK  0 active torsions:
REMARK  status: ('A' for Active; 'I' for Inactive)
ROOT
ATOM      1 Br   UNK d   1      20.039 -55.796  30.705  0.00  0.00    -0.051 Br
ATOM      2  C   UNK d   1      19.210 -55.675  32.416  0.00  0.00     0.012 A 
ATOM      3  C   UNK d   1      18.840 -56.830  33.040  0.00  0.00     0.038 A 
ATOM      4  C   UNK d   1      18.235 -56.772  34.284  0.00  0.00     0.062 A 
ATOM      5  C   UNK d   1      18.005 -55.545  34.895  0.00  0.00     0.078 A 
ATOM      6  C   UNK d   1      18.374 -54.368  34.277  0.00  0.00     0.034 A 
ATOM      7  C   UNK d   1      18.971 -54.475  33.041  0.00  0.00     0.021 A 
ATOM      8  N   UNK d   1      17.399 -55.363  36.159  0.00  0.00    -0.195 N 
ATOM      9  N   UNK d   1      17.606 -54.249  36.870  0.00  0.00    -0.039 NA
ATOM     10  N   UNK d   1      16.915 -54.391  37.968  0.00  0.00    -0.023 NA
ATOM     11  N   UNK d   1      16.284 -55.553  37.971  0.00  0.00    -0.111 NA
ATOM     12  C   UNK d   1      16.592 -56.189  36.803  0.00  0.00     0.182 A 
ATOM     13  C   UNK d   1      16.038 -57.548  36.474  0.00  0.00     0.102 C 
ATOM     14  N   UNK d   1      17.069 -58.395  35.881  0.00  0.00    -0.340 N 
ATOM     15  C   UNK d   1      17.921 -58.120  34.774  0.00  0.00     0.255 C 
ATOM     16  O   UNK d   1      18.444 -59.097  34.169  0.00  0.00    -0.268 OA
ATOM     17  C   UNK d   1      15.007 -57.328  35.400  0.00  0.00     0.076 C 
ATOM     18  C   UNK d   1      14.070 -58.491  35.354  0.00  0.00     0.056 C 
ATOM     19  O   UNK d   1      13.418 -58.534  36.558  0.00  0.00    -0.381 OA
ATOM     20  C   UNK d   1      14.198 -58.822  37.645  0.00  0.00     0.171 C 
ATOM     21  C   UNK d   1      15.517 -58.180  37.711  0.00  0.00     0.066 C 
ATOM     22  C   UNK d   1      13.004 -58.240  34.280  0.00  0.00     0.045 C 
ATOM     23  C   UNK d   1      14.740 -59.787  34.987  0.00  0.00     0.045 C 
ATOM     24  H   UNK d   1      17.219 -59.353  36.321  0.00  0.00     0.164 HD
ENDROOT
TORSDOF 0
ENDMDL
