/Users/jonathanwahrer/Desktop/Msc/3_Semester/Drug_Design_Praktikum/waehrer_HTS_screening/HTS_experiment/out/docking_results/vina_output/6s1j/0588_docked.pdbqt
 OpenBabel03222221273D

 24 27  0  0  1  0  0  0  0  0999 V2000
   20.0390  -55.7960   30.7050 Br  0  0  0  0  0  0  0  0  0  0  0  0
   19.2100  -55.6750   32.4160 C   0  0  0  0  0  0  0  0  0  0  0  0
   18.8400  -56.8300   33.0400 C   0  0  0  0  0  3  0  0  0  0  0  0
   18.2350  -56.7720   34.2840 C   0  0  0  0  0  0  0  0  0  0  0  0
   18.0050  -55.5450   34.8950 C   0  0  0  0  0  0  0  0  0  0  0  0
   18.3740  -54.3680   34.2770 C   0  0  0  0  0  3  0  0  0  0  0  0
   18.9710  -54.4750   33.0410 C   0  0  0  0  0  3  0  0  0  0  0  0
   17.3990  -55.3630   36.1590 N   0  0  0  0  0  0  0  0  0  0  0  0
   17.6060  -54.2490   36.8700 N   0  0  0  0  0  0  0  0  0  0  0  0
   16.9150  -54.3910   37.9680 N   0  0  0  0  0  0  0  0  0  0  0  0
   16.2840  -55.5530   37.9710 N   0  0  0  0  0  0  0  0  0  0  0  0
   16.5920  -56.1890   36.8030 C   0  0  0  0  0  0  0  0  0  0  0  0
   16.0380  -57.5480   36.4740 C   0  0  2  0  0  0  0  0  0  0  0  0
   17.0690  -58.3950   35.8810 N   0  0  0  0  0  0  0  0  0  0  0  0
   17.9210  -58.1200   34.7740 C   0  0  0  0  0  0  0  0  0  0  0  0
   18.4440  -59.0970   34.1690 O   0  0  0  0  0  0  0  0  0  0  0  0
   15.0070  -57.3280   35.4000 C   0  0  0  0  0  2  0  0  0  0  0  0
   14.0700  -58.4910   35.3540 C   0  0  0  0  0  0  0  0  0  0  0  0
   13.4180  -58.5340   36.5580 O   0  0  0  0  0  0  0  0  0  0  0  0
   14.1980  -58.8220   37.6450 C   0  0  0  0  0  3  0  0  0  0  0  0
   15.5170  -58.1800   37.7110 C   0  0  0  0  0  3  0  0  0  0  0  0
   13.0040  -58.2400   34.2800 C   0  0  0  0  0  1  0  0  0  0  0  0
   14.7400  -59.7870   34.9870 C   0  0  0  0  0  1  0  0  0  0  0  0
   17.2190  -59.3530   36.3210 H   0  0  0  0  0  0  0  0  0  0  0  0
  1  2  1  0  0  0  0
  2  3  2  0  0  0  0
  2  7  1  0  0  0  0
  3  4  1  0  0  0  0
  4 15  1  0  0  0  0
  4  5  2  0  0  0  0
  5  8  1  0  0  0  0
  6  5  1  0  0  0  0
  7  6  2  0  0  0  0
  8 12  1  0  0  0  0
  8  9  1  0  0  0  0
  9 10  2  0  0  0  0
 10 11  1  0  0  0  0
 12 11  2  0  0  0  0
 13 17  1  6  0  0  0
 13 12  1  0  0  0  0
 13 21  1  0  0  0  0
 14 24  1  0  0  0  0
 14 13  1  0  0  0  0
 15 14  1  0  0  0  0
 16 15  2  0  0  0  0
 18 17  1  0  0  0  0
 18 19  1  0  0  0  0
 19 20  1  0  0  0  0
 20 21  2  0  0  0  0
 22 18  1  0  0  0  0
 23 18  1  0  0  0  0
M  END
>  <Pose>
1

>  <Score>
-9.155

$$$$
