MODEL 1
REMARK VINA RESULT:    -8.767      0.000      0.000
REMARK INTER + INTRA:          -8.767
REMARK INTER:                  -8.767
REMARK INTRA:                   0.000
REMARK UNBOUND:                 0.000
REMARK  0 active torsions:
REMARK  status: ('A' for Active; 'I' for Inactive)
ROOT
ATOM      1 Br   UNK d   1      19.276 -55.799  29.511  0.00  0.00    -0.051 Br
ATOM      2  C   UNK d   1      18.699 -55.883  31.341  0.00  0.00     0.012 A 
ATOM      3  C   UNK d   1      19.346 -55.147  32.311  0.00  0.00     0.038 A 
ATOM      4  C   UNK d   1      18.927 -55.210  33.624  0.00  0.00     0.061 A 
ATOM      5  C   UNK d   1      17.864 -55.993  34.033  0.00  0.00     0.072 A 
ATOM      6  C   UNK d   1      17.223 -56.729  33.040  0.00  0.00     0.034 A 
ATOM      7  C   UNK d   1      17.635 -56.671  31.726  0.00  0.00     0.021 A 
ATOM      8  N   UNK d   1      17.314 -56.170  35.318  0.00  0.00    -0.218 N 
ATOM      9  N   UNK d   1      16.468 -57.140  35.622  0.00  0.00     0.032 NA
ATOM     10  N   UNK d   1      16.152 -57.013  36.901  0.00  0.00    -0.052 NA
ATOM     11  N   UNK d   1      16.792 -55.978  37.390  0.00  0.00    -0.116 NA
ATOM     12  C   UNK d   1      17.543 -55.414  36.412  0.00  0.00     0.176 A 
ATOM     13  C   UNK d   1      18.363 -54.233  36.687  0.00  0.00     0.100 C 
ATOM     14  N   UNK d   1      19.530 -54.066  35.893  0.00  0.00    -0.340 N 
ATOM     15  C   UNK d   1      19.723 -54.370  34.521  0.00  0.00     0.255 C 
ATOM     16  O   UNK d   1      20.715 -53.868  33.926  0.00  0.00    -0.268 OA
ATOM     17  C   UNK d   1      17.550 -52.937  36.540  0.00  0.00     0.069 C 
ATOM     18  C   UNK d   1      18.060 -51.931  37.541  0.00  0.00     0.275 C 
ATOM     19  N   UNK d   1      17.521 -52.292  38.833  0.00  0.00     0.084 N 
ATOM     20  C   UNK d   1      17.733 -53.698  39.053  0.00  0.00     0.275 C 
ATOM     21  C   UNK d   1      18.788 -54.289  38.151  0.00  0.00     0.069 C 
ATOM     22  C   UNK d   1      16.099 -51.953  38.829  0.00  0.00     0.309 C 
ATOM     23  H   UNK d   1      20.353 -53.665  36.388  0.00  0.00     0.164 HD
ENDROOT
TORSDOF 0
ENDMDL
