MODEL 1
REMARK VINA RESULT:    -6.753      0.000      0.000
REMARK INTER + INTRA:          -6.950
REMARK INTER:                  -6.950
REMARK INTRA:                   0.000
REMARK UNBOUND:                 0.000
REMARK  1 active torsions:
REMARK  status: ('A' for Active; 'I' for Inactive)
REMARK    1  A    between atoms: C_9  and  N_23 
ROOT
ATOM      1 Br   UNK d   1      16.071 -63.093  32.950  0.00  0.00    -0.051 Br
ATOM      2  C   UNK d   1      16.436 -61.325  32.363  0.00  0.00     0.011 A 
ATOM      3  C   UNK d   1      16.510 -60.322  33.289  0.00  0.00     0.031 A 
ATOM      4  C   UNK d   1      16.778 -59.019  32.856  0.00  0.00     0.005 A 
ATOM      5  C   UNK d   1      16.958 -58.793  31.531  0.00  0.00     0.086 A 
ATOM      6  C   UNK d   1      16.881 -59.831  30.579  0.00  0.00     0.039 A 
ATOM      7  C   UNK d   1      16.616 -61.108  31.008  0.00  0.00     0.022 A 
ATOM      8  O   UNK d   1      17.226 -57.524  31.052  0.00  0.00    -0.292 OA
ATOM      9  C   UNK d   1      17.308 -56.483  31.952  0.00  0.00     0.160 A 
ATOM     10  C   UNK d   1      17.147 -56.625  33.246  0.00  0.00     0.100 A 
ATOM     11  C   UNK d   1      16.862 -57.923  33.843  0.00  0.00     0.145 A 
ATOM     12  C   UNK d   1      15.673 -57.900  34.729  0.00  0.00     0.041 A 
ATOM     13  C   UNK d   1      16.074 -58.189  36.003  0.00  0.00     0.160 A 
ATOM     14  N   UNK d   1      14.977 -58.166  36.816  0.00  0.00    -0.156 NA
ATOM     15  N   UNK d   1      13.946 -57.871  36.045  0.00  0.00    -0.280 N 
ATOM     16  C   UNK d   1      14.321 -57.701  34.771  0.00  0.00     0.036 A 
ATOM     17  C   UNK d   1      13.386 -57.360  33.656  0.00  0.00     0.070 C 
ATOM     18  N   UNK d   1      17.467 -58.410  36.061  0.00  0.00    -0.308 N 
ATOM     19  C   UNK d   1      17.973 -58.256  34.760  0.00  0.00     0.247 A 
ATOM     20  O   UNK d   1      19.173 -58.373  34.392  0.00  0.00    -0.271 OA
ATOM     21  C   UNK d   1      17.249 -55.485  34.126  0.00  0.00     0.101 C 
ATOM     22  N   UNK d   1      17.348 -54.578  34.839  0.00  0.00    -0.191 NA
ATOM     23  H   UNK d   1      12.970 -57.792  36.437  0.00  0.00     0.189 HD
ATOM     24  H   UNK d   1      18.017 -58.653  36.951  0.00  0.00     0.170 HD
ENDROOT
BRANCH   9  25
ATOM     25  N   UNK d   1      17.587 -55.170  31.439  0.00  0.00    -0.379 N 
ATOM     26  H   UNK d   1      18.576 -54.882  31.275  0.00  0.00     0.158 HD
ATOM     27  H   UNK d   1      16.831 -54.483  31.221  0.00  0.00     0.158 HD
ENDBRANCH   9  25
TORSDOF 1
ENDMDL
