MODEL 1
REMARK VINA RESULT:    -9.502      0.000      0.000
REMARK INTER + INTRA:         -11.513
REMARK INTER:                 -11.168
REMARK INTRA:                  -0.345
REMARK UNBOUND:                -0.345
REMARK  3 active torsions:
REMARK  status: ('A' for Active; 'I' for Inactive)
REMARK    1  A    between atoms: C_11  and  C_13 
REMARK    2  A    between atoms: C_23  and  C_24 
REMARK    3  A    between atoms: C_24  and  N_25 
ROOT
ATOM      1  C   UNK d   1      17.968 -56.228  33.796  0.00  0.00    -0.001 A 
ATOM      2  C   UNK d   1      17.231 -56.890  34.765  0.00  0.00     0.096 A 
ATOM      3  C   UNK d   1      17.183 -56.407  36.055  0.00  0.00     0.289 A 
ATOM      4  O   UNK d   1      16.488 -57.071  36.888  0.00  0.00    -0.260 OA
ATOM      5  O   UNK d   1      17.822 -55.327  36.384  0.00  0.00    -0.274 OA
ATOM      6  C   UNK d   1      18.518 -54.669  35.540  0.00  0.00     0.101 A 
ATOM      7  C   UNK d   1      18.623 -55.091  34.200  0.00  0.00     0.010 A 
ATOM      8  C   UNK d   1      19.364 -54.361  33.318  0.00  0.00     0.018 A 
ATOM      9  C   UNK d   1      20.001 -53.210  33.794  0.00  0.00     0.041 A 
ATOM     10  C   UNK d   1      19.882 -52.824  35.114  0.00  0.00     0.118 A 
ATOM     11  C   UNK d   1      19.140 -53.536  36.031  0.00  0.00     0.039 A 
ATOM     12  O   UNK d   1      20.568 -51.650  35.492  0.00  0.00    -0.191 OA
ENDROOT
BRANCH   1  13
ATOM     13  C   UNK d   1      18.079 -56.760  32.439  0.00  0.00     0.052 A 
ATOM     14  C   UNK d   1      16.962 -56.909  31.644  0.00  0.00     0.299 A 
ATOM     15  O   UNK d   1      17.058 -57.405  30.461  0.00  0.00    -0.274 OA
ATOM     16  O   UNK d   1      15.866 -56.526  32.160  0.00  0.00    -0.259 OA
ATOM     17  C   UNK d   1      18.214 -57.802  29.926  0.00  0.00     0.089 A 
ATOM     18  C   UNK d   1      19.369 -57.678  30.670  0.00  0.00     0.000 A 
ATOM     19  C   UNK d   1      18.231 -58.329  28.643  0.00  0.00     0.039 A 
ATOM     20  C   UNK d   1      20.553 -58.098  30.091  0.00  0.00     0.033 A 
ATOM     21  C   UNK d   1      19.299 -57.154  31.937  0.00  0.00     0.032 A 
ATOM     22  C   UNK d   1      20.632 -58.630  28.817  0.00  0.00     0.011 A 
ATOM     23 Br   UNK d   1      22.288 -59.173  28.072  0.00  0.00    -0.051 Br
ATOM     24  C   UNK d   1      19.429 -58.736  28.104  0.00  0.00     0.022 A 
ENDBRANCH   1  13
BRANCH  11  25
ATOM     25  C   UNK d   1      19.145 -53.127  37.409  0.00  0.00     0.278 C 
BRANCH  25  26
ATOM     26  N   UNK d   1      18.065 -53.307  38.291  0.00  0.00    -0.075 N 
ATOM     27  C   UNK d   1      18.339 -53.912  39.565  0.00  0.00     0.269 C 
ATOM     28  C   UNK d   1      17.223 -52.088  38.407  0.00  0.00     0.269 C 
ATOM     29  H   UNK d   1      17.406 -54.000  37.831  0.00  0.00     0.279 HD
ENDBRANCH  25  26
ENDBRANCH  11  25
TORSDOF 3
ENDMDL
