/Users/jonathanwahrer/Desktop/Msc/3_Semester/Drug_Design_Praktikum/waehrer_HTS_screening/HTS_experiment/out/docking_results/vina_output/6s1j/0596_docked.pdbqt
 OpenBabel03222221273D

 29 32  0  0  0  0  0  0  0  0999 V2000
   17.9680  -56.2280   33.7960 C   0  0  0  0  0  0  0  0  0  0  0  0
   17.2310  -56.8900   34.7650 C   0  0  0  0  0  3  0  0  0  0  0  0
   17.1830  -56.4070   36.0550 C   0  0  0  0  0  0  0  0  0  0  0  0
   16.4880  -57.0710   36.8880 O   0  0  0  0  0  0  0  0  0  0  0  0
   17.8220  -55.3270   36.3840 O   0  0  0  0  0  0  0  0  0  0  0  0
   18.5180  -54.6690   35.5400 C   0  0  0  0  0  0  0  0  0  0  0  0
   18.6230  -55.0910   34.2000 C   0  0  0  0  0  0  0  0  0  0  0  0
   19.3640  -54.3610   33.3180 C   0  0  0  0  0  3  0  0  0  0  0  0
   20.0010  -53.2100   33.7940 C   0  0  0  0  0  3  0  0  0  0  0  0
   19.8820  -52.8240   35.1140 C   0  0  0  0  0  0  0  0  0  0  0  0
   19.1400  -53.5360   36.0310 C   0  0  0  0  0  0  0  0  0  0  0  0
   20.5680  -51.6500   35.4920 O   0  0  0  0  0  1  0  0  0  0  0  0
   18.0790  -56.7600   32.4390 C   0  0  0  0  0  0  0  0  0  0  0  0
   16.9620  -56.9090   31.6440 C   0  0  0  0  0  0  0  0  0  0  0  0
   17.0580  -57.4050   30.4610 O   0  0  0  0  0  0  0  0  0  0  0  0
   15.8660  -56.5260   32.1600 O   0  0  0  0  0  0  0  0  0  0  0  0
   18.2140  -57.8020   29.9260 C   0  0  0  0  0  0  0  0  0  0  0  0
   19.3690  -57.6780   30.6700 C   0  0  0  0  0  0  0  0  0  0  0  0
   18.2310  -58.3290   28.6430 C   0  0  0  0  0  3  0  0  0  0  0  0
   20.5530  -58.0980   30.0910 C   0  0  0  0  0  3  0  0  0  0  0  0
   19.2990  -57.1540   31.9370 C   0  0  0  0  0  3  0  0  0  0  0  0
   20.6320  -58.6300   28.8170 C   0  0  0  0  0  0  0  0  0  0  0  0
   22.2880  -59.1730   28.0720 Br  0  0  0  0  0  0  0  0  0  0  0  0
   19.4290  -58.7360   28.1040 C   0  0  0  0  0  3  0  0  0  0  0  0
   19.1450  -53.1270   37.4090 C   0  0  0  0  0  2  0  0  0  0  0  0
   18.0650  -53.3070   38.2910 N   0  0  0  0  0  4  0  0  0  0  0  0
   18.3390  -53.9120   39.5650 C   0  0  0  0  0  1  0  0  0  0  0  0
   17.2230  -52.0880   38.4070 C   0  0  0  0  0  1  0  0  0  0  0  0
   17.4060  -54.0000   37.8310 H   0  0  0  0  0  0  0  0  0  0  0  0
  1  7  1  0  0  0  0
  1  2  2  0  0  0  0
  2  3  1  0  0  0  0
  3  5  1  0  0  0  0
  3  4  2  0  0  0  0
  6 11  1  0  0  0  0
  6  5  1  0  0  0  0
  7  6  2  0  0  0  0
  8  9  2  0  0  0  0
  8  7  1  0  0  0  0
  9 10  1  0  0  0  0
 10 12  1  0  0  0  0
 10 11  2  0  0  0  0
 11 25  1  0  0  0  0
 13  1  1  0  0  0  0
 14 16  2  0  0  0  0
 14 13  1  0  0  0  0
 15 14  1  0  0  0  0
 17 15  1  0  0  0  0
 17 18  1  0  0  0  0
 18 21  1  0  0  0  0
 19 17  2  0  0  0  0
 20 18  2  0  0  0  0
 21 13  2  0  0  0  0
 22 20  1  0  0  0  0
 23 22  1  0  0  0  0
 24 19  1  0  0  0  0
 24 22  2  0  0  0  0
 25 26  1  0  0  0  0
 26 28  1  0  0  0  0
 26 27  1  0  0  0  0
 29 26  1  0  0  0  0
M  END
>  <Pose>
1

>  <Score>
-9.502

$$$$
