MODEL 1
REMARK VINA RESULT:    -8.240      0.000      0.000
REMARK INTER + INTRA:         -11.281
REMARK INTER:                 -10.649
REMARK INTRA:                  -0.633
REMARK UNBOUND:                -0.633
REMARK  5 active torsions:
REMARK  status: ('A' for Active; 'I' for Inactive)
REMARK    1  A    between atoms: C_7  and  N_17 
REMARK    2  A    between atoms: C_9  and  C_10 
REMARK       I    between atoms: N_20  and  C_23 
REMARK    3  A    between atoms: C_23  and  C_25 
REMARK    4  A    between atoms: C_25  and  C_26 
REMARK    5  A    between atoms: C_26  and  C_27 
ROOT
ATOM      1 Br   UNK d   1      17.608 -52.949  37.407  0.00  0.00    -0.051 Br
ATOM      2  C   UNK d   1      18.516 -53.402  35.791  0.00  0.00     0.011 A 
ATOM      3  C   UNK d   1      18.084 -54.469  35.009  0.00  0.00     0.035 A 
ATOM      4  C   UNK d   1      18.744 -54.799  33.833  0.00  0.00     0.024 A 
ATOM      5  C   UNK d   1      19.839 -54.066  33.428  0.00  0.00     0.073 A 
ATOM      6  N   UNK d   1      20.483 -54.384  32.277  0.00  0.00    -0.207 NA
ATOM      7  C   UNK d   1      20.083 -55.408  31.502  0.00  0.00     0.327 A 
ATOM      8  N   UNK d   1      19.018 -56.108  31.910  0.00  0.00    -0.206 NA
ATOM      9  C   UNK d   1      18.333 -55.850  33.039  0.00  0.00     0.085 A 
ATOM     10  C   UNK d   1      20.251 -53.007  34.227  0.00  0.00     0.034 A 
ATOM     11  C   UNK d   1      19.611 -52.662  35.397  0.00  0.00     0.021 A 
ENDROOT
BRANCH   7  12
ATOM     12  N   UNK d   1      20.786 -55.713  30.291  0.00  0.00    -0.004 N 
ATOM     13  C   UNK d   1      20.009 -55.302  29.153  0.00  0.00     0.265 C 
ATOM     14  C   UNK d   1      18.854 -56.192  28.841  0.00  0.00     0.154 C 
ATOM     15  N   UNK d   1      18.922 -57.455  29.543  0.00  0.00    -0.349 N 
ATOM     16  C   UNK d   1      20.234 -58.044  29.698  0.00  0.00     0.154 C 
ATOM     17  C   UNK d   1      17.722 -58.029  30.027  0.00  0.00     0.220 C 
ATOM     18  C   UNK d   1      21.240 -57.068  30.225  0.00  0.00     0.265 C 
ATOM     19  O   UNK d   1      16.621 -57.460  29.855  0.00  0.00    -0.273 OA
ATOM     20  H   UNK d   1      21.631 -55.066  30.308  0.00  0.00     0.290 HD
BRANCH  17  21
ATOM     21  C   UNK d   1      17.848 -59.332  30.742  0.00  0.00     0.113 C 
BRANCH  21  22
ATOM     22  C   UNK d   1      16.796 -60.305  30.302  0.00  0.00     0.122 C 
BRANCH  22  23
ATOM     23  C   UNK d   1      15.936 -60.770  31.401  0.00  0.00     0.172 C 
ATOM     24  O   UNK d   1      14.723 -60.478  31.450  0.00  0.00    -0.648 OA
ATOM     25  O   UNK d   1      16.480 -61.547  32.403  0.00  0.00    -0.648 OA
ENDBRANCH  22  23
ENDBRANCH  21  22
ENDBRANCH  17  21
ENDBRANCH   7  12
BRANCH   9  26
ATOM     26  C   UNK d   1      17.187 -56.672  33.392  0.00  0.00     0.015 A 
ATOM     27  C   UNK d   1      17.363 -57.860  34.088  0.00  0.00     0.046 A 
ATOM     28  C   UNK d   1      16.300 -58.659  34.452  0.00  0.00     0.025 A 
ATOM     29 Cl   UNK d   1      19.010 -58.340  34.504  0.00  0.00    -0.083 Cl
ATOM     30  C   UNK d   1      15.004 -58.305  34.138  0.00  0.00     0.002 A 
ATOM     31  C   UNK d   1      14.830 -57.115  33.442  0.00  0.00     0.001 A 
ATOM     32  C   UNK d   1      15.898 -56.323  33.081  0.00  0.00     0.015 A 
ENDBRANCH   9  26
TORSDOF 5
ENDMDL
