/Users/jonathanwahrer/Desktop/Msc/3_Semester/Drug_Design_Praktikum/waehrer_HTS_screening/HTS_experiment/out/docking_results/vina_output/6s1j/0610_docked.pdbqt
 OpenBabel03222221273D

 32 35  0  0  0  0  0  0  0  0999 V2000
   17.6080  -52.9490   37.4070 Br  0  0  0  0  0  0  0  0  0  0  0  0
   18.5160  -53.4020   35.7910 C   0  0  0  0  0  0  0  0  0  0  0  0
   18.0840  -54.4690   35.0090 C   0  0  0  0  0  3  0  0  0  0  0  0
   18.7440  -54.7990   33.8330 C   0  0  0  0  0  0  0  0  0  0  0  0
   19.8390  -54.0660   33.4280 C   0  0  0  0  0  0  0  0  0  0  0  0
   20.4830  -54.3840   32.2770 N   0  0  0  0  0  0  0  0  0  0  0  0
   20.0830  -55.4080   31.5020 C   0  0  0  0  0  0  0  0  0  0  0  0
   19.0180  -56.1080   31.9100 N   0  0  0  0  0  0  0  0  0  0  0  0
   18.3330  -55.8500   33.0390 C   0  0  0  0  0  0  0  0  0  0  0  0
   20.2510  -53.0070   34.2270 C   0  0  0  0  0  3  0  0  0  0  0  0
   19.6110  -52.6620   35.3970 C   0  0  0  0  0  3  0  0  0  0  0  0
   20.7860  -55.7130   30.2910 N   0  0  0  0  0  4  0  0  0  0  0  0
   20.0090  -55.3020   29.1530 C   0  0  0  0  0  2  0  0  0  0  0  0
   18.8540  -56.1920   28.8410 C   0  0  0  0  0  2  0  0  0  0  0  0
   18.9220  -57.4550   29.5430 N   0  0  0  0  0  0  0  0  0  0  0  0
   20.2340  -58.0440   29.6980 C   0  0  0  0  0  2  0  0  0  0  0  0
   17.7220  -58.0290   30.0270 C   0  0  0  0  0  0  0  0  0  0  0  0
   21.2400  -57.0680   30.2250 C   0  0  0  0  0  2  0  0  0  0  0  0
   16.6210  -57.4600   29.8550 O   0  0  0  0  0  0  0  0  0  0  0  0
   21.6310  -55.0660   30.3080 H   0  0  0  0  0  0  0  0  0  0  0  0
   17.8480  -59.3320   30.7420 C   0  0  0  0  0  2  0  0  0  0  0  0
   16.7960  -60.3050   30.3020 C   0  0  0  0  0  2  0  0  0  0  0  0
   15.9360  -60.7700   31.4010 C   0  0  0  0  0  0  0  0  0  0  0  0
   14.7230  -60.4780   31.4500 O   0  0  0  0  0  0  0  0  0  0  0  0
   16.4800  -61.5470   32.4030 O   0  0  0  0  0  1  0  0  0  0  0  0
   17.1870  -56.6720   33.3920 C   0  0  0  0  0  0  0  0  0  0  0  0
   17.3630  -57.8600   34.0880 C   0  0  0  0  0  0  0  0  0  0  0  0
   16.3000  -58.6590   34.4520 C   0  0  0  0  0  3  0  0  0  0  0  0
   19.0100  -58.3400   34.5040 Cl  0  0  0  0  0  0  0  0  0  0  0  0
   15.0040  -58.3050   34.1380 C   0  0  0  0  0  3  0  0  0  0  0  0
   14.8300  -57.1150   33.4420 C   0  0  0  0  0  3  0  0  0  0  0  0
   15.8980  -56.3230   33.0810 C   0  0  0  0  0  3  0  0  0  0  0  0
  2  1  1  0  0  0  0
  3  2  2  0  0  0  0
  4  3  1  0  0  0  0
  5  4  2  0  0  0  0
  5 10  1  0  0  0  0
  6  5  1  0  0  0  0
  7  8  1  0  0  0  0
  7  6  2  0  0  0  0
  8  9  2  0  0  0  0
  9 26  1  0  0  0  0
  9  4  1  0  0  0  0
 10 11  2  0  0  0  0
 11  2  1  0  0  0  0
 12 20  1  0  0  0  0
 12  7  1  0  0  0  0
 13 12  1  0  0  0  0
 14 13  1  0  0  0  0
 14 15  1  0  0  0  0
 15 16  1  0  0  0  0
 15 17  1  0  0  0  0
 16 18  1  0  0  0  0
 17 21  1  0  0  0  0
 18 12  1  0  0  0  0
 19 17  2  0  0  0  0
 22 21  1  0  0  0  0
 22 23  1  0  0  0  0
 23 24  2  0  0  0  0
 23 25  1  0  0  0  0
 26 27  1  0  0  0  0
 27 28  2  0  0  0  0
 27 29  1  0  0  0  0
 30 28  1  0  0  0  0
 31 30  2  0  0  0  0
 32 26  2  0  0  0  0
 32 31  1  0  0  0  0
M  END
>  <Pose>
1

>  <Score>
-8.240

$$$$
