MODEL 1
REMARK VINA RESULT:    -9.515      0.000      0.000
REMARK INTER + INTRA:         -13.386
REMARK INTER:                 -12.853
REMARK INTRA:                  -0.533
REMARK UNBOUND:                -0.533
REMARK  6 active torsions:
REMARK  status: ('A' for Active; 'I' for Inactive)
REMARK    1  A    between atoms: C_7  and  N_17 
REMARK    2  A    between atoms: C_9  and  C_10 
REMARK       I    between atoms: N_20  and  C_23 
REMARK    3  A    between atoms: C_23  and  C_25 
REMARK    4  A    between atoms: C_25  and  C_26 
REMARK    5  A    between atoms: C_26  and  C_27 
REMARK    6  A    between atoms: C_27  and  C_28 
ROOT
ATOM      1 Br   UNK d   1      16.983 -52.927  38.828  0.00  0.00    -0.051 Br
ATOM      2  C   UNK d   1      17.713 -53.517  37.163  0.00  0.00     0.011 A 
ATOM      3  C   UNK d   1      17.314 -54.699  36.564  0.00  0.00     0.035 A 
ATOM      4  C   UNK d   1      17.821 -55.152  35.365  0.00  0.00     0.024 A 
ATOM      5  C   UNK d   1      18.780 -54.407  34.703  0.00  0.00     0.073 A 
ATOM      6  N   UNK d   1      19.298 -54.839  33.526  0.00  0.00    -0.207 NA
ATOM      7  C   UNK d   1      18.915 -55.990  32.949  0.00  0.00     0.327 A 
ATOM      8  N   UNK d   1      17.981 -56.715  33.592  0.00  0.00    -0.206 NA
ATOM      9  C   UNK d   1      17.433 -56.329  34.768  0.00  0.00     0.085 A 
ATOM     10  C   UNK d   1      19.183 -53.229  35.291  0.00  0.00     0.034 A 
ATOM     11  C   UNK d   1      18.669 -52.778  36.500  0.00  0.00     0.021 A 
ENDROOT
BRANCH   7  12
ATOM     12  N   UNK d   1      19.480 -56.411  31.712  0.00  0.00    -0.004 N 
ATOM     13  C   UNK d   1      18.713 -55.909  30.594  0.00  0.00     0.265 C 
ATOM     14  C   UNK d   1      19.563 -55.979  29.365  0.00  0.00     0.154 C 
ATOM     15  N   UNK d   1      20.694 -56.843  29.634  0.00  0.00    -0.349 N 
ATOM     16  C   UNK d   1      20.428 -58.092  30.325  0.00  0.00     0.154 C 
ATOM     17  C   UNK d   1      21.975 -56.439  29.219  0.00  0.00     0.219 C 
ATOM     18  C   UNK d   1      19.573 -57.841  31.573  0.00  0.00     0.265 C 
ATOM     19  O   UNK d   1      22.940 -57.203  29.467  0.00  0.00    -0.273 OA
ATOM     20  H   UNK d   1      20.446 -56.024  31.670  0.00  0.00     0.290 HD
BRANCH  17  21
ATOM     21  C   UNK d   1      22.213 -55.175  28.521  0.00  0.00     0.103 C 
BRANCH  21  22
ATOM     22  C   UNK d   1      23.626 -55.129  28.015  0.00  0.00     0.020 C 
BRANCH  22  23
ATOM     23  C   UNK d   1      24.067 -53.731  27.641  0.00  0.00     0.113 C 
BRANCH  23  24
ATOM     24  C   UNK d   1      25.230 -53.262  28.420  0.00  0.00     0.172 C 
ATOM     25  O   UNK d   1      25.862 -54.117  29.084  0.00  0.00    -0.648 OA
ATOM     26  O   UNK d   1      25.587 -51.922  28.399  0.00  0.00    -0.648 OA
ENDBRANCH  23  24
ENDBRANCH  22  23
ENDBRANCH  21  22
ENDBRANCH  17  21
ENDBRANCH   7  12
BRANCH   9  27
ATOM     27  C   UNK d   1      16.428 -57.153  35.422  0.00  0.00     0.015 A 
ATOM     28  C   UNK d   1      15.205 -57.424  34.828  0.00  0.00     0.046 A 
ATOM     29  C   UNK d   1      14.233 -58.190  35.448  0.00  0.00     0.025 A 
ATOM     30 Cl   UNK d   1      14.865 -56.776  33.232  0.00  0.00    -0.083 Cl
ATOM     31  C   UNK d   1      14.525 -58.697  36.720  0.00  0.00     0.002 A 
ATOM     32  C   UNK d   1      15.731 -58.445  37.338  0.00  0.00     0.001 A 
ATOM     33  C   UNK d   1      16.655 -57.687  36.692  0.00  0.00     0.015 A 
ENDBRANCH   9  27
TORSDOF 6
ENDMDL
