MODEL 1
REMARK VINA RESULT:    -8.311      0.000      0.000
REMARK INTER + INTRA:         -10.209
REMARK INTER:                  -9.769
REMARK INTRA:                  -0.440
REMARK UNBOUND:                -0.440
REMARK  3 active torsions:
REMARK  status: ('A' for Active; 'I' for Inactive)
REMARK    1  A    between atoms: C_7  and  C_9 
REMARK       I    between atoms: C_9  and  N_11 
REMARK       I    between atoms: N_14  and  C_17 
REMARK    2  A    between atoms: C_17  and  C_19 
REMARK    3  A    between atoms: C_19  and  N_20 
ROOT
ATOM      1  C   UNK d   1      15.972 -56.925  36.920  0.00  0.00     0.270 C 
ATOM      2  O   UNK d   1      15.825 -57.626  37.993  0.00  0.00    -0.266 OA
ATOM      3  N   UNK d   1      15.545 -57.531  35.738  0.00  0.00    -0.344 N 
ATOM      4  C   UNK d   1      15.615 -56.969  34.416  0.00  0.00     0.146 C 
ATOM      5  C   UNK d   1      15.108 -57.944  33.346  0.00  0.00     0.145 C 
ATOM      6  N   UNK d   1      15.732 -59.240  33.567  0.00  0.00    -0.348 N 
ATOM      7  C   UNK d   1      15.836 -59.774  34.926  0.00  0.00     0.145 C 
ATOM      8  C   UNK d   1      14.940 -58.888  35.796  0.00  0.00     0.146 C 
ATOM      9  C   UNK d   1      16.247 -59.997  32.492  0.00  0.00     0.248 C 
ATOM     10  O   UNK d   1      16.146 -59.503  31.344  0.00  0.00    -0.271 OA
ENDROOT
BRANCH   1  11
ATOM     11  C   UNK d   1      16.554 -55.602  37.036  0.00  0.00     0.102 A 
ATOM     12  N   UNK d   1      16.229 -54.543  37.782  0.00  0.00    -0.351 N 
ATOM     13  C   UNK d   1      17.073 -53.492  37.543  0.00  0.00     0.043 A 
ATOM     14  H   UNK d   1      15.464 -54.461  38.468  0.00  0.00     0.166 HD
ATOM     15  C   UNK d   1      17.987 -53.879  36.602  0.00  0.00    -0.006 A 
ATOM     16  C   UNK d   1      17.141 -52.211  38.058  0.00  0.00     0.031 A 
ATOM     17  C   UNK d   1      18.969 -52.980  36.178  0.00  0.00     0.032 A 
ATOM     18  C   UNK d   1      17.677 -55.171  36.286  0.00  0.00     0.049 A 
ATOM     19  C   UNK d   1      19.043 -51.707  36.682  0.00  0.00     0.011 A 
ATOM     20 Br   UNK d   1      20.386 -50.465  36.106  0.00  0.00    -0.051 Br
ATOM     21  C   UNK d   1      18.119 -51.325  37.630  0.00  0.00     0.021 A 
ENDBRANCH   1  11
BRANCH   9  22
ATOM     22  C   UNK d   1      16.863 -61.288  32.758  0.00  0.00     0.374 C 
BRANCH  22  23
ATOM     23  N   UNK d   1      16.242 -62.410  32.090  0.00  0.00     0.101 N 
ATOM     24  C   UNK d   1      14.848 -62.512  32.528  0.00  0.00     0.299 C 
ATOM     25  C   UNK d   1      14.701 -63.510  33.623  0.00  0.00     0.198 C 
ATOM     26  O   UNK d   1      15.816 -63.494  34.458  0.00  0.00    -0.388 OA
ATOM     27  C   UNK d   1      16.941 -64.010  33.810  0.00  0.00     0.198 C 
ATOM     28  C   UNK d   1      16.929 -63.666  32.338  0.00  0.00     0.299 C 
ENDBRANCH  22  23
ENDBRANCH   9  22
TORSDOF 3
ENDMDL
