MODEL 1
REMARK VINA RESULT:    -8.843      0.000      0.000
REMARK INTER + INTRA:         -10.348
REMARK INTER:                 -10.394
REMARK INTRA:                   0.046
REMARK UNBOUND:                 0.046
REMARK  3 active torsions:
REMARK  status: ('A' for Active; 'I' for Inactive)
REMARK    1  A    between atoms: N_11  and  C_14 
REMARK    2  A    between atoms: C_14  and  C_15 
REMARK    3  A    between atoms: C_15  and  N_16 
ROOT
ATOM      1 Br   UNK d   1      20.190 -51.460  35.821  0.00  0.00    -0.051 Br
ATOM      2  C   UNK d   1      18.739 -52.213  36.795  0.00  0.00     0.011 A 
ATOM      3  C   UNK d   1      18.335 -53.515  36.588  0.00  0.00     0.035 A 
ATOM      4  C   UNK d   1      17.284 -54.076  37.286  0.00  0.00     0.023 A 
ATOM      5  C   UNK d   1      16.629 -53.292  38.217  0.00  0.00     0.045 A 
ATOM      6  N   UNK d   1      15.668 -54.077  38.736  0.00  0.00    -0.349 N 
ATOM      7  C   UNK d   1      15.692 -55.312  38.175  0.00  0.00     0.131 A 
ATOM      8  C   UNK d   1      16.715 -55.331  37.251  0.00  0.00     0.103 A 
ATOM      9  N   UNK d   1      16.933 -56.466  36.559  0.00  0.00    -0.240 NA
ATOM     10  C   UNK d   1      16.187 -57.572  36.746  0.00  0.00     0.213 A 
ATOM     11  N   UNK d   1      15.188 -57.583  37.638  0.00  0.00    -0.305 N 
ATOM     12  C   UNK d   1      14.953 -56.462  38.337  0.00  0.00     0.277 A 
ATOM     13  O   UNK d   1      14.020 -56.454  39.178  0.00  0.00    -0.265 OA
ATOM     14  C   UNK d   1      17.044 -51.988  38.413  0.00  0.00     0.032 A 
ATOM     15  C   UNK d   1      18.093 -51.418  37.719  0.00  0.00     0.021 A 
ATOM     16  H   UNK d   1      14.987 -53.801  39.467  0.00  0.00     0.166 HD
ENDROOT
BRANCH  11  17
ATOM     17  C   UNK d   1      14.367 -58.788  37.846  0.00  0.00     0.152 C 
BRANCH  17  18
ATOM     18  C   UNK d   1      12.962 -58.531  37.456  0.00  0.00     0.137 C 
BRANCH  18  19
ATOM     19  N   UNK d   1      12.478 -59.218  36.315  0.00  0.00    -0.408 N 
ATOM     20  C   UNK d   1      11.364 -60.072  36.542  0.00  0.00     0.147 C 
ATOM     21  C   UNK d   1      11.743 -61.510  36.753  0.00  0.00     0.289 C 
ATOM     22  N   UNK d   1      12.854 -61.920  35.920  0.00  0.00     0.086 N 
ATOM     23  C   UNK d   1      13.059 -60.991  34.822  0.00  0.00     0.289 C 
ATOM     24  H   UNK d   1      13.734 -62.050  36.468  0.00  0.00     0.316 HD
ATOM     25  C   UNK d   1      13.495 -59.686  35.442  0.00  0.00     0.147 C 
ENDBRANCH  18  19
ENDBRANCH  17  18
ENDBRANCH  11  17
TORSDOF 3
ENDMDL
