MODEL 1
REMARK VINA RESULT:    -9.987      0.000      0.000
REMARK INTER + INTRA:         -10.571
REMARK INTER:                 -10.570
REMARK INTRA:                  -0.001
REMARK UNBOUND:                -0.001
REMARK  1 active torsions:
REMARK  status: ('A' for Active; 'I' for Inactive)
REMARK    1  A    between atoms: C_10  and  C_15 
REMARK       I    between atoms: C_15  and  N_17 
ROOT
ATOM      1 Br   UNK d   1      20.333 -50.640  36.153  0.00  0.00    -0.051 Br
ATOM      2  C   UNK d   1      19.018 -51.894  36.722  0.00  0.00     0.012 A 
ATOM      3  C   UNK d   1      18.147 -51.535  37.729  0.00  0.00     0.028 A 
ATOM      4  C   UNK d   1      17.169 -52.435  38.170  0.00  0.00    -0.027 A 
ATOM      5  C   UNK d   1      17.107 -53.656  37.579  0.00  0.00     0.055 A 
ATOM      6  C   UNK d   1      17.954 -54.059  36.570  0.00  0.00     0.044 A 
ATOM      7  C   UNK d   1      18.903 -53.161  36.156  0.00  0.00     0.037 A 
ATOM      8  C   UNK d   1      17.780 -55.319  36.064  0.00  0.00     0.201 A 
ATOM      9  O   UNK d   1      18.537 -55.695  35.153  0.00  0.00    -0.286 OA
ATOM     10  C   UNK d   1      16.799 -56.183  36.526  0.00  0.00     0.098 A 
ATOM     11  C   UNK d   1      15.985 -55.719  37.536  0.00  0.00     0.112 A 
ATOM     12  N   UNK d   1      16.151 -54.458  38.051  0.00  0.00    -0.354 N 
ATOM     13  C   UNK d   1      15.455 -53.733  39.090  0.00  0.00     0.133 A 
ATOM     14  C   UNK d   1      16.110 -52.383  39.193  0.00  0.00     0.061 A 
ENDROOT
BRANCH  10  15
ATOM     15  C   UNK d   1      16.626 -57.523  35.974  0.00  0.00     0.259 C 
ATOM     16  O   UNK d   1      16.936 -58.515  36.673  0.00  0.00    -0.267 OA
ATOM     17  N   UNK d   1      16.110 -57.711  34.649  0.00  0.00    -0.344 N 
ATOM     18  C   UNK d   1      15.930 -59.028  34.079  0.00  0.00     0.152 C 
ATOM     19  C   UNK d   1      15.745 -56.578  33.822  0.00  0.00     0.152 C 
ATOM     20  C   UNK d   1      16.682 -59.018  32.742  0.00  0.00     0.187 C 
ATOM     21  O   UNK d   1      16.256 -57.952  31.988  0.00  0.00    -0.388 OA
ATOM     22  C   UNK d   1      16.555 -56.720  32.530  0.00  0.00     0.187 C 
ENDBRANCH  10  15
TORSDOF 1
ENDMDL
