/Users/jonathanwahrer/Desktop/Msc/3_Semester/Drug_Design_Praktikum/waehrer_HTS_screening/HTS_experiment/out/docking_results/vina_output/6s1j/0625_docked.pdbqt
 OpenBabel03222221293D

 31 34  0  0  0  0  0  0  0  0999 V2000
   19.6020  -51.8510   36.2490 Br  0  0  0  0  0  0  0  0  0  0  0  0
   18.5930  -53.4430   36.2550 C   0  0  0  0  0  0  0  0  0  0  0  0
   18.1630  -54.0270   35.0750 C   0  0  0  0  0  3  0  0  0  0  0  0
   17.4180  -55.1690   35.0530 C   0  0  0  0  0  0  0  0  0  0  0  0
   16.9610  -55.9100   33.9980 N   0  0  0  0  0  0  0  0  0  0  0  0
   16.3430  -56.9890   34.5090 C   0  0  0  0  0  0  0  0  0  0  0  0
   16.3810  -56.9190   35.9280 C   0  0  0  0  0  0  0  0  0  0  0  0
   17.0720  -55.7690   36.2120 C   0  0  0  0  0  0  0  0  0  0  0  0
   17.4950  -55.2010   37.4160 C   0  0  0  0  0  3  0  0  0  0  0  0
   18.2550  -54.0410   37.4540 C   0  0  0  0  0  0  0  0  0  0  0  0
   16.9180  -55.3480   32.6340 C   0  0  0  0  0  2  0  0  0  0  0  0
   18.1600  -55.9270   31.9190 C   0  0  0  0  0  0  0  0  0  0  0  0
   19.1610  -55.0340   31.6710 C   0  0  0  0  0  3  0  0  0  0  0  0
   20.3280  -55.4900   31.0350 C   0  0  0  0  0  3  0  0  0  0  0  0
   20.5040  -56.7890   30.6610 C   0  0  0  0  0  3  0  0  0  0  0  0
   19.4550  -57.6650   30.9400 C   0  0  0  0  0  3  0  0  0  0  0  0
   18.2840  -57.2220   31.5690 C   0  0  0  0  0  3  0  0  0  0  0  0
   15.7630  -58.1430   33.8220 C   0  0  0  0  0  2  0  0  0  0  0  0
   14.6840  -58.8470   34.4420 N   0  0  0  0  0  4  0  0  0  0  0  0
   14.5110  -60.1710   34.6780 C   0  0  0  0  0  2  0  0  0  0  0  0
   12.9980  -60.4760   34.5600 C   0  0  0  0  0  2  0  0  0  0  0  0
   12.4230  -59.1040   34.9010 C   0  0  0  0  0  2  0  0  0  0  0  0
   13.3860  -58.2460   34.0920 C   0  0  0  0  0  2  0  0  0  0  0  0
   14.7580  -58.3580   35.5130 H   0  0  0  0  0  0  0  0  0  0  0  0
   15.6750  -57.7700   36.8950 C   0  0  0  0  0  0  0  0  0  0  0  0
   16.2930  -58.7750   37.3370 O   0  0  0  0  0  0  0  0  0  0  0  0
   14.4220  -57.5610   37.3650 O   0  0  0  0  0  0  0  0  0  0  0  0
   13.8810  -56.5480   38.1340 C   0  0  0  0  0  2  0  0  0  0  0  0
   14.6710  -56.2170   39.3940 C   0  0  0  0  0  1  0  0  0  0  0  0
   18.7050  -53.4500   38.6490 O   0  0  0  0  0  0  0  0  0  0  0  0
   18.4880  -53.9090   39.5450 H   0  0  0  0  0  0  0  0  0  0  0  0
  1  2  1  0  0  0  0
  2 10  1  0  0  0  0
  3  2  2  0  0  0  0
  4  3  1  0  0  0  0
  4  8  2  0  0  0  0
  5  6  1  0  0  0  0
  5  4  1  0  0  0  0
  6  7  2  0  0  0  0
  7  8  1  0  0  0  0
  7 25  1  0  0  0  0
  8  9  1  0  0  0  0
  9 10  2  0  0  0  0
 10 30  1  0  0  0  0
 11  5  1  0  0  0  0
 12 11  1  0  0  0  0
 13 12  1  0  0  0  0
 14 13  2  0  0  0  0
 15 16  2  0  0  0  0
 15 14  1  0  0  0  0
 16 17  1  0  0  0  0
 17 12  2  0  0  0  0
 18 19  1  0  0  0  0
 18  6  1  0  0  0  0
 19 20  1  0  0  0  0
 19 24  1  0  0  0  0
 21 20  1  0  0  0  0
 21 22  1  0  0  0  0
 23 19  1  0  0  0  0
 23 22  1  0  0  0  0
 25 26  2  0  0  0  0
 25 27  1  0  0  0  0
 27 28  1  0  0  0  0
 28 29  1  0  0  0  0
 30 31  1  0  0  0  0
M  END
>  <Pose>
1

>  <Score>
-8.240

$$$$
