MODEL 1
REMARK VINA RESULT:    -9.628      0.000      0.000
REMARK INTER + INTRA:         -13.324
REMARK INTER:                 -12.443
REMARK INTRA:                  -0.882
REMARK UNBOUND:                -0.882
REMARK  5 active torsions:
REMARK  status: ('A' for Active; 'I' for Inactive)
REMARK    1  A    between atoms: C_7  and  N_11 
REMARK    2  A    between atoms: C_13  and  C_17 
REMARK       I    between atoms: C_17  and  N_19 
REMARK    3  A    between atoms: N_19  and  C_20 
REMARK    4  A    between atoms: C_20  and  C_21 
REMARK    5  A    between atoms: C_21  and  C_22 
ROOT
ATOM      1  N   UNK d   1      17.623 -53.154  37.087  0.00  0.00    -0.301 N 
ATOM      2  C   UNK d   1      18.013 -53.860  35.847  0.00  0.00     0.148 C 
ATOM      3  C   UNK d   1      19.522 -53.677  35.812  0.00  0.00     0.105 C 
ATOM      4  C   UNK d   1      19.708 -52.316  36.446  0.00  0.00     0.119 C 
ATOM      5  C   UNK d   1      18.454 -51.999  37.177  0.00  0.00     0.226 C 
ATOM      6  O   UNK d   1      18.167 -50.943  37.757  0.00  0.00    -0.273 OA
ENDROOT
BRANCH   3   7
ATOM      7  C   UNK d   1      19.892 -53.744  34.389  0.00  0.00     0.223 C 
ATOM      8  O   UNK d   1      20.744 -52.965  33.902  0.00  0.00    -0.273 OA
ATOM      9  N   UNK d   1      19.256 -54.722  33.577  0.00  0.00    -0.360 N 
ATOM     10  H   UNK d   1      18.550 -55.342  34.020  0.00  0.00     0.162 HD
BRANCH   9  11
ATOM     11  C   UNK d   1      19.567 -54.862  32.171  0.00  0.00     0.128 C 
BRANCH  11  12
ATOM     12  C   UNK d   1      19.045 -56.157  31.584  0.00  0.00     0.080 C 
BRANCH  12  13
ATOM     13  C   UNK d   1      17.831 -56.603  32.296  0.00  0.00     0.052 A 
ATOM     14  N   UNK d   1      16.771 -55.814  32.533  0.00  0.00    -0.247 NA
ATOM     15  C   UNK d   1      15.831 -56.495  33.188  0.00  0.00     0.207 A 
ATOM     16  N   UNK d   1      16.296 -57.759  33.380  0.00  0.00    -0.359 N 
ATOM     17  C   UNK d   1      17.514 -57.813  32.832  0.00  0.00     0.116 A 
ATOM     18  H   UNK d   1      15.739 -58.492  33.876  0.00  0.00     0.166 HD
ENDBRANCH  12  13
ENDBRANCH  11  12
ENDBRANCH   9  11
ENDBRANCH   3   7
BRANCH   1  19
ATOM     19  C   UNK d   1      16.619 -53.655  37.936  0.00  0.00     0.139 A 
ATOM     20  N   UNK d   1      15.978 -53.077  38.962  0.00  0.00    -0.261 N 
ATOM     21  N   UNK d   1      15.088 -53.907  39.499  0.00  0.00    -0.172 NA
ATOM     22  H   UNK d   1      16.129 -52.113  39.318  0.00  0.00     0.191 HD
ATOM     23  C   UNK d   1      15.108 -55.079  38.839  0.00  0.00     0.092 A 
ATOM     24  C   UNK d   1      14.398 -56.247  38.990  0.00  0.00     0.053 A 
ATOM     25  C   UNK d   1      16.055 -54.944  37.862  0.00  0.00     0.040 A 
ATOM     26  C   UNK d   1      14.679 -57.289  38.108  0.00  0.00     0.013 A 
ATOM     27 Br   UNK d   1      13.749 -58.959  38.228  0.00  0.00    -0.051 Br
ATOM     28  C   UNK d   1      15.643 -57.135  37.122  0.00  0.00     0.020 A 
ATOM     29  C   UNK d   1      16.339 -55.959  36.992  0.00  0.00     0.019 A 
ENDBRANCH   1  19
TORSDOF 5
ENDMDL
