/Users/jonathanwahrer/Desktop/Msc/3_Semester/Drug_Design_Praktikum/waehrer_HTS_screening/HTS_experiment/out/docking_results/vina_output/6s1j/0631_docked.pdbqt
 OpenBabel03222221293D

 29 32  0  0  1  0  0  0  0  0999 V2000
   17.6230  -53.1540   37.0870 N   0  0  0  0  0  0  0  0  0  0  0  0
   18.0130  -53.8600   35.8470 C   0  0  0  0  0  2  0  0  0  0  0  0
   19.5220  -53.6770   35.8120 C   0  0  2  0  0  3  0  0  0  0  0  0
   19.7080  -52.3160   36.4460 C   0  0  0  0  0  2  0  0  0  0  0  0
   18.4540  -51.9990   37.1770 C   0  0  0  0  0  0  0  0  0  0  0  0
   18.1670  -50.9430   37.7570 O   0  0  0  0  0  0  0  0  0  0  0  0
   19.8920  -53.7440   34.3890 C   0  0  0  0  0  0  0  0  0  0  0  0
   20.7440  -52.9650   33.9020 O   0  0  0  0  0  0  0  0  0  0  0  0
   19.2560  -54.7220   33.5770 N   0  0  0  0  0  0  0  0  0  0  0  0
   18.5500  -55.3420   34.0200 H   0  0  0  0  0  0  0  0  0  0  0  0
   19.5670  -54.8620   32.1710 C   0  0  0  0  0  2  0  0  0  0  0  0
   19.0450  -56.1570   31.5840 C   0  0  0  0  0  2  0  0  0  0  0  0
   17.8310  -56.6030   32.2960 C   0  0  0  0  0  0  0  0  0  0  0  0
   16.7710  -55.8140   32.5330 N   0  0  0  0  0  0  0  0  0  0  0  0
   15.8310  -56.4950   33.1880 C   0  0  0  0  0  3  0  0  0  0  0  0
   16.2960  -57.7590   33.3800 N   0  0  0  0  0  0  0  0  0  0  0  0
   17.5140  -57.8130   32.8320 C   0  0  0  0  0  3  0  0  0  0  0  0
   15.7390  -58.4920   33.8760 H   0  0  0  0  0  0  0  0  0  0  0  0
   16.6190  -53.6550   37.9360 C   0  0  0  0  0  0  0  0  0  0  0  0
   15.9780  -53.0770   38.9620 N   0  0  0  0  0  0  0  0  0  0  0  0
   15.0880  -53.9070   39.4990 N   0  0  0  0  0  0  0  0  0  0  0  0
   16.1290  -52.1130   39.3180 H   0  0  0  0  0  0  0  0  0  0  0  0
   15.1080  -55.0790   38.8390 C   0  0  0  0  0  0  0  0  0  0  0  0
   14.3980  -56.2470   38.9900 C   0  0  0  0  0  3  0  0  0  0  0  0
   16.0550  -54.9440   37.8620 C   0  0  0  0  0  0  0  0  0  0  0  0
   14.6790  -57.2890   38.1080 C   0  0  0  0  0  0  0  0  0  0  0  0
   13.7490  -58.9590   38.2280 Br  0  0  0  0  0  0  0  0  0  0  0  0
   15.6430  -57.1350   37.1220 C   0  0  0  0  0  3  0  0  0  0  0  0
   16.3390  -55.9590   36.9920 C   0  0  0  0  0  3  0  0  0  0  0  0
  1  5  1  0  0  0  0
  1 19  1  0  0  0  0
  2  1  1  0  0  0  0
  3  7  1  6  0  0  0
  3  2  1  0  0  0  0
  3  4  1  0  0  0  0
  4  5  1  0  0  0  0
  5  6  2  0  0  0  0
  8  7  2  0  0  0  0
  9 10  1  0  0  0  0
  9  7  1  0  0  0  0
 11  9  1  0  0  0  0
 12 11  1  0  0  0  0
 12 13  1  0  0  0  0
 13 14  1  0  0  0  0
 13 17  2  0  0  0  0
 14 15  2  0  0  0  0
 15 16  1  0  0  0  0
 16 18  1  0  0  0  0
 17 16  1  0  0  0  0
 19 20  1  0  0  0  0
 20 22  1  0  0  0  0
 20 21  1  0  0  0  0
 23 24  1  0  0  0  0
 23 21  2  0  0  0  0
 25 19  2  0  0  0  0
 25 23  1  0  0  0  0
 26 27  1  0  0  0  0
 26 24  2  0  0  0  0
 28 26  1  0  0  0  0
 29 28  2  0  0  0  0
 29 25  1  0  0  0  0
M  END
>  <Pose>
1

>  <Score>
-9.628

$$$$
