MODEL 1
REMARK VINA RESULT:    -8.124      0.000      0.000
REMARK INTER + INTRA:         -11.012
REMARK INTER:                 -10.023
REMARK INTRA:                  -0.988
REMARK UNBOUND:                -0.988
REMARK  4 active torsions:
REMARK  status: ('A' for Active; 'I' for Inactive)
REMARK    1  A    between atoms: N_4  and  C_31 
REMARK    2  A    between atoms: C_6  and  C_7 
REMARK       I    between atoms: C_7  and  N_9 
REMARK       I    between atoms: N_12  and  C_15 
REMARK    3  A    between atoms: C_15  and  C_17 
REMARK    4  A    between atoms: C_20  and  C_22 
REMARK       I    between atoms: C_22  and  N_24 
ROOT
ATOM      1  C   UNK d   1      15.604 -58.329  36.778  0.00  0.00     0.275 C 
ATOM      2  O   UNK d   1      16.592 -59.054  37.159  0.00  0.00    -0.266 OA
ATOM      3  N   UNK d   1      15.001 -58.651  35.591  0.00  0.00    -0.344 N 
ATOM      4  C   UNK d   1      13.903 -57.958  34.993  0.00  0.00     0.146 C 
ATOM      5  C   UNK d   1      14.398 -57.211  33.799  0.00  0.00     0.145 C 
ATOM      6  N   UNK d   1      15.573 -57.847  33.220  0.00  0.00    -0.355 N 
ATOM      7  C   UNK d   1      15.902 -59.219  33.423  0.00  0.00     0.145 C 
ATOM      8  C   UNK d   1      15.466 -59.788  34.769  0.00  0.00     0.146 C 
ATOM      9  C   UNK d   1      16.405 -56.945  32.474  0.00  0.00     0.205 C 
ATOM     10  O   UNK d   1      16.062 -55.689  32.486  0.00  0.00    -0.170 OA
ENDROOT
BRANCH   9  11
ATOM     11  C   UNK d   1      17.560 -57.322  31.737  0.00  0.00     0.108 A 
ATOM     12  N   UNK d   1      18.790 -57.573  32.331  0.00  0.00    -0.269 N 
ATOM     13  N   UNK d   1      19.671 -57.834  31.421  0.00  0.00    -0.167 NA
ATOM     14  C   UNK d   1      19.056 -57.552  33.750  0.00  0.00     0.180 C 
ATOM     15  C   UNK d   1      19.138 -57.783  30.203  0.00  0.00     0.147 A 
ATOM     16  C   UNK d   1      17.784 -57.454  30.411  0.00  0.00     0.075 A 
BRANCH  15  17
ATOM     17  C   UNK d   1      19.755 -58.028  28.912  0.00  0.00     0.274 C 
ATOM     18  O   UNK d   1      19.694 -59.231  28.471  0.00  0.00    -0.266 OA
ATOM     19  N   UNK d   1      20.395 -57.078  28.131  0.00  0.00    -0.343 N 
ATOM     20  C   UNK d   1      20.941 -57.503  26.838  0.00  0.00     0.152 C 
ATOM     21  C   UNK d   1      20.585 -55.710  28.501  0.00  0.00     0.152 C 
ATOM     22  C   UNK d   1      22.392 -57.069  26.841  0.00  0.00     0.187 C 
ATOM     23  O   UNK d   1      22.359 -55.662  26.839  0.00  0.00    -0.388 OA
ATOM     24  C   UNK d   1      21.952 -55.203  28.060  0.00  0.00     0.187 C 
ENDBRANCH  15  17
ENDBRANCH   9  11
BRANCH   1  25
ATOM     25  C   UNK d   1      15.247 -57.248  37.661  0.00  0.00     0.163 A 
ATOM     26  C   UNK d   1      14.171 -57.193  38.552  0.00  0.00     0.064 A 
ATOM     27 Br   UNK d   1      12.891 -58.610  38.789  0.00  0.00    -0.047 Br
ATOM     28  C   UNK d   1      14.196 -55.988  39.200  0.00  0.00     0.134 A 
ATOM     29  N   UNK d   1      15.250 -55.312  38.732  0.00  0.00    -0.279 N 
ATOM     30  N   UNK d   1      15.863 -56.042  37.838  0.00  0.00    -0.166 NA
BRANCH  29  31
ATOM     31  C   UNK d   1      15.576 -53.972  39.205  0.00  0.00     0.146 C 
ATOM     32  C   UNK d   1      16.540 -53.250  38.302  0.00  0.00     0.028 C 
ENDBRANCH  29  31
ENDBRANCH   1  25
TORSDOF 4
ENDMDL
