/Users/jonathanwahrer/Desktop/Msc/3_Semester/Drug_Design_Praktikum/waehrer_HTS_screening/HTS_experiment/out/docking_results/vina_output/6s1j/0653_docked.pdbqt
 OpenBabel03222221303D

 29 32  0  0  0  0  0  0  0  0999 V2000
   17.4960  -56.1560   35.3560 C   0  0  0  0  0  0  0  0  0  0  0  0
   16.6530  -56.6700   36.3080 C   0  0  0  0  0  0  0  0  0  0  0  0
   16.3940  -55.9860   37.4820 C   0  0  0  0  0  0  0  0  0  0  0  0
   16.9780  -54.7650   37.7340 C   0  0  0  0  0  0  0  0  0  0  0  0
   17.8470  -54.2260   36.7650 C   0  0  0  0  0  0  0  0  0  0  0  0
   18.1020  -54.9030   35.6020 C   0  0  0  0  0  0  0  0  0  0  0  0
   19.0000  -54.3270   34.5990 C   0  0  0  0  0  2  0  0  0  0  0  0
   19.9580  -53.2970   35.0480 C   0  0  0  0  0  2  0  0  0  0  0  0
   19.4510  -52.4420   36.1140 N   0  0  0  0  0  0  0  0  0  0  0  0
   18.5200  -52.9630   37.0520 C   0  0  0  0  0  0  0  0  0  0  0  0
   18.2960  -52.3180   38.1210 O   0  0  0  0  0  0  0  0  0  0  0  0
   19.9540  -51.0880   36.1590 C   0  0  0  0  0  1  0  0  0  0  0  0
   15.5160  -56.7690   38.2060 O   0  0  0  0  0  0  0  0  0  0  0  0
   15.0690  -57.8540   37.4330 C   0  0  0  0  0  2  0  0  0  0  0  0
   15.9340  -57.8870   36.3020 O   0  0  0  0  0  0  0  0  0  0  0  0
   17.8260  -56.8820   34.1110 C   0  0  0  0  0  2  0  0  0  0  0  0
   16.9990  -58.0550   33.8910 N   0  0  0  0  0  0  0  0  0  0  0  0
   16.6170  -58.6440   32.7060 C   0  0  0  0  0  0  0  0  0  0  0  0
   16.9800  -58.1760   31.5790 O   0  0  0  0  0  0  0  0  0  0  0  0
   16.6630  -58.5010   34.8020 H   0  0  0  0  0  0  0  0  0  0  0  0
   15.7560  -59.8580   32.6950 C   0  0  0  0  0  2  0  0  0  0  0  0
   14.5750  -59.5470   33.5220 N   0  0  0  0  0  0  0  0  0  0  0  0
   13.9510  -60.3560   34.3730 C   0  0  0  0  0  3  0  0  0  0  0  0
   12.9030  -59.6620   34.9330 C   0  0  0  0  0  0  0  0  0  0  0  0
   11.6410  -60.2900   36.2200 Br  0  0  0  0  0  0  0  0  0  0  0  0
   12.9040  -58.3950   34.3950 C   0  0  0  0  0  3  0  0  0  0  0  0
   13.9410  -58.3780   33.5440 N   0  0  0  0  0  0  0  0  0  0  0  0
   16.7410  -54.0510   38.8950 O   0  0  0  0  0  0  0  0  0  0  0  0
   15.4440  -53.6000   39.2250 C   0  0  0  0  0  1  0  0  0  0  0  0
  1  6  2  0  0  0  0
  1  2  1  0  0  0  0
  2  3  2  0  0  0  0
  3  4  1  0  0  0  0
  3 13  1  0  0  0  0
  4 28  1  0  0  0  0
  5 10  1  0  0  0  0
  5  4  2  0  0  0  0
  6  5  1  0  0  0  0
  7  8  1  0  0  0  0
  7  6  1  0  0  0  0
  8  9  1  0  0  0  0
  9 12  1  0  0  0  0
  9 10  1  0  0  0  0
 10 11  2  0  0  0  0
 14 13  1  0  0  0  0
 15  2  1  0  0  0  0
 15 14  1  0  0  0  0
 16  1  1  0  0  0  0
 17 16  1  0  0  0  0
 17 20  1  0  0  0  0
 18 17  1  0  0  0  0
 19 18  2  0  0  0  0
 21 18  1  0  0  0  0
 21 22  1  0  0  0  0
 22 27  1  0  0  0  0
 22 23  1  0  0  0  0
 23 24  2  0  0  0  0
 24 25  1  0  0  0  0
 26 24  1  0  0  0  0
 27 26  2  0  0  0  0
 28 29  1  0  0  0  0
M  END
>  <Pose>
1

>  <Score>
-8.671

$$$$
