MODEL 1
REMARK VINA RESULT:    -8.671      0.000      0.000
REMARK INTER + INTRA:         -12.422
REMARK INTER:                 -11.205
REMARK INTRA:                  -1.217
REMARK UNBOUND:                -1.217
REMARK  5 active torsions:
REMARK  status: ('A' for Active; 'I' for Inactive)
REMARK    1  A    between atoms: N_4  and  C_7 
REMARK    2  A    between atoms: C_7  and  C_8 
REMARK       I    between atoms: C_8  and  N_10 
REMARK    3  A    between atoms: N_10  and  C_11 
REMARK    4  A    between atoms: C_11  and  C_12 
REMARK    5  A    between atoms: C_15  and  O_24 
ROOT
ATOM      1  C   UNK d   1      17.496 -56.156  35.356  0.00  0.00     0.003 A 
ATOM      2  C   UNK d   1      16.653 -56.670  36.308  0.00  0.00     0.116 A 
ATOM      3  C   UNK d   1      16.394 -55.986  37.482  0.00  0.00     0.140 A 
ATOM      4  C   UNK d   1      16.978 -54.765  37.734  0.00  0.00     0.120 A 
ATOM      5  C   UNK d   1      17.847 -54.226  36.765  0.00  0.00     0.075 A 
ATOM      6  C   UNK d   1      18.102 -54.903  35.602  0.00  0.00    -0.027 A 
ATOM      7  C   UNK d   1      19.000 -54.327  34.599  0.00  0.00     0.060 C 
ATOM      8  C   UNK d   1      19.958 -53.297  35.048  0.00  0.00     0.130 C 
ATOM      9  N   UNK d   1      19.451 -52.442  36.114  0.00  0.00    -0.352 N 
ATOM     10  C   UNK d   1      18.520 -52.963  37.052  0.00  0.00     0.256 C 
ATOM     11  O   UNK d   1      18.296 -52.318  38.121  0.00  0.00    -0.267 OA
ATOM     12  C   UNK d   1      19.954 -51.088  36.159  0.00  0.00     0.152 C 
ATOM     13  O   UNK d   1      15.516 -56.769  38.206  0.00  0.00    -0.320 OA
ATOM     14  C   UNK d   1      15.069 -57.854  37.433  0.00  0.00     0.352 C 
ATOM     15  O   UNK d   1      15.934 -57.887  36.302  0.00  0.00    -0.322 OA
ENDROOT
BRANCH   1  16
ATOM     16  C   UNK d   1      17.826 -56.882  34.111  0.00  0.00     0.164 C 
BRANCH  16  17
ATOM     17  N   UNK d   1      16.999 -58.055  33.891  0.00  0.00    -0.355 N 
ATOM     18  C   UNK d   1      16.617 -58.644  32.706  0.00  0.00     0.237 C 
ATOM     19  O   UNK d   1      16.980 -58.176  31.579  0.00  0.00    -0.272 OA
ATOM     20  H   UNK d   1      16.663 -58.501  34.802  0.00  0.00     0.162 HD
BRANCH  18  21
ATOM     21  C   UNK d   1      15.756 -59.858  32.695  0.00  0.00     0.253 C 
BRANCH  21  22
ATOM     22  N   UNK d   1      14.575 -59.547  33.522  0.00  0.00    -0.271 N 
ATOM     23  C   UNK d   1      13.951 -60.356  34.373  0.00  0.00     0.133 A 
ATOM     24  C   UNK d   1      12.903 -59.662  34.933  0.00  0.00     0.047 A 
ATOM     25 Br   UNK d   1      11.641 -60.290  36.220  0.00  0.00    -0.048 Br
ATOM     26  C   UNK d   1      12.904 -58.395  34.395  0.00  0.00     0.159 A 
ATOM     27  N   UNK d   1      13.941 -58.378  33.544  0.00  0.00    -0.183 NA
ENDBRANCH  21  22
ENDBRANCH  18  21
ENDBRANCH  16  17
ENDBRANCH   1  16
BRANCH   4  28
ATOM     28  O   UNK d   1      16.741 -54.051  38.895  0.00  0.00    -0.352 OA
ATOM     29  C   UNK d   1      15.444 -53.600  39.225  0.00  0.00     0.210 C 
ENDBRANCH   4  28
TORSDOF 5
ENDMDL
