/Users/jonathanwahrer/Desktop/Msc/3_Semester/Drug_Design_Praktikum/waehrer_HTS_screening/HTS_experiment/out/docking_results/vina_output/6s1j/0662_docked.pdbqt
 OpenBabel03222221303D

 25 29  0  0  0  0  0  0  0  0999 V2000
   16.2100  -55.4230   37.5740 C   0  0  0  0  0  0  0  0  0  0  0  0
   16.0120  -54.2980   38.2790 N   0  0  0  0  0  0  0  0  0  0  0  0
   16.8930  -53.3660   37.9140 N   0  0  0  0  0  0  0  0  0  0  0  0
   17.6820  -53.9080   36.9430 C   0  0  0  0  0  0  0  0  0  0  0  0
   17.2430  -55.1670   36.7540 N   0  0  0  0  0  0  0  0  0  0  0  0
   18.6800  -53.1280   36.3990 C   0  0  0  0  0  0  0  0  0  0  0  0
   18.9100  -51.8240   36.7990 C   0  0  0  0  0  0  0  0  0  0  0  0
   19.9400  -51.3230   36.0970 N   0  0  0  0  0  0  0  0  0  0  0  0
   20.3530  -52.2750   35.2760 N   0  0  0  0  0  0  0  0  0  0  0  0
   19.6110  -53.3910   35.4290 C   0  0  0  0  0  3  0  0  0  0  0  0
   18.1090  -51.3330   37.7580 N   0  0  0  0  0  0  0  0  0  0  0  0
   17.1370  -52.0960   38.2850 C   0  0  0  0  0  3  0  0  0  0  0  0
   20.3570  -50.3690   36.1640 H   0  0  0  0  0  0  0  0  0  0  0  0
   15.4440  -56.6630   37.6900 C   0  0  0  0  0  0  0  0  0  0  0  0
   14.1550  -56.8140   38.0390 N   0  0  0  0  0  0  0  0  0  0  0  0
   13.8080  -58.0890   38.0360 N   0  0  0  0  0  0  0  0  0  0  0  0
   14.8690  -58.8310   37.6790 C   0  0  0  0  0  3  0  0  0  0  0  0
   15.9130  -57.9390   37.4580 C   0  0  0  0  0  3  0  0  0  0  0  0
   12.4770  -58.6040   38.3680 C   0  0  0  0  0  2  0  0  0  0  0  0
   12.1700  -59.8020   37.6140 N   0  0  0  0  0  0  0  0  0  0  0  0
   11.9090  -59.8660   36.2980 C   0  0  0  0  0  3  0  0  0  0  0  0
   11.6670  -61.1840   35.9690 C   0  0  0  0  0  0  0  0  0  0  0  0
   11.2440  -61.8620   34.2550 Br  0  0  0  0  0  0  0  0  0  0  0  0
   11.7930  -61.9060   37.1350 C   0  0  0  0  0  3  0  0  0  0  0  0
   12.1010  -61.0230   38.1120 N   0  0  0  0  0  0  0  0  0  0  0  0
  1 14  1  0  0  0  0
  1  2  2  0  0  0  0
  3  2  1  0  0  0  0
  3 12  1  0  0  0  0
  4  3  1  0  0  0  0
  5  4  2  0  0  0  0
  5  1  1  0  0  0  0
  6  7  2  0  0  0  0
  6  4  1  0  0  0  0
  7 11  1  0  0  0  0
  8 13  1  0  0  0  0
  8  7  1  0  0  0  0
  9 10  2  0  0  0  0
  9  8  1  0  0  0  0
 10  6  1  0  0  0  0
 11 12  2  0  0  0  0
 14 15  2  0  0  0  0
 16 15  1  0  0  0  0
 16 19  1  0  0  0  0
 17 16  1  0  0  0  0
 18 17  2  0  0  0  0
 18 14  1  0  0  0  0
 20 25  1  0  0  0  0
 20 19  1  0  0  0  0
 21 20  1  0  0  0  0
 22 21  2  0  0  0  0
 22 24  1  0  0  0  0
 23 22  1  0  0  0  0
 24 25  2  0  0  0  0
M  END
>  <Pose>
1

>  <Score>
-8.500

$$$$
