/Users/jonathanwahrer/Desktop/Msc/3_Semester/Drug_Design_Praktikum/waehrer_HTS_screening/HTS_experiment/out/docking_results/vina_output/6s1j/0663_docked.pdbqt
 OpenBabel03222221303D

 28 31  0  0  1  0  0  0  0  0999 V2000
   19.9390  -57.3620   30.1870 C   0  0  0  0  0  0  0  0  0  0  0  0
   20.2650  -58.6010   30.3750 O   0  0  0  0  0  0  0  0  0  0  0  0
   20.0890  -56.8910   28.8940 N   0  0  0  0  0  0  0  0  0  0  0  0
   19.7860  -55.6160   28.3030 C   0  0  0  0  0  2  0  0  0  0  0  0
   21.0900  -54.8480   28.2060 C   0  0  0  0  0  2  0  0  0  0  0  0
   22.2270  -55.7830   27.8440 C   0  0  1  0  0  0  0  0  0  0  0  0
   23.0900  -55.0700   26.9270 N   0  0  0  0  0  0  0  0  0  0  0  0
   23.9960  -54.2930   27.6960 C   0  0  0  0  0  0  0  0  0  0  0  0
   24.6720  -53.2790   27.3240 O   0  0  0  0  0  0  0  0  0  0  0  0
   24.0200  -54.8710   29.0110 N   0  0  0  0  0  0  0  0  0  0  0  0
   23.1150  -55.9960   29.0020 C   0  0  0  0  0  0  0  0  0  0  0  0
   23.1400  -56.9250   29.8380 O   0  0  0  0  0  0  0  0  0  0  0  0
   21.7740  -57.0450   27.1850 C   0  0  0  0  0  2  0  0  0  0  0  0
   20.7200  -57.8180   27.9020 C   0  0  0  0  0  2  0  0  0  0  0  0
   23.0840  -55.0920   25.8890 H   0  0  0  0  0  0  0  0  0  0  0  0
   24.5660  -54.5760   29.8490 H   0  0  0  0  0  0  0  0  0  0  0  0
   19.4720  -56.6830   31.3750 C   0  0  0  0  0  0  0  0  0  0  0  0
   18.8450  -57.4290   32.3940 C   0  0  0  0  0  3  0  0  0  0  0  0
   18.4110  -56.8650   33.5640 C   0  0  0  0  0  3  0  0  0  0  0  0
   18.5590  -55.5240   33.8230 C   0  0  0  0  0  0  0  0  0  0  0  0
   19.1650  -54.7760   32.8500 C   0  0  0  0  0  3  0  0  0  0  0  0
   19.6160  -55.3430   31.6470 C   0  0  0  0  0  3  0  0  0  0  0  0
   18.0990  -54.9670   35.0450 N   0  0  0  0  0  0  0  0  0  0  0  0
   18.2770  -53.7200   35.5190 C   0  0  0  0  0  3  0  0  0  0  0  0
   17.6610  -53.6060   36.7460 C   0  0  0  0  0  0  0  0  0  0  0  0
   17.5940  -52.0500   37.8790 Br  0  0  0  0  0  0  0  0  0  0  0  0
   17.1030  -54.8400   36.9920 C   0  0  0  0  0  3  0  0  0  0  0  0
   17.3930  -55.6140   35.9490 N   0  0  0  0  0  0  0  0  0  0  0  0
  1  2  2  0  0  0  0
  1 17  1  0  0  0  0
  3  1  1  0  0  0  0
  4  3  1  0  0  0  0
  5  4  1  0  0  0  0
  6 13  1  6  0  0  0
  6  5  1  0  0  0  0
  6 11  1  0  0  0  0
  7  8  1  0  0  0  0
  7  6  1  0  0  0  0
  8 10  1  0  0  0  0
  9  8  2  0  0  0  0
 10 16  1  0  0  0  0
 11 10  1  0  0  0  0
 11 12  2  0  0  0  0
 13 14  1  0  0  0  0
 14  3  1  0  0  0  0
 15  7  1  0  0  0  0
 17 22  2  0  0  0  0
 17 18  1  0  0  0  0
 18 19  2  0  0  0  0
 19 20  1  0  0  0  0
 20 23  1  0  0  0  0
 21 20  2  0  0  0  0
 22 21  1  0  0  0  0
 23 24  1  0  0  0  0
 23 28  1  0  0  0  0
 24 25  2  0  0  0  0
 25 27  1  0  0  0  0
 25 26  1  0  0  0  0
 28 27  2  0  0  0  0
M  END
>  <Pose>
1

>  <Score>
-8.923

$$$$
