MODEL 1
REMARK VINA RESULT:    -8.923      0.000      0.000
REMARK INTER + INTRA:         -10.323
REMARK INTER:                  -9.966
REMARK INTRA:                  -0.357
REMARK UNBOUND:                -0.357
REMARK  2 active torsions:
REMARK  status: ('A' for Active; 'I' for Inactive)
REMARK    1  A    between atoms: N_4  and  C_7 
REMARK    2  A    between atoms: C_10  and  C_13 
REMARK       I    between atoms: C_13  and  N_15 
ROOT
ATOM      1  C   UNK d   1      19.939 -57.362  30.187  0.00  0.00     0.253 C 
ATOM      2  O   UNK d   1      20.265 -58.601  30.375  0.00  0.00    -0.267 OA
ATOM      3  N   UNK d   1      20.089 -56.891  28.894  0.00  0.00    -0.348 N 
ATOM      4  C   UNK d   1      19.786 -55.616  28.303  0.00  0.00     0.129 C 
ATOM      5  C   UNK d   1      21.090 -54.848  28.206  0.00  0.00     0.061 C 
ATOM      6  C   UNK d   1      22.227 -55.783  27.844  0.00  0.00     0.118 C 
ATOM      7  N   UNK d   1      23.090 -55.070  26.927  0.00  0.00    -0.324 N 
ATOM      8  C   UNK d   1      23.996 -54.293  27.696  0.00  0.00     0.323 C 
ATOM      9  O   UNK d   1      24.672 -53.279  27.324  0.00  0.00    -0.247 OA
ATOM     10  N   UNK d   1      24.020 -54.871  29.011  0.00  0.00    -0.277 N 
ATOM     11  C   UNK d   1      23.115 -55.996  29.002  0.00  0.00     0.254 C 
ATOM     12  O   UNK d   1      23.140 -56.925  29.838  0.00  0.00    -0.270 OA
ATOM     13  C   UNK d   1      21.774 -57.045  27.185  0.00  0.00     0.061 C 
ATOM     14  C   UNK d   1      20.720 -57.818  27.902  0.00  0.00     0.129 C 
ATOM     15  H   UNK d   1      23.084 -55.092  25.889  0.00  0.00     0.165 HD
ATOM     16  H   UNK d   1      24.566 -54.576  29.849  0.00  0.00     0.173 HD
ENDROOT
BRANCH   1  17
ATOM     17  C   UNK d   1      19.472 -56.683  31.375  0.00  0.00     0.032 A 
ATOM     18  C   UNK d   1      18.845 -57.429  32.394  0.00  0.00     0.019 A 
ATOM     19  C   UNK d   1      18.411 -56.865  33.564  0.00  0.00     0.032 A 
ATOM     20  C   UNK d   1      18.559 -55.524  33.823  0.00  0.00     0.058 A 
ATOM     21  C   UNK d   1      19.165 -54.776  32.850  0.00  0.00     0.032 A 
ATOM     22  C   UNK d   1      19.616 -55.343  31.647  0.00  0.00     0.019 A 
BRANCH  20  23
ATOM     23  N   UNK d   1      18.099 -54.967  35.045  0.00  0.00    -0.244 N 
ATOM     24  C   UNK d   1      18.277 -53.720  35.519  0.00  0.00     0.139 A 
ATOM     25  C   UNK d   1      17.661 -53.606  36.746  0.00  0.00     0.047 A 
ATOM     26 Br   UNK d   1      17.594 -52.050  37.879  0.00  0.00    -0.048 Br
ATOM     27  C   UNK d   1      17.103 -54.840  36.992  0.00  0.00     0.159 A 
ATOM     28  N   UNK d   1      17.393 -55.614  35.949  0.00  0.00    -0.179 NA
ENDBRANCH  20  23
ENDBRANCH   1  17
TORSDOF 2
ENDMDL
