MODEL 1
REMARK VINA RESULT:    -8.363      0.000      0.000
REMARK INTER + INTRA:         -11.427
REMARK INTER:                 -10.319
REMARK INTRA:                  -1.108
REMARK UNBOUND:                -1.108
REMARK  4 active torsions:
REMARK  status: ('A' for Active; 'I' for Inactive)
REMARK    1  A    between atoms: C_5  and  N_8 
REMARK    2  A    between atoms: N_8  and  C_9 
REMARK    3  A    between atoms: C_10  and  N_22 
REMARK    4  A    between atoms: N_13  and  C_16 
ROOT
ATOM      1  C   UNK d   1      16.678 -56.485  33.494  0.00  0.00     0.136 A 
ATOM      2  C   UNK d   1      16.449 -57.554  34.198  0.00  0.00     0.140 A 
ATOM      3  C   UNK d   1      16.661 -57.185  35.599  0.00  0.00     0.285 A 
ATOM      4  O   UNK d   1      16.526 -57.992  36.571  0.00  0.00    -0.265 OA
ATOM      5  N   UNK d   1      17.039 -55.806  35.718  0.00  0.00    -0.241 N 
ATOM      6  C   UNK d   1      17.051 -55.345  34.367  0.00  0.00     0.284 A 
ATOM      7  O   UNK d   1      17.330 -54.178  33.987  0.00  0.00    -0.265 OA
ENDROOT
BRANCH   1   8
ATOM      8  N   UNK d   1      16.611 -56.311  32.092  0.00  0.00    -0.335 N 
ATOM      9  H   UNK d   1      15.856 -55.772  31.668  0.00  0.00     0.168 HD
BRANCH   8  10
ATOM     10  C   UNK d   1      17.617 -56.908  31.297  0.00  0.00     0.127 A 
ATOM     11  N   UNK d   1      17.306 -57.667  30.212  0.00  0.00    -0.242 NA
ATOM     12  C   UNK d   1      18.219 -58.265  29.439  0.00  0.00     0.138 A 
ATOM     13  C   UNK d   1      19.558 -58.143  29.704  0.00  0.00     0.028 A 
ATOM     14 Br   UNK d   1      20.888 -58.994  28.626  0.00  0.00    -0.050 Br
ATOM     15  C   UNK d   1      19.944 -57.389  30.788  0.00  0.00     0.024 A 
ATOM     16  C   UNK d   1      18.987 -56.788  31.559  0.00  0.00     0.052 A 
ENDBRANCH   8  10
ENDBRANCH   1   8
BRANCH   2  17
ATOM     17  N   UNK d   1      16.055 -58.851  33.747  0.00  0.00    -0.326 N 
ATOM     18  C   UNK d   1      16.990 -59.746  33.379  0.00  0.00     0.097 A 
ATOM     19  C   UNK d   1      16.637 -61.028  32.923  0.00  0.00     0.018 A 
ATOM     20  C   UNK d   1      15.304 -61.387  32.844  0.00  0.00     0.003 A 
ATOM     21  C   UNK d   1      14.366 -60.453  33.227  0.00  0.00     0.018 A 
ATOM     22  C   UNK d   1      14.752 -59.215  33.667  0.00  0.00     0.097 A 
ENDBRANCH   2  17
BRANCH   5  23
ATOM     23  C   UNK d   1      17.336 -55.089  36.905  0.00  0.00     0.046 A 
ATOM     24  C   UNK d   1      18.597 -54.658  37.231  0.00  0.00     0.030 A 
ATOM     25  C   UNK d   1      18.853 -53.931  38.413  0.00  0.00     0.002 A 
ATOM     26  C   UNK d   1      17.829 -53.631  39.282  0.00  0.00     0.000 A 
ATOM     27  C   UNK d   1      16.566 -54.060  38.960  0.00  0.00     0.002 A 
ATOM     28  C   UNK d   1      16.331 -54.778  37.787  0.00  0.00     0.030 A 
ENDBRANCH   5  23
TORSDOF 4
ENDMDL
