/Users/jonathanwahrer/Desktop/Msc/3_Semester/Drug_Design_Praktikum/waehrer_HTS_screening/HTS_experiment/out/docking_results/vina_output/6s1j/0666_docked.pdbqt
 OpenBabel03222221303D

 28 31  0  0  0  0  0  0  0  0999 V2000
   16.6780  -56.4850   33.4940 C   0  0  0  0  0  0  0  0  0  0  0  0
   16.4490  -57.5540   34.1980 C   0  0  0  0  0  0  0  0  0  0  0  0
   16.6610  -57.1850   35.5990 C   0  0  0  0  0  0  0  0  0  0  0  0
   16.5260  -57.9920   36.5710 O   0  0  0  0  0  0  0  0  0  0  0  0
   17.0390  -55.8060   35.7180 N   0  0  0  0  0  0  0  0  0  0  0  0
   17.0510  -55.3450   34.3670 C   0  0  0  0  0  0  0  0  0  0  0  0
   17.3300  -54.1780   33.9870 O   0  0  0  0  0  0  0  0  0  0  0  0
   16.6110  -56.3110   32.0920 N   0  0  0  0  0  0  0  0  0  0  0  0
   15.8560  -55.7720   31.6680 H   0  0  0  0  0  0  0  0  0  0  0  0
   17.6170  -56.9080   31.2970 C   0  0  0  0  0  0  0  0  0  0  0  0
   17.3060  -57.6670   30.2120 N   0  0  0  0  0  0  0  0  0  0  0  0
   18.2190  -58.2650   29.4390 C   0  0  0  0  0  3  0  0  0  0  0  0
   19.5580  -58.1430   29.7040 C   0  0  0  0  0  0  0  0  0  0  0  0
   20.8880  -58.9940   28.6260 Br  0  0  0  0  0  0  0  0  0  0  0  0
   19.9440  -57.3890   30.7880 C   0  0  0  0  0  3  0  0  0  0  0  0
   18.9870  -56.7880   31.5590 C   0  0  0  0  0  3  0  0  0  0  0  0
   16.0550  -58.8510   33.7470 N   0  0  0  0  0  0  0  0  0  0  0  0
   16.9900  -59.7460   33.3790 C   0  0  0  0  0  2  0  0  0  0  0  0
   16.6370  -61.0280   32.9230 C   0  0  0  0  0  3  0  0  0  0  0  0
   15.3040  -61.3870   32.8440 C   0  0  0  0  0  3  0  0  0  0  0  0
   14.3660  -60.4530   33.2270 C   0  0  0  0  0  3  0  0  0  0  0  0
   14.7520  -59.2150   33.6670 C   0  0  0  0  0  3  0  0  0  0  0  0
   17.3360  -55.0890   36.9050 C   0  0  0  0  0  0  0  0  0  0  0  0
   18.5970  -54.6580   37.2310 C   0  0  0  0  0  3  0  0  0  0  0  0
   18.8530  -53.9310   38.4130 C   0  0  0  0  0  3  0  0  0  0  0  0
   17.8290  -53.6310   39.2820 C   0  0  0  0  0  3  0  0  0  0  0  0
   16.5660  -54.0600   38.9600 C   0  0  0  0  0  3  0  0  0  0  0  0
   16.3310  -54.7780   37.7870 C   0  0  0  0  0  3  0  0  0  0  0  0
  1  2  2  0  0  0  0
  1  6  1  0  0  0  0
  2  3  1  0  0  0  0
  3  5  1  0  0  0  0
  3  4  2  0  0  0  0
  5 23  1  0  0  0  0
  6  5  1  0  0  0  0
  7  6  2  0  0  0  0
  8  1  1  0  0  0  0
  9  8  1  0  0  0  0
 10 16  1  0  0  0  0
 10  8  1  0  0  0  0
 11 10  2  0  0  0  0
 12 13  2  0  0  0  0
 12 11  1  0  0  0  0
 13 15  1  0  0  0  0
 14 13  1  0  0  0  0
 15 16  2  0  0  0  0
 17  2  1  0  0  0  0
 18 17  1  0  0  0  0
 19 18  1  0  0  0  0
 20 19  2  0  0  0  0
 20 21  1  0  0  0  0
 21 22  2  0  0  0  0
 22 17  1  0  0  0  0
 23 24  2  0  0  0  0
 23 28  1  0  0  0  0
 24 25  1  0  0  0  0
 25 26  2  0  0  0  0
 27 26  1  0  0  0  0
 28 27  2  0  0  0  0
M  END
>  <Pose>
1

>  <Score>
-8.363

$$$$
