MODEL 1
REMARK VINA RESULT:    -8.577      0.000      0.000
REMARK INTER + INTRA:         -10.569
REMARK INTER:                 -10.081
REMARK INTRA:                  -0.488
REMARK UNBOUND:                -0.488
REMARK  3 active torsions:
REMARK  status: ('A' for Active; 'I' for Inactive)
REMARK    1  A    between atoms: C_5  and  N_8 
REMARK    2  A    between atoms: C_10  and  C_12 
REMARK    3  A    between atoms: C_12  and  N_13 
ROOT
ATOM      1  C   UNK d   1      18.636 -54.875  33.857  0.00  0.00     0.160 C 
ENDROOT
BRANCH   1   2
ATOM      2  C   UNK d   1      17.442 -55.721  34.169  0.00  0.00     0.043 C 
ATOM      3  C   UNK d   1      16.649 -56.211  32.974  0.00  0.00     0.149 C 
ATOM      4  N   UNK d   1      16.392 -57.380  33.764  0.00  0.00    -0.213 N 
ATOM      5  C   UNK d   1      17.721 -57.216  34.281  0.00  0.00     0.149 C 
BRANCH   4   6
ATOM      6  C   UNK d   1      15.324 -58.267  33.938  0.00  0.00     0.724 A 
ATOM      7  N   UNK d   1      15.187 -59.425  33.257  0.00  0.00    -0.074 NA
ATOM      8  C   UNK d   1      14.184 -60.281  33.406  0.00  0.00     0.157 A 
ATOM      9  C   UNK d   1      13.187 -60.005  34.314  0.00  0.00     0.047 A 
ATOM     10 Br   UNK d   1      11.728 -61.219  34.552  0.00  0.00    -0.048 Br
ATOM     11  C   UNK d   1      13.292 -58.832  35.030  0.00  0.00     0.157 A 
ATOM     12  N   UNK d   1      14.332 -58.001  34.838  0.00  0.00    -0.074 NA
ENDBRANCH   4   6
ENDBRANCH   1   2
BRANCH   1  13
ATOM     13  N   UNK d   1      18.754 -53.877  34.887  0.00  0.00    -0.257 N 
ATOM     14  N   UNK d   1      17.809 -53.805  35.910  0.00  0.00    -0.296 N 
ATOM     15  C   UNK d   1      17.883 -52.837  36.948  0.00  0.00     0.051 A 
ATOM     16  H   UNK d   1      17.017 -54.512  35.882  0.00  0.00     0.187 HD
ATOM     17  C   UNK d   1      16.962 -52.813  37.892  0.00  0.00    -0.051 A 
ATOM     18  C   UNK d   1      18.968 -51.876  36.975  0.00  0.00     0.036 A 
ATOM     19  C   UNK d   1      15.743 -53.252  38.599  0.00  0.00     0.041 A 
ATOM     20  C   UNK d   1      16.481 -52.130  39.157  0.00  0.00     0.041 A 
ATOM     21  C   UNK d   1      19.876 -51.926  36.014  0.00  0.00     0.078 A 
ATOM     22  C   UNK d   1      19.809 -52.928  34.931  0.00  0.00     0.262 A 
ATOM     23  O   UNK d   1      20.686 -52.954  34.028  0.00  0.00    -0.267 OA
ENDBRANCH   1  13
TORSDOF 3
ENDMDL
