MODEL 1
REMARK VINA RESULT:    -8.836      0.000      0.000
REMARK INTER + INTRA:          -9.235
REMARK INTER:                  -9.869
REMARK INTRA:                   0.634
REMARK UNBOUND:                 0.634
REMARK  2 active torsions:
REMARK  status: ('A' for Active; 'I' for Inactive)
REMARK    1  A    between atoms: C_6  and  C_8 
REMARK       I    between atoms: C_8  and  N_10 
REMARK    2  A    between atoms: C_12  and  N_14 
ROOT
ATOM      1  C   UNK d   1      17.779 -57.180  31.510  0.00  0.00     0.255 C 
ATOM      2  O   UNK d   1      16.630 -57.345  30.958  0.00  0.00    -0.267 OA
ATOM      3  N   UNK d   1      17.801 -56.646  32.812  0.00  0.00    -0.344 N 
ATOM      4  C   UNK d   1      18.742 -56.262  33.817  0.00  0.00     0.153 C 
ATOM      5  C   UNK d   1      17.688 -55.262  34.324  0.00  0.00     0.132 C 
ATOM      6  C   UNK d   1      16.741 -56.256  33.765  0.00  0.00     0.153 C 
ENDROOT
BRANCH   5   7
ATOM      7  N   UNK d   1      17.732 -55.118  35.753  0.00  0.00    -0.280 N 
ATOM      8  C   UNK d   1      16.935 -55.793  36.744  0.00  0.00     0.232 C 
ATOM      9  O   UNK d   1      16.393 -56.900  36.587  0.00  0.00    -0.272 OA
ATOM     10  C   UNK d   1      16.925 -54.881  37.940  0.00  0.00     0.095 C 
ATOM     11  C   UNK d   1      18.352 -54.388  37.909  0.00  0.00     0.095 C 
ATOM     12  C   UNK d   1      15.907 -53.825  37.675  0.00  0.00     0.041 C 
ATOM     13  C   UNK d   1      18.501 -53.099  38.668  0.00  0.00     0.041 C 
ATOM     14  C   UNK d   1      18.608 -54.249  36.462  0.00  0.00     0.232 C 
ATOM     15  C   UNK d   1      17.610 -52.065  38.077  0.00  0.00    -0.030 C 
ATOM     16  C   UNK d   1      16.430 -52.452  37.637  0.00  0.00    -0.030 C 
ATOM     17  O   UNK d   1      19.473 -53.472  35.987  0.00  0.00    -0.272 OA
ENDBRANCH   5   7
BRANCH   1  18
ATOM     18  C   UNK d   1      18.911 -57.574  30.703  0.00  0.00     0.051 A 
ATOM     19  C   UNK d   1      18.929 -58.823  30.069  0.00  0.00     0.133 A 
ATOM     20  N   UNK d   1      19.958 -59.241  29.323  0.00  0.00    -0.271 NA
ATOM     21  C   UNK d   1      21.054 -58.461  29.140  0.00  0.00     0.135 A 
ATOM     22  C   UNK d   1      21.119 -57.220  29.727  0.00  0.00     0.029 A 
ATOM     23 Br   UNK d   1      22.667 -56.145  29.457  0.00  0.00    -0.050 Br
ATOM     24  C   UNK d   1      20.039 -56.814  30.495  0.00  0.00     0.039 A 
ENDBRANCH   1  18
TORSDOF 2
ENDMDL
