/Users/jonathanwahrer/Desktop/Msc/3_Semester/Drug_Design_Praktikum/waehrer_HTS_screening/HTS_experiment/out/docking_results/vina_output/6s1j/0683_docked.pdbqt
 OpenBabel03222221313D

 10 10  0  0  0  0  0  0  0  0999 V2000
   16.1070  -52.3920   39.2280 Br  0  0  0  0  0  0  0  0  0  0  0  0
   17.7270  -52.7840   38.3390 C   0  0  0  0  0  0  0  0  0  0  0  0
   18.3860  -53.9740   38.6010 C   0  0  0  0  0  3  0  0  0  0  0  0
   19.5320  -54.2070   37.9450 N   0  0  0  0  0  0  0  0  0  0  0  0
   20.0720  -53.3590   37.0560 C   0  0  0  0  0  3  0  0  0  0  0  0
   19.4150  -52.1810   36.8030 C   0  0  0  0  0  0  0  0  0  0  0  0
   18.2250  -51.8660   37.4380 C   0  0  0  0  0  3  0  0  0  0  0  0
   19.9680  -51.2370   35.8460 C   0  0  0  0  0  0  0  0  0  0  0  0
   20.5100  -51.6460   34.7800 O   0  0  0  0  0  0  0  0  0  0  0  0
   19.9230  -49.8720   36.0710 O   0  0  0  0  0  1  0  0  0  0  0  0
  2  3  1  0  0  0  0
  2  1  1  0  0  0  0
  4  3  2  0  0  0  0
  5  4  1  0  0  0  0
  6  5  2  0  0  0  0
  6  7  1  0  0  0  0
  7  2  2  0  0  0  0
  8 10  1  0  0  0  0
  8  6  1  0  0  0  0
  9  8  2  0  0  0  0
M  END
>  <Pose>
1

>  <Score>
-5.826

$$$$
