MODEL 1
REMARK VINA RESULT:    -5.826      0.000      0.000
REMARK INTER + INTRA:          -6.199
REMARK INTER:                  -6.166
REMARK INTRA:                  -0.032
REMARK UNBOUND:                -0.032
REMARK  2 active torsions:
REMARK  status: ('A' for Active; 'I' for Inactive)
REMARK    1  A    between atoms: C_6  and  C_8 
REMARK    2  A    between atoms: C_21  and  N_22 
ROOT
ATOM      1 Br   UNK d   1      16.107 -52.392  39.228  0.00  0.00    -0.050 Br
ATOM      2  C   UNK d   1      17.727 -52.784  38.339  0.00  0.00     0.029 A 
ATOM      3  C   UNK d   1      18.386 -53.974  38.601  0.00  0.00     0.135 A 
ATOM      4  N   UNK d   1      19.532 -54.207  37.945  0.00  0.00    -0.271 NA
ATOM      5  C   UNK d   1      20.072 -53.359  37.056  0.00  0.00     0.134 A 
ATOM      6  C   UNK d   1      19.415 -52.181  36.803  0.00  0.00     0.059 A 
ATOM      7  C   UNK d   1      18.225 -51.866  37.438  0.00  0.00     0.040 A 
ENDROOT
BRANCH   6   8
ATOM      8  C   UNK d   1      19.968 -51.237  35.846  0.00  0.00     0.210 C 
ATOM      9  O   UNK d   1      20.510 -51.646  34.780  0.00  0.00    -0.644 OA
ATOM     10  O   UNK d   1      19.923 -49.872  36.071  0.00  0.00    -0.644 OA
ENDBRANCH   6   8
TORSDOF 2
ENDMDL
