MODEL 1
REMARK VINA RESULT:    -5.740      0.000      0.000
REMARK INTER + INTRA:          -6.106
REMARK INTER:                  -6.075
REMARK INTRA:                  -0.031
REMARK UNBOUND:                -0.031
REMARK  2 active torsions:
REMARK  status: ('A' for Active; 'I' for Inactive)
REMARK    1  A    between atoms: C_6  and  C_8 
REMARK    2  A    between atoms: C_20  and  N_21 
ROOT
ATOM      1 Br   UNK d   1      16.026 -52.384  39.228  0.00  0.00    -0.050 Br
ATOM      2  C   UNK d   1      17.680 -52.784  38.372  0.00  0.00     0.029 A 
ATOM      3  C   UNK d   1      18.391 -53.931  38.652  0.00  0.00     0.135 A 
ATOM      4  N   UNK d   1      19.559 -54.219  38.051  0.00  0.00    -0.271 NA
ATOM      5  C   UNK d   1      20.048 -53.358  37.146  0.00  0.00     0.134 A 
ATOM      6  C   UNK d   1      19.399 -52.192  36.811  0.00  0.00     0.059 A 
ATOM      7  C   UNK d   1      18.211 -51.922  37.438  0.00  0.00     0.040 A 
ENDROOT
BRANCH   6   8
ATOM      8  C   UNK d   1      19.943 -51.266  35.825  0.00  0.00     0.210 C 
ATOM      9  O   UNK d   1      20.432 -51.714  34.759  0.00  0.00    -0.644 OA
ATOM     10  O   UNK d   1      19.899 -49.908  36.102  0.00  0.00    -0.644 OA
ENDBRANCH   6   8
TORSDOF 2
ENDMDL
