/Users/jonathanwahrer/Desktop/Msc/3_Semester/Drug_Design_Praktikum/waehrer_HTS_screening/HTS_experiment/out/docking_results/vina_output/6s1j/0692_docked.pdbqt
 OpenBabel03222221313D

 29 32  0  0  0  0  0  0  0  0999 V2000
   19.5830  -55.7700   28.1930 Br  0  0  0  0  0  0  0  0  0  0  0  0
   19.1130  -57.2150   29.3330 C   0  0  0  0  0  0  0  0  0  0  0  0
   18.7210  -56.9570   30.6320 C   0  0  0  0  0  0  0  0  0  0  0  0
   18.3630  -57.9770   31.5260 C   0  0  0  0  0  0  0  0  0  0  0  0
   18.4020  -59.2810   31.1000 C   0  0  0  0  0  3  0  0  0  0  0  0
   18.7930  -59.5470   29.8010 C   0  0  0  0  0  0  0  0  0  0  0  0
   19.1450  -58.5450   28.9240 C   0  0  0  0  0  3  0  0  0  0  0  0
   18.8580  -61.3440   29.1770 Br  0  0  0  0  0  0  0  0  0  0  0  0
   17.9700  -57.6550   32.8920 C   0  0  0  0  0  0  0  0  0  0  0  0
   18.0960  -58.5850   33.7350 O   0  0  0  0  0  0  0  0  0  0  0  0
   17.4600  -56.3420   33.2720 C   0  0  0  0  0  0  0  0  0  0  0  0
   17.5910  -55.3900   32.0530 C   0  0  0  0  0  2  0  0  0  0  0  0
   18.6330  -55.6980   31.2020 O   0  0  0  0  0  0  0  0  0  0  0  0
   16.0550  -56.2390   33.6500 C   0  0  0  0  0  2  0  0  0  0  0  0
   15.2700  -57.2340   34.2180 N   0  0  0  0  0  4  0  0  0  0  0  0
   13.9020  -57.3970   33.8360 C   0  0  0  0  0  2  0  0  0  0  0  0
   13.5460  -58.8750   34.1400 C   0  0  0  0  0  2  0  0  0  0  0  0
   13.4420  -58.9540   35.6490 C   0  0  0  0  0  2  0  0  0  0  0  0
   14.1150  -57.7760   36.3200 C   0  0  0  0  0  2  0  0  0  0  0  0
   15.4260  -57.4220   35.6530 C   0  0  0  0  0  2  0  0  0  0  0  0
   15.7100  -58.1490   33.8320 H   0  0  0  0  0  0  0  0  0  0  0  0
   18.3360  -55.8100   34.3950 C   0  0  0  0  0  2  0  0  0  0  0  0
   18.4170  -54.3700   34.4110 N   0  0  0  0  0  4  0  0  0  0  0  0
   19.7780  -54.0040   34.7770 C   0  0  0  0  0  2  0  0  0  0  0  0
   20.1390  -54.6820   36.0570 C   0  0  0  0  0  2  0  0  0  0  0  0
   19.1910  -54.4610   37.1780 C   0  0  0  0  0  2  0  0  0  0  0  0
   17.7560  -54.3570   36.7940 C   0  0  0  0  0  2  0  0  0  0  0  0
   17.5920  -53.7380   35.4240 C   0  0  0  0  0  2  0  0  0  0  0  0
   18.1340  -53.9600   33.5040 H   0  0  0  0  0  0  0  0  0  0  0  0
  1  2  1  0  0  0  0
  2  3  1  0  0  0  0
  3 13  1  0  0  0  0
  3  4  2  0  0  0  0
  4  9  1  0  0  0  0
  5  4  1  0  0  0  0
  6  5  2  0  0  0  0
  7  2  2  0  0  0  0
  7  6  1  0  0  0  0
  8  6  1  0  0  0  0
  9 11  1  0  0  0  0
  9 10  2  0  0  0  0
 11 14  1  0  0  0  0
 11 22  1  0  0  0  0
 12 11  1  0  0  0  0
 13 12  1  0  0  0  0
 14 15  1  0  0  0  0
 15 20  1  0  0  0  0
 16 17  1  0  0  0  0
 16 15  1  0  0  0  0
 17 18  1  0  0  0  0
 18 19  1  0  0  0  0
 20 19  1  0  0  0  0
 21 15  1  0  0  0  0
 22 23  1  0  0  0  0
 23 24  1  0  0  0  0
 23 28  1  0  0  0  0
 24 25  1  0  0  0  0
 25 26  1  0  0  0  0
 27 26  1  0  0  0  0
 28 27  1  0  0  0  0
 29 23  1  0  0  0  0
M  END
>  <Pose>
1

>  <Score>
-7.048

$$$$
