MODEL 1
REMARK VINA RESULT:    -7.048      0.000      0.000
REMARK INTER + INTRA:          -9.871
REMARK INTER:                  -8.696
REMARK INTRA:                  -1.175
REMARK UNBOUND:                -1.175
REMARK  4 active torsions:
REMARK  status: ('A' for Active; 'I' for Inactive)
REMARK    1  A    between atoms: C_11  and  C_14 
REMARK    2  A    between atoms: C_11  and  C_21 
REMARK    3  A    between atoms: C_14  and  N_15 
REMARK    4  A    between atoms: C_21  and  N_22 
ROOT
ATOM      1 Br   UNK d   1      19.583 -55.770  28.193  0.00  0.00    -0.048 Br
ATOM      2  C   UNK d   1      19.113 -57.215  29.333  0.00  0.00     0.046 A 
ATOM      3  C   UNK d   1      18.721 -56.957  30.632  0.00  0.00     0.100 A 
ATOM      4  C   UNK d   1      18.363 -57.977  31.526  0.00  0.00     0.047 A 
ATOM      5  C   UNK d   1      18.402 -59.281  31.100  0.00  0.00     0.037 A 
ATOM      6  C   UNK d   1      18.793 -59.547  29.801  0.00  0.00     0.013 A 
ATOM      7  C   UNK d   1      19.145 -58.545  28.924  0.00  0.00     0.041 A 
ATOM      8 Br   UNK d   1      18.858 -61.344  29.177  0.00  0.00    -0.051 Br
ATOM      9  C   UNK d   1      17.970 -57.655  32.892  0.00  0.00     0.176 C 
ATOM     10  O   UNK d   1      18.096 -58.585  33.735  0.00  0.00    -0.291 OA
ATOM     11  C   UNK d   1      17.460 -56.342  33.272  0.00  0.00     0.095 C 
ATOM     12  C   UNK d   1      17.591 -55.390  32.053  0.00  0.00     0.197 C 
ATOM     13  O   UNK d   1      18.633 -55.698  31.202  0.00  0.00    -0.347 OA
ENDROOT
BRANCH  11  14
ATOM     14  C   UNK d   1      16.055 -56.239  33.650  0.00  0.00     0.256 C 
BRANCH  14  15
ATOM     15  N   UNK d   1      15.270 -57.234  34.218  0.00  0.00    -0.070 N 
ATOM     16  C   UNK d   1      13.902 -57.397  33.836  0.00  0.00     0.235 C 
ATOM     17  C   UNK d   1      13.546 -58.875  34.140  0.00  0.00     0.028 C 
ATOM     18  C   UNK d   1      13.442 -58.954  35.649  0.00  0.00     0.003 C 
ATOM     19  C   UNK d   1      14.115 -57.776  36.320  0.00  0.00     0.028 C 
ATOM     20  C   UNK d   1      15.426 -57.422  35.653  0.00  0.00     0.235 C 
ATOM     21  H   UNK d   1      15.710 -58.149  33.832  0.00  0.00     0.279 HD
ENDBRANCH  14  15
ENDBRANCH  11  14
BRANCH  11  22
ATOM     22  C   UNK d   1      18.336 -55.810  34.395  0.00  0.00     0.256 C 
BRANCH  22  23
ATOM     23  N   UNK d   1      18.417 -54.370  34.411  0.00  0.00    -0.070 N 
ATOM     24  C   UNK d   1      19.778 -54.004  34.777  0.00  0.00     0.235 C 
ATOM     25  C   UNK d   1      20.139 -54.682  36.057  0.00  0.00     0.028 C 
ATOM     26  C   UNK d   1      19.191 -54.461  37.178  0.00  0.00     0.003 C 
ATOM     27  C   UNK d   1      17.756 -54.357  36.794  0.00  0.00     0.028 C 
ATOM     28  C   UNK d   1      17.592 -53.738  35.424  0.00  0.00     0.235 C 
ATOM     29  H   UNK d   1      18.134 -53.960  33.504  0.00  0.00     0.279 HD
ENDBRANCH  22  23
ENDBRANCH  11  22
TORSDOF 4
ENDMDL
