MODEL 1
REMARK VINA RESULT:   -10.223      0.000      0.000
REMARK INTER + INTRA:         -13.316
REMARK INTER:                 -12.614
REMARK INTRA:                  -0.703
REMARK UNBOUND:                -0.703
REMARK  4 active torsions:
REMARK  status: ('A' for Active; 'I' for Inactive)
REMARK    1  A    between atoms: N_10  and  N_11 
REMARK       I    between atoms: N_11  and  C_12 
REMARK    2  A    between atoms: C_12  and  C_14 
REMARK    3  A    between atoms: C_14  and  N_15 
REMARK       I    between atoms: N_15  and  C_16 
REMARK    4  A    between atoms: C_16  and  C_18 
ROOT
ATOM      1  N   UNK d   1      15.982 -56.690  34.045  0.00  0.00    -0.245 N 
ATOM      2  C   UNK d   1      16.702 -56.556  32.837  0.00  0.00     0.255 C 
ATOM      3  O   UNK d   1      16.474 -57.320  31.876  0.00  0.00    -0.270 OA
ATOM      4  H   UNK d   1      16.120 -56.089  34.886  0.00  0.00     0.192 HD
ENDROOT
BRANCH   2   5
ATOM      5  C   UNK d   1      17.756 -55.510  32.645  0.00  0.00     0.227 C 
BRANCH   5   6
ATOM      6  N   UNK d   1      18.223 -54.981  33.897  0.00  0.00    -0.350 N 
ATOM      7  C   UNK d   1      19.453 -54.281  34.028  0.00  0.00     0.249 C 
ATOM      8  O   UNK d   1      20.156 -54.120  33.007  0.00  0.00    -0.271 OA
ATOM      9  H   UNK d   1      17.665 -55.092  34.776  0.00  0.00     0.163 HD
BRANCH   7  10
ATOM     10  C   UNK d   1      19.953 -53.728  35.322  0.00  0.00     0.244 C 
ATOM     11  O   UNK d   1      19.329 -54.325  36.421  0.00  0.00    -0.331 OA
ATOM     12  C   UNK d   1      18.418 -53.689  37.261  0.00  0.00     0.103 A 
ATOM     13  C   UNK d   1      18.407 -52.319  37.243  0.00  0.00     0.102 A 
ATOM     14  C   UNK d   1      17.563 -54.366  38.079  0.00  0.00     0.040 A 
ATOM     15  C   UNK d   1      17.505 -51.656  38.076  0.00  0.00     0.039 A 
ATOM     16  O   UNK d   1      19.267 -51.644  36.422  0.00  0.00    -0.345 OA
ATOM     17  C   UNK d   1      16.636 -52.326  38.907  0.00  0.00     0.003 A 
ATOM     18  C   UNK d   1      16.676 -53.707  38.898  0.00  0.00     0.003 A 
ATOM     19  C   UNK d   1      19.944 -52.240  35.350  0.00  0.00     0.218 C 
ENDBRANCH   7  10
ENDBRANCH   5   6
ENDBRANCH   2   5
BRANCH   1  20
ATOM     20  N   UNK d   1      15.019 -57.700  34.127  0.00  0.00    -0.166 NA
ATOM     21  C   UNK d   1      14.501 -58.076  35.236  0.00  0.00     0.157 A 
ATOM     22  C   UNK d   1      13.500 -59.097  35.507  0.00  0.00     0.029 A 
ATOM     23  C   UNK d   1      14.848 -57.505  36.542  0.00  0.00     0.277 A 
ATOM     24  C   UNK d   1      13.226 -59.178  36.862  0.00  0.00     0.065 A 
ATOM     25  C   UNK d   1      12.809 -59.962  34.687  0.00  0.00     0.035 A 
ATOM     26  C   UNK d   1      12.310 -60.074  37.374  0.00  0.00     0.040 A 
ATOM     27  N   UNK d   1      14.054 -58.201  37.483  0.00  0.00    -0.320 N 
ATOM     28 Br   UNK d   1      11.944 -60.175  39.250  0.00  0.00    -0.049 Br
ATOM     29  C   UNK d   1      11.625 -60.938  36.520  0.00  0.00     0.040 A 
ATOM     30  C   UNK d   1      11.888 -60.869  35.161  0.00  0.00     0.013 A 
ATOM     31 Br   UNK d   1      10.964 -62.043  33.969  0.00  0.00    -0.051 Br
ATOM     32  H   UNK d   1      14.072 -58.024  38.501  0.00  0.00     0.169 HD
ATOM     33  O   UNK d   1      15.692 -56.583  36.704  0.00  0.00    -0.266 OA
ENDBRANCH   1  20
TORSDOF 4
ENDMDL
