/Users/jonathanwahrer/Desktop/Msc/3_Semester/Drug_Design_Praktikum/waehrer_HTS_screening/HTS_experiment/out/docking_results/vina_output/6s1j/0696_docked.pdbqt
 OpenBabel03222221313D

 28 31  0  0  1  0  0  0  0  0999 V2000
   16.9010  -62.2700   32.8440 Br  0  0  0  0  0  0  0  0  0  0  0  0
   15.5390  -61.1320   33.5190 C   0  0  0  0  0  0  0  0  0  0  0  0
   15.8380  -59.7880   33.7780 C   0  0  0  0  0  0  0  0  0  0  0  0
   14.9010  -58.9230   34.2550 C   0  0  0  0  0  0  0  0  0  0  0  0
   13.6210  -59.3960   34.4880 C   0  0  0  0  0  3  0  0  0  0  0  0
   13.3160  -60.7290   34.2340 C   0  0  0  0  0  0  0  0  0  0  0  0
   14.2650  -61.6000   33.7520 C   0  0  0  0  0  3  0  0  0  0  0  0
   11.9510  -61.2770   34.4720 C   0  0  0  0  0  1  0  0  0  0  0  0
   15.2300  -57.4890   34.4820 C   0  0  1  0  0  3  0  0  0  0  0  0
   16.6330  -57.1800   34.8630 C   0  0  0  0  0  0  0  0  0  0  0  0
   17.5550  -58.4010   34.6350 C   0  0  0  0  0  2  0  0  0  0  0  0
   17.0910  -59.2270   33.5790 O   0  0  0  0  0  0  0  0  0  0  0  0
   16.7980  -56.9130   36.3480 C   0  0  0  0  0  2  0  0  0  0  0  0
   15.5570  -56.7300   37.0690 N   0  0  0  0  0  4  0  0  0  0  0  0
   15.7240  -55.6710   38.0650 C   0  0  0  0  0  2  0  0  0  0  0  0
   14.7140  -55.8900   39.1300 C   0  0  0  0  0  2  0  0  0  0  0  0
   14.1380  -57.2290   38.8160 C   0  0  0  0  0  2  0  0  0  0  0  0
   15.2460  -57.8430   37.9510 C   0  0  0  0  0  2  0  0  0  0  0  0
   14.7230  -56.5730   36.4860 H   0  0  0  0  0  0  0  0  0  0  0  0
   17.2350  -56.1260   34.0130 C   0  0  0  0  0  2  0  0  0  0  0  0
   18.5510  -55.8550   33.7460 N   0  0  0  0  0  4  0  0  0  0  0  0
   18.6910  -55.2930   32.3840 C   0  0  0  0  0  2  0  0  0  0  0  0
   19.8030  -54.3190   32.4400 C   0  0  0  0  0  2  0  0  0  0  0  0
   19.9120  -53.8800   33.8500 C   0  0  0  0  0  2  0  0  0  0  0  0
   19.2810  -55.0360   34.6230 C   0  0  0  0  0  2  0  0  0  0  0  0
   19.1300  -56.7930   33.5890 H   0  0  0  0  0  0  0  0  0  0  0  0
   14.8290  -56.8870   33.2570 O   0  0  0  0  0  0  0  0  0  0  0  0
   15.5160  -56.2900   32.9150 H   0  0  0  0  0  0  0  0  0  0  0  0
  1  2  1  0  0  0  0
  2  7  2  0  0  0  0
  2  3  1  0  0  0  0
  3  4  2  0  0  0  0
  4  9  1  0  0  0  0
  4  5  1  0  0  0  0
  6  8  1  0  0  0  0
  6  5  2  0  0  0  0
  7  6  1  0  0  0  0
  9 27  1  6  0  0  0
  9 10  1  0  0  0  0
 10 13  1  0  0  0  0
 11 10  1  0  0  0  0
 12  3  1  0  0  0  0
 12 11  1  0  0  0  0
 13 14  1  0  0  0  0
 14 18  1  0  0  0  0
 14 15  1  0  0  0  0
 15 16  1  0  0  0  0
 17 16  1  0  0  0  0
 18 17  1  0  0  0  0
 19 14  1  0  0  0  0
 20 10  1  0  0  0  0
 21 20  1  0  0  0  0
 21 25  1  0  0  0  0
 22 23  1  0  0  0  0
 22 21  1  0  0  0  0
 23 24  1  0  0  0  0
 24 25  1  0  0  0  0
 26 21  1  0  0  0  0
 28 27  1  0  0  0  0
M  END
>  <Pose>
1

>  <Score>
-7.651

$$$$
