MODEL 1
REMARK VINA RESULT:    -9.303      0.000      0.000
REMARK INTER + INTRA:         -11.531
REMARK INTER:                 -10.935
REMARK INTRA:                  -0.597
REMARK UNBOUND:                -0.597
REMARK  3 active torsions:
REMARK  status: ('A' for Active; 'I' for Inactive)
REMARK    1  A    between atoms: N_3  and  C_15 
REMARK    2  A    between atoms: C_15  and  C_16 
REMARK    3  A    between atoms: C_16  and  N_17 
ROOT
ATOM      1  C   UNK d   1      18.242 -56.195  34.651  0.00  0.00     0.152 C 
ENDROOT
BRANCH   1   2
ATOM      2  N   UNK d   1      17.261 -56.470  35.646  0.00  0.00    -0.316 N 
ATOM      3  C   UNK d   1      16.581 -57.631  35.706  0.00  0.00     0.180 A 
ATOM      4 Br   UNK d   1      16.762 -59.146  34.526  0.00  0.00    -0.008 Br
ATOM      5  N   UNK d   1      15.744 -57.534  36.753  0.00  0.00    -0.203 NA
ATOM      6  C   UNK d   1      15.883 -56.342  37.348  0.00  0.00     0.169 A 
ATOM      7  C   UNK d   1      16.854 -55.662  36.638  0.00  0.00     0.152 A 
ATOM      8  N   UNK d   1      15.309 -55.734  38.405  0.00  0.00    -0.286 N 
ATOM      9  C   UNK d   1      17.162 -54.391  37.076  0.00  0.00     0.282 A 
ATOM     10  N   UNK d   1      16.583 -53.794  38.132  0.00  0.00    -0.269 N 
ATOM     11  O   UNK d   1      18.035 -53.759  36.447  0.00  0.00    -0.265 OA
ATOM     12  C   UNK d   1      15.642 -54.485  38.801  0.00  0.00     0.332 A 
ATOM     13  C   UNK d   1      16.922 -52.455  38.574  0.00  0.00     0.164 C 
ATOM     14  O   UNK d   1      15.077 -53.950  39.801  0.00  0.00    -0.246 OA
ATOM     15  C   UNK d   1      14.292 -56.454  39.144  0.00  0.00     0.163 C 
ENDBRANCH   1   2
BRANCH   1  16
ATOM     16  C   UNK d   1      17.767 -55.622  33.366  0.00  0.00     0.152 C 
BRANCH  16  17
ATOM     17  N   UNK d   1      18.697 -55.560  32.289  0.00  0.00    -0.316 N 
ATOM     18  C   UNK d   1      18.653 -56.318  31.166  0.00  0.00     0.152 A 
ATOM     19  C   UNK d   1      19.712 -55.993  30.355  0.00  0.00     0.169 A 
ATOM     20  C   UNK d   1      17.794 -57.305  30.698  0.00  0.00     0.282 A 
ATOM     21  N   UNK d   1      20.379 -55.033  31.017  0.00  0.00    -0.203 NA
ATOM     22  N   UNK d   1      19.939 -56.585  29.152  0.00  0.00    -0.286 N 
ATOM     23  C   UNK d   1      19.770 -54.771  32.182  0.00  0.00     0.180 A 
ATOM     24 Br   UNK d   1      20.304 -53.490  33.520  0.00  0.00    -0.008 Br
ATOM     25  C   UNK d   1      19.063 -57.531  28.768  0.00  0.00     0.332 A 
ATOM     26  C   UNK d   1      21.074 -56.213  28.317  0.00  0.00     0.163 C 
ATOM     27  O   UNK d   1      19.262 -58.088  27.654  0.00  0.00    -0.246 OA
ATOM     28  N   UNK d   1      18.008 -57.891  29.520  0.00  0.00    -0.269 N 
ATOM     29  C   UNK d   1      17.095 -58.915  29.061  0.00  0.00     0.164 C 
ATOM     30  O   UNK d   1      16.826 -57.596  31.450  0.00  0.00    -0.265 OA
ENDBRANCH  16  17
ENDBRANCH   1  16
TORSDOF 3
ENDMDL
