MODEL 1
REMARK VINA RESULT:    -8.745      0.000      0.000
REMARK INTER + INTRA:         -10.872
REMARK INTER:                 -10.790
REMARK INTRA:                  -0.081
REMARK UNBOUND:                -0.081
REMARK  4 active torsions:
REMARK  status: ('A' for Active; 'I' for Inactive)
REMARK    1  A    between atoms: N_3  and  C_14 
REMARK    2  A    between atoms: C_14  and  C_15 
REMARK    3  A    between atoms: C_15  and  C_16 
REMARK    4  A    between atoms: C_16  and  N_17 
ROOT
ATOM      1  C   UNK d   1      15.779 -57.635  34.842  0.00  0.00     0.041 C 
ENDROOT
BRANCH   1   2
ATOM      2  C   UNK d   1      15.819 -56.945  33.511  0.00  0.00     0.133 C 
BRANCH   2   3
ATOM      3  N   UNK d   1      16.751 -57.534  32.572  0.00  0.00    -0.318 N 
ATOM      4  C   UNK d   1      16.834 -58.870  32.289  0.00  0.00     0.180 A 
ATOM      5 Br   UNK d   1      15.697 -60.169  33.092  0.00  0.00    -0.008 Br
ATOM      6  N   UNK d   1      17.806 -59.095  31.393  0.00  0.00    -0.203 NA
ATOM      7  C   UNK d   1      18.382 -57.918  31.068  0.00  0.00     0.169 A 
ATOM      8  C   UNK d   1      17.709 -56.964  31.814  0.00  0.00     0.152 A 
ATOM      9  N   UNK d   1      19.393 -57.643  30.225  0.00  0.00    -0.286 N 
ATOM     10  C   UNK d   1      18.104 -55.668  31.683  0.00  0.00     0.280 A 
ATOM     11  N   UNK d   1      19.128 -55.393  30.828  0.00  0.00    -0.273 N 
ATOM     12  O   UNK d   1      17.535 -54.767  32.334  0.00  0.00    -0.265 OA
ATOM     13  C   UNK d   1      19.754 -56.352  30.121  0.00  0.00     0.330 A 
ATOM     14  H   UNK d   1      19.396 -54.388  30.759  0.00  0.00     0.173 HD
ATOM     15  O   UNK d   1      20.708 -56.039  29.332  0.00  0.00    -0.246 OA
ATOM     16  C   UNK d   1      20.090 -58.646  29.448  0.00  0.00     0.163 C 
ENDBRANCH   2   3
ENDBRANCH   1   2
BRANCH   1  17
ATOM     17  C   UNK d   1      16.973 -57.380  35.717  0.00  0.00     0.133 C 
BRANCH  17  18
ATOM     18  N   UNK d   1      16.683 -56.306  36.656  0.00  0.00    -0.318 N 
ATOM     19  C   UNK d   1      17.247 -55.079  36.730  0.00  0.00     0.152 A 
ATOM     20  C   UNK d   1      16.690 -54.359  37.761  0.00  0.00     0.169 A 
ATOM     21  C   UNK d   1      18.225 -54.476  35.984  0.00  0.00     0.280 A 
ATOM     22  N   UNK d   1      15.774 -55.174  38.317  0.00  0.00    -0.203 NA
ATOM     23  N   UNK d   1      17.054 -53.102  38.075  0.00  0.00    -0.286 N 
ATOM     24  C   UNK d   1      15.776 -56.345  37.646  0.00  0.00     0.180 A 
ATOM     25 Br   UNK d   1      14.678 -57.867  37.999  0.00  0.00    -0.008 Br
ATOM     26  C   UNK d   1      18.026 -52.545  37.312  0.00  0.00     0.330 A 
ATOM     27  C   UNK d   1      16.435 -52.376  39.182  0.00  0.00     0.163 C 
ATOM     28  O   UNK d   1      18.371 -51.360  37.604  0.00  0.00    -0.246 OA
ATOM     29  N   UNK d   1      18.598 -53.216  36.290  0.00  0.00    -0.273 N 
ATOM     30  H   UNK d   1      19.338 -52.738  35.739  0.00  0.00     0.173 HD
ATOM     31  O   UNK d   1      18.737 -55.127  35.041  0.00  0.00    -0.265 OA
ENDBRANCH  17  18
ENDBRANCH   1  17
TORSDOF 4
ENDMDL
