MODEL 1
REMARK VINA RESULT:    -9.039      0.000      0.000
REMARK INTER + INTRA:         -11.137
REMARK INTER:                 -10.624
REMARK INTRA:                  -0.513
REMARK UNBOUND:                -0.513
REMARK  3 active torsions:
REMARK  status: ('A' for Active; 'I' for Inactive)
REMARK    1  A    between atoms: N_3  and  C_14 
REMARK    2  A    between atoms: C_14  and  C_15 
REMARK    3  A    between atoms: C_15  and  N_16 
ROOT
ATOM      1  C   UNK d   1      17.716 -55.976  33.574  0.00  0.00     0.152 C 
ENDROOT
BRANCH   1   2
ATOM      2  N   UNK d   1      18.311 -56.703  32.505  0.00  0.00    -0.316 N 
ATOM      3  C   UNK d   1      18.071 -58.004  32.217  0.00  0.00     0.180 A 
ATOM      4 Br   UNK d   1      16.853 -59.083  33.216  0.00  0.00    -0.008 Br
ATOM      5  N   UNK d   1      18.811 -58.367  31.157  0.00  0.00    -0.203 NA
ATOM      6  C   UNK d   1      19.549 -57.317  30.729  0.00  0.00     0.169 A 
ATOM      7  C   UNK d   1      19.218 -56.278  31.594  0.00  0.00     0.152 A 
ATOM      8  N   UNK d   1      20.440 -57.139  29.738  0.00  0.00    -0.286 N 
ATOM      9  C   UNK d   1      19.856 -55.082  31.368  0.00  0.00     0.280 A 
ATOM     10  N   UNK d   1      20.755 -54.907  30.366  0.00  0.00    -0.273 N 
ATOM     11  O   UNK d   1      19.568 -54.128  32.150  0.00  0.00    -0.265 OA
ATOM     12  C   UNK d   1      21.035 -55.947  29.559  0.00  0.00     0.330 A 
ATOM     13  H   UNK d   1      21.205 -53.974  30.245  0.00  0.00     0.173 HD
ATOM     14  O   UNK d   1      21.878 -55.769  28.624  0.00  0.00    -0.246 OA
ATOM     15  C   UNK d   1      20.788 -58.213  28.836  0.00  0.00     0.163 C 
ENDBRANCH   1   2
BRANCH   1  16
ATOM     16  C   UNK d   1      18.444 -55.961  34.870  0.00  0.00     0.152 C 
BRANCH  16  17
ATOM     17  N   UNK d   1      17.947 -55.135  35.914  0.00  0.00    -0.316 N 
ATOM     18  C   UNK d   1      16.976 -55.420  36.796  0.00  0.00     0.152 A 
ATOM     19  C   UNK d   1      16.797 -54.339  37.634  0.00  0.00     0.169 A 
ATOM     20  C   UNK d   1      16.165 -56.520  37.031  0.00  0.00     0.280 A 
ATOM     21  N   UNK d   1      17.694 -53.425  37.211  0.00  0.00    -0.203 NA
ATOM     22  N   UNK d   1      15.885 -54.385  38.604  0.00  0.00    -0.286 N 
ATOM     23  C   UNK d   1      18.400 -53.874  36.180  0.00  0.00     0.180 A 
ATOM     24 Br   UNK d   1      19.795 -52.954  35.222  0.00  0.00    -0.008 Br
ATOM     25  C   UNK d   1      15.134 -55.475  38.778  0.00  0.00     0.330 A 
ATOM     26  C   UNK d   1      15.687 -53.260  39.488  0.00  0.00     0.163 C 
ATOM     27  O   UNK d   1      14.251 -55.548  39.697  0.00  0.00    -0.246 OA
ATOM     28  N   UNK d   1      15.247 -56.569  38.004  0.00  0.00    -0.273 N 
ATOM     29  H   UNK d   1      14.639 -57.412  38.168  0.00  0.00     0.173 HD
ATOM     30  O   UNK d   1      16.280 -57.535  36.307  0.00  0.00    -0.265 OA
ENDBRANCH  16  17
ENDBRANCH   1  16
TORSDOF 3
ENDMDL
