/Users/jonathanwahrer/Desktop/Msc/3_Semester/Drug_Design_Praktikum/waehrer_HTS_screening/HTS_experiment/out/docking_results/vina_output/6s1j/0716_docked.pdbqt
 OpenBabel03222221333D

 31 35  0  0  1  0  0  0  0  0999 V2000
   16.5210  -54.8530   37.9950 C   0  0  1  0  0  0  0  0  0  0  0  0
   17.3540  -55.3240   36.8240 C   0  0  0  0  0  2  0  0  0  0  0  0
   18.2560  -54.2120   36.3740 C   0  0  2  0  0  0  0  0  0  0  0  0
   19.2440  -53.9720   37.5240 C   0  0  0  0  0  2  0  0  0  0  0  0
   18.4650  -53.6050   38.7610 C   0  0  2  0  0  3  0  0  0  0  0  0
   17.4660  -54.6590   39.1610 C   0  0  0  0  0  2  0  0  0  0  0  0
   17.7710  -52.3020   38.5190 C   0  0  0  0  0  2  0  0  0  0  0  0
   16.8080  -52.4770   37.3660 C   0  0  2  0  0  3  0  0  0  0  0  0
   15.8370  -53.5490   37.7300 C   0  0  0  0  0  2  0  0  0  0  0  0
   17.5600  -52.9150   36.1280 C   0  0  0  0  0  2  0  0  0  0  0  0
   19.0190  -54.5870   35.1640 C   0  0  0  0  0  0  0  0  0  0  0  0
   20.2720  -54.6340   35.2470 O   0  0  0  0  0  0  0  0  0  0  0  0
   18.3520  -54.8880   33.9420 N   0  0  0  0  0  0  0  0  0  0  0  0
   17.3170  -54.8260   33.9540 H   0  0  0  0  0  0  0  0  0  0  0  0
   18.9980  -55.2560   32.7320 C   0  0  0  0  0  0  0  0  0  0  0  0
   18.7880  -56.4330   32.0700 C   0  0  0  0  0  0  0  0  0  0  0  0
   19.5780  -56.4190   30.9710 N   0  0  0  0  0  0  0  0  0  0  0  0
   20.2500  -55.2880   30.9460 N   0  0  0  0  0  0  0  0  0  0  0  0
   19.7040  -57.4490   29.9550 C   0  0  0  0  0  1  0  0  0  0  0  0
   19.9290  -54.5410   32.0070 C   0  0  0  0  0  3  0  0  0  0  0  0
   17.9230  -57.5550   32.3730 C   0  0  0  0  0  0  0  0  0  0  0  0
   16.7400  -57.5980   31.9530 O   0  0  0  0  0  0  0  0  0  0  0  0
   18.3340  -58.6720   33.1490 N   0  0  0  0  0  0  0  0  0  0  0  0
   18.6030  -59.5600   32.6340 H   0  0  0  0  0  0  0  0  0  0  0  0
   18.3910  -58.6900   34.1860 H   0  0  0  0  0  0  0  0  0  0  0  0
   15.5010  -55.8560   38.2950 N   0  0  0  0  0  0  0  0  0  0  0  0
   15.1340  -56.8850   37.5410 N   0  0  0  0  0  0  0  0  0  0  0  0
   14.1630  -57.5950   38.1440 C   0  0  0  0  0  0  0  0  0  0  0  0
   13.2820  -59.1680   37.4900 Br  0  0  0  0  0  0  0  0  0  0  0  0
   13.9110  -56.9860   39.3250 N   0  0  0  0  0  0  0  0  0  0  0  0
   14.7360  -55.9300   39.3990 C   0  0  0  0  0  3  0  0  0  0  0  0
  1  2  1  6  0  0  0
  1 26  1  0  0  0  0
  1  6  1  0  0  0  0
  3 11  1  6  0  0  0
  3  2  1  0  0  0  0
  3  4  1  0  0  0  0
  5  4  1  6  0  0  0
  5  6  1  0  0  0  0
  7  5  1  0  0  0  0
  8 10  1  6  0  0  0
  8  9  1  0  0  0  0
  8  7  1  0  0  0  0
  9  1  1  0  0  0  0
 10  3  1  0  0  0  0
 11 12  2  0  0  0  0
 13 14  1  0  0  0  0
 13 11  1  0  0  0  0
 15 13  1  0  0  0  0
 16 21  1  0  0  0  0
 16 15  2  0  0  0  0
 17 16  1  0  0  0  0
 18 17  1  0  0  0  0
 18 20  2  0  0  0  0
 19 17  1  0  0  0  0
 20 15  1  0  0  0  0
 21 23  1  0  0  0  0
 22 21  2  0  0  0  0
 23 25  1  0  0  0  0
 24 23  1  0  0  0  0
 26 31  1  0  0  0  0
 27 28  2  0  0  0  0
 27 26  1  0  0  0  0
 28 30  1  0  0  0  0
 29 28  1  0  0  0  0
 30 31  2  0  0  0  0
M  END
>  <Pose>
1

>  <Score>
-9.616

$$$$
