MODEL 1
REMARK VINA RESULT:    -9.616      0.000      0.000
REMARK INTER + INTRA:         -12.768
REMARK INTER:                 -11.864
REMARK INTRA:                  -0.903
REMARK UNBOUND:                -0.903
REMARK  4 active torsions:
REMARK  status: ('A' for Active; 'I' for Inactive)
REMARK    1  A    between atoms: N_4  and  C_7 
REMARK    2  A    between atoms: C_9  and  C_17 
REMARK       I    between atoms: C_17  and  N_19 
REMARK    3  A    between atoms: N_19  and  C_20 
REMARK    4  A    between atoms: C_21  and  C_26 
REMARK       I    between atoms: C_26  and  N_28 
ROOT
ATOM      1  C   UNK d   1      16.521 -54.853  37.995  0.00  0.00     0.059 C 
ATOM      2  C   UNK d   1      17.354 -55.324  36.824  0.00  0.00     0.052 C 
ATOM      3  C   UNK d   1      18.256 -54.212  36.374  0.00  0.00     0.044 C 
ATOM      4  C   UNK d   1      19.244 -53.972  37.524  0.00  0.00     0.024 C 
ATOM      5  C   UNK d   1      18.465 -53.605  38.761  0.00  0.00    -0.011 C 
ATOM      6  C   UNK d   1      17.466 -54.659  39.161  0.00  0.00     0.038 C 
ATOM      7  C   UNK d   1      17.771 -52.302  38.519  0.00  0.00     0.009 C 
ATOM      8  C   UNK d   1      16.808 -52.477  37.366  0.00  0.00    -0.011 C 
ATOM      9  C   UNK d   1      15.837 -53.549  37.730  0.00  0.00     0.038 C 
ATOM     10  C   UNK d   1      17.560 -52.915  36.128  0.00  0.00     0.024 C 
ENDROOT
BRANCH   3  11
ATOM     11  C   UNK d   1      19.019 -54.587  35.164  0.00  0.00     0.231 C 
ATOM     12  O   UNK d   1      20.272 -54.634  35.247  0.00  0.00    -0.272 OA
ATOM     13  N   UNK d   1      18.352 -54.888  33.942  0.00  0.00    -0.323 N 
ATOM     14  H   UNK d   1      17.317 -54.826  33.954  0.00  0.00     0.169 HD
BRANCH  13  15
ATOM     15  C   UNK d   1      18.998 -55.256  32.732  0.00  0.00     0.088 A 
ATOM     16  C   UNK d   1      18.788 -56.433  32.070  0.00  0.00     0.148 A 
ATOM     17  N   UNK d   1      19.578 -56.419  30.971  0.00  0.00    -0.267 N 
ATOM     18  N   UNK d   1      20.250 -55.288  30.946  0.00  0.00    -0.182 NA
ATOM     19  C   UNK d   1      19.704 -57.449  29.955  0.00  0.00     0.180 C 
ATOM     20  C   UNK d   1      19.929 -54.541  32.007  0.00  0.00     0.171 A 
BRANCH  16  21
ATOM     21  C   UNK d   1      17.923 -57.555  32.373  0.00  0.00     0.270 C 
ATOM     22  O   UNK d   1      16.740 -57.598  31.953  0.00  0.00    -0.266 OA
ATOM     23  N   UNK d   1      18.334 -58.672  33.149  0.00  0.00    -0.365 N 
ATOM     24  H   UNK d   1      18.603 -59.560  32.634  0.00  0.00     0.159 HD
ATOM     25  H   UNK d   1      18.391 -58.690  34.186  0.00  0.00     0.159 HD
ENDBRANCH  16  21
ENDBRANCH  13  15
ENDBRANCH   3  11
BRANCH   1  26
ATOM     26  N   UNK d   1      15.501 -55.856  38.295  0.00  0.00    -0.251 N 
ATOM     27  N   UNK d   1      15.134 -56.885  37.541  0.00  0.00    -0.142 NA
ATOM     28  C   UNK d   1      14.163 -57.595  38.144  0.00  0.00     0.217 A 
ATOM     29 Br   UNK d   1      13.282 -59.168  37.490  0.00  0.00    -0.005 Br
ATOM     30  N   UNK d   1      13.911 -56.986  39.325  0.00  0.00    -0.215 NA
ATOM     31  C   UNK d   1      14.736 -55.930  39.399  0.00  0.00     0.232 A 
ENDBRANCH   1  26
TORSDOF 4
ENDMDL
