MODEL 1
REMARK VINA RESULT:    -7.163      0.000      0.000
REMARK INTER + INTRA:          -7.850
REMARK INTER:                  -8.001
REMARK INTRA:                   0.151
REMARK UNBOUND:                 0.151
REMARK  2 active torsions:
REMARK  status: ('A' for Active; 'I' for Inactive)
REMARK    1  A    between atoms: C_9  and  N_11 
REMARK    2  A    between atoms: C_12  and  C_17 
ROOT
ATOM      1  N   UNK d   1      17.215 -57.607  34.466  0.00  0.00    -0.348 N 
ATOM      2  C   UNK d   1      16.386 -57.714  33.306  0.00  0.00     0.189 C 
ATOM      3  C   UNK d   1      16.937 -58.617  32.271  0.00  0.00     0.201 C 
ATOM      4  O   UNK d   1      18.219 -59.063  32.444  0.00  0.00    -0.387 OA
ATOM      5  C   UNK d   1      19.058 -58.105  33.002  0.00  0.00     0.187 C 
ATOM      6  C   UNK d   1      18.639 -57.716  34.383  0.00  0.00     0.151 C 
ENDROOT
BRANCH   1   7
ATOM      7  C   UNK d   1      16.668 -57.366  35.771  0.00  0.00     0.145 A 
ATOM      8  N   UNK d   1      16.145 -58.421  36.470  0.00  0.00    -0.223 NA
ATOM      9  C   UNK d   1      15.669 -58.262  37.718  0.00  0.00     0.237 A 
ATOM     10  N   UNK d   1      15.695 -57.057  38.315  0.00  0.00    -0.222 NA
ATOM     11  C   UNK d   1      16.191 -55.981  37.694  0.00  0.00     0.164 A 
ATOM     12  N   UNK d   1      16.302 -54.698  38.081  0.00  0.00    -0.255 N 
ATOM     13  C   UNK d   1      16.684 -56.150  36.394  0.00  0.00     0.095 A 
ATOM     14  N   UNK d   1      16.847 -54.058  37.072  0.00  0.00    -0.163 NA
ATOM     15  C   UNK d   1      15.909 -54.117  39.351  0.00  0.00     0.182 C 
ATOM     16  C   UNK d   1      17.093 -54.888  36.034  0.00  0.00     0.141 A 
ATOM     17 Br   UNK d   1      17.835 -54.431  34.342  0.00  0.00    -0.026 Br
ENDBRANCH   1   7
BRANCH   2  18
ATOM     18  C   UNK d   1      14.980 -58.007  33.663  0.00  0.00     0.198 A 
ATOM     19  N   UNK d   1      14.504 -59.185  34.069  0.00  0.00    -0.207 NA
ATOM     20  C   UNK d   1      13.169 -59.005  34.285  0.00  0.00     0.152 A 
ATOM     21  N   UNK d   1      12.905 -57.719  33.995  0.00  0.00    -0.112 NA
ATOM     22  C   UNK d   1      12.191 -60.017  34.747  0.00  0.00     0.096 C 
ATOM     23  O   UNK d   1      14.010 -57.141  33.624  0.00  0.00    -0.194 OA
ENDBRANCH   2  18
TORSDOF 2
ENDMDL
