MODEL 1
REMARK VINA RESULT:    -8.082      0.000      0.000
REMARK INTER + INTRA:          -8.858
REMARK INTER:                  -8.554
REMARK INTRA:                  -0.304
REMARK UNBOUND:                -0.304
REMARK  1 active torsions:
REMARK  status: ('A' for Active; 'I' for Inactive)
REMARK    1  A    between atoms: C_9  and  N_11 
ROOT
ATOM      1 Br   UNK d   1      19.794 -54.564  32.391  0.00  0.00    -0.026 Br
ATOM      2  C   UNK d   1      19.654 -53.561  34.003  0.00  0.00     0.141 A 
ATOM      3  N   UNK d   1      20.338 -52.417  34.296  0.00  0.00    -0.163 NA
ATOM      4  N   UNK d   1      19.968 -51.998  35.483  0.00  0.00    -0.255 N 
ATOM      5  C   UNK d   1      19.052 -52.834  35.998  0.00  0.00     0.164 A 
ATOM      6  N   UNK d   1      18.359 -52.860  37.147  0.00  0.00    -0.222 NA
ATOM      7  C   UNK d   1      17.477 -53.819  37.416  0.00  0.00     0.237 A 
ATOM      8  N   UNK d   1      17.267 -54.788  36.530  0.00  0.00    -0.223 NA
ATOM      9  C   UNK d   1      17.922 -54.858  35.324  0.00  0.00     0.144 A 
ATOM     10  C   UNK d   1      18.826 -53.859  35.064  0.00  0.00     0.095 A 
ATOM     11  C   UNK d   1      20.435 -50.809  36.211  0.00  0.00     0.182 C 
ENDROOT
BRANCH   9  12
ATOM     12  N   UNK d   1      17.697 -55.917  34.445  0.00  0.00    -0.359 N 
ATOM     13  C   UNK d   1      18.393 -57.177  34.591  0.00  0.00     0.131 C 
ATOM     14  C   UNK d   1      17.367 -58.208  35.105  0.00  0.00     0.079 C 
ATOM     15  C   UNK d   1      16.059 -57.956  34.463  0.00  0.00     0.040 A 
ATOM     16  N   UNK d   1      14.948 -58.724  34.553  0.00  0.00    -0.347 N 
ATOM     17  C   UNK d   1      15.731 -56.905  33.660  0.00  0.00     0.076 A 
ATOM     18  C   UNK d   1      13.985 -58.140  33.820  0.00  0.00     0.209 A 
ATOM     19  C   UNK d   1      14.770 -59.952  35.285  0.00  0.00     0.157 C 
ATOM     20  N   UNK d   1      14.445 -57.021  33.263  0.00  0.00    -0.245 NA
ATOM     21  C   UNK d   1      16.748 -55.867  33.361  0.00  0.00     0.185 C 
ENDBRANCH   9  12
TORSDOF 1
ENDMDL
