/Users/jonathanwahrer/Desktop/Msc/3_Semester/Drug_Design_Praktikum/waehrer_HTS_screening/HTS_experiment/out/docking_results/vina_output/6s1j/0727_docked.pdbqt
 OpenBabel03222221333D

 21 24  0  0  0  0  0  0  0  0999 V2000
   19.7940  -54.5640   32.3910 Br  0  0  0  0  0  0  0  0  0  0  0  0
   19.6540  -53.5610   34.0030 C   0  0  0  0  0  0  0  0  0  0  0  0
   20.3380  -52.4170   34.2960 N   0  0  0  0  0  0  0  0  0  0  0  0
   19.9680  -51.9980   35.4830 N   0  0  0  0  0  0  0  0  0  0  0  0
   19.0520  -52.8340   35.9980 C   0  0  0  0  0  0  0  0  0  0  0  0
   18.3590  -52.8600   37.1470 N   0  0  0  0  0  0  0  0  0  0  0  0
   17.4770  -53.8190   37.4160 C   0  0  0  0  0  3  0  0  0  0  0  0
   17.2670  -54.7880   36.5300 N   0  0  0  0  0  0  0  0  0  0  0  0
   17.9220  -54.8580   35.3240 C   0  0  0  0  0  0  0  0  0  0  0  0
   18.8260  -53.8590   35.0640 C   0  0  0  0  0  0  0  0  0  0  0  0
   20.4350  -50.8090   36.2110 C   0  0  0  0  0  1  0  0  0  0  0  0
   17.6970  -55.9170   34.4450 N   0  0  0  0  0  0  0  0  0  0  0  0
   18.3930  -57.1770   34.5910 C   0  0  0  0  0  2  0  0  0  0  0  0
   17.3670  -58.2080   35.1050 C   0  0  0  0  0  2  0  0  0  0  0  0
   16.0590  -57.9560   34.4630 C   0  0  0  0  0  0  0  0  0  0  0  0
   14.9480  -58.7240   34.5530 N   0  0  0  0  0  0  0  0  0  0  0  0
   15.7310  -56.9050   33.6600 C   0  0  0  0  0  0  0  0  0  0  0  0
   13.9850  -58.1400   33.8200 C   0  0  0  0  0  3  0  0  0  0  0  0
   14.7700  -59.9520   35.2850 C   0  0  0  0  0  1  0  0  0  0  0  0
   14.4450  -57.0210   33.2630 N   0  0  0  0  0  0  0  0  0  0  0  0
   16.7480  -55.8670   33.3610 C   0  0  0  0  0  2  0  0  0  0  0  0
  1  2  1  0  0  0  0
  2  3  2  0  0  0  0
  2 10  1  0  0  0  0
  3  4  1  0  0  0  0
  4  5  1  0  0  0  0
  4 11  1  0  0  0  0
  5  6  1  0  0  0  0
  6  7  2  0  0  0  0
  8  7  1  0  0  0  0
  9  8  2  0  0  0  0
 10  9  1  0  0  0  0
 10  5  2  0  0  0  0
 12 13  1  0  0  0  0
 12  9  1  0  0  0  0
 13 14  1  0  0  0  0
 15 16  1  0  0  0  0
 15 14  1  0  0  0  0
 16 19  1  0  0  0  0
 17 15  2  0  0  0  0
 18 16  1  0  0  0  0
 20 17  1  0  0  0  0
 20 18  2  0  0  0  0
 21 17  1  0  0  0  0
 21 12  1  0  0  0  0
M  END
>  <Pose>
1

>  <Score>
-8.082

$$$$
