MODEL 1
REMARK VINA RESULT:    -9.173      0.000      0.000
REMARK INTER + INTRA:         -11.086
REMARK INTER:                 -10.782
REMARK INTRA:                  -0.304
REMARK UNBOUND:                -0.304
REMARK  3 active torsions:
REMARK  status: ('A' for Active; 'I' for Inactive)
REMARK    1  A    between atoms: C_9  and  N_11 
REMARK    2  A    between atoms: N_14  and  C_17 
REMARK    3  A    between atoms: C_17  and  C_19 
REMARK       I    between atoms: C_19  and  N_21 
ROOT
ATOM      1  N   UNK d   1      15.475 -57.807  35.198  0.00  0.00    -0.362 N 
ATOM      2  C   UNK d   1      16.779 -58.388  35.047  0.00  0.00     0.154 C 
ATOM      3  C   UNK d   1      17.723 -57.199  34.848  0.00  0.00     0.293 C 
ATOM      4  N   UNK d   1      16.982 -56.011  34.409  0.00  0.00     0.103 N 
ATOM      5  C   UNK d   1      16.005 -56.395  33.387  0.00  0.00     0.293 C 
ATOM      6  C   UNK d   1      14.898 -57.224  34.011  0.00  0.00     0.154 C 
ENDROOT
BRANCH   1   7
ATOM      7  C   UNK d   1      14.819 -57.782  36.434  0.00  0.00     0.144 A 
ATOM      8  N   UNK d   1      15.115 -56.847  37.368  0.00  0.00    -0.223 NA
ATOM      9  C   UNK d   1      14.534 -56.817  38.562  0.00  0.00     0.237 A 
ATOM     10  N   UNK d   1      13.619 -57.742  38.865  0.00  0.00    -0.222 NA
ATOM     11  C   UNK d   1      13.259 -58.709  38.004  0.00  0.00     0.164 A 
ATOM     12  N   UNK d   1      12.375 -59.723  38.076  0.00  0.00    -0.255 N 
ATOM     13  C   UNK d   1      13.866 -58.742  36.752  0.00  0.00     0.095 A 
ATOM     14  N   UNK d   1      12.418 -60.360  36.937  0.00  0.00    -0.163 NA
ATOM     15  C   UNK d   1      11.562 -59.981  39.256  0.00  0.00     0.182 C 
ATOM     16  C   UNK d   1      13.307 -59.810  36.089  0.00  0.00     0.141 A 
ATOM     17 Br   UNK d   1      13.730 -60.337  34.318  0.00  0.00    -0.026 Br
ENDBRANCH   1   7
BRANCH   4  18
ATOM     18  C   UNK d   1      17.957 -55.123  33.796  0.00  0.00     0.296 C 
ATOM     19  C   UNK d   1      18.875 -56.009  32.910  0.00  0.00     0.052 C 
BRANCH  18  20
ATOM     20  C   UNK d   1      18.792 -54.462  34.815  0.00  0.00     0.186 C 
ATOM     21  O   UNK d   1      20.040 -54.347  34.466  0.00  0.00    -0.175 OA
ATOM     22  N   UNK d   1      18.415 -53.966  36.074  0.00  0.00    -0.361 N 
ATOM     23  C   UNK d   1      17.128 -54.003  36.700  0.00  0.00     0.124 C 
ATOM     24  C   UNK d   1      19.477 -53.326  36.884  0.00  0.00     0.124 C 
ATOM     25  C   UNK d   1      16.710 -52.697  37.344  0.00  0.00     0.020 C 
ATOM     26  C   UNK d   1      17.827 -51.924  37.954  0.00  0.00     0.003 C 
ATOM     27  C   UNK d   1      19.056 -51.891  37.071  0.00  0.00     0.020 C 
ENDBRANCH  18  20
ENDBRANCH   4  18
TORSDOF 3
ENDMDL
