MODEL 1
REMARK VINA RESULT:    -7.839      0.000      0.000
REMARK INTER + INTRA:          -8.394
REMARK INTER:                  -8.297
REMARK INTRA:                  -0.097
REMARK UNBOUND:                -0.097
REMARK  1 active torsions:
REMARK  status: ('A' for Active; 'I' for Inactive)
REMARK    1  A    between atoms: N_8  and  C_11 
ROOT
ATOM      1  C   UNK d   1      13.984 -57.999  37.542  0.00  0.00     0.148 A 
ATOM      2  C   UNK d   1      13.488 -58.603  38.598  0.00  0.00     0.080 A 
ATOM      3  C   UNK d   1      12.481 -59.669  38.477  0.00  0.00     0.043 A 
ATOM      4  C   UNK d   1      11.973 -60.285  39.530  0.00  0.00     0.043 C 
ATOM      5  N   UNK d   1      12.093 -59.990  37.150  0.00  0.00    -0.189 N 
ATOM      6  C   UNK d   1      12.646 -59.319  36.010  0.00  0.00     0.730 A 
ATOM      7  N   UNK d   1      13.571 -58.348  36.236  0.00  0.00    -0.044 N 
ATOM      8  N   UNK d   1      13.918 -57.892  35.027  0.00  0.00    -0.143 NA
ATOM      9  C   UNK d   1      13.250 -58.536  34.058  0.00  0.00     0.275 A 
ATOM     10  N   UNK d   1      12.460 -59.424  34.683  0.00  0.00    -0.054 NA
ATOM     11  H   UNK d   1      11.382 -60.737  36.998  0.00  0.00     0.184 HD
ENDROOT
BRANCH   1  12
ATOM     12  N   UNK d   1      14.945 -56.985  37.716  0.00  0.00    -0.357 N 
ATOM     13  C   UNK d   1      16.217 -57.140  37.055  0.00  0.00     0.203 C 
ATOM     14  C   UNK d   1      16.851 -55.808  36.827  0.00  0.00     0.124 A 
ATOM     15  N   UNK d   1      16.625 -54.796  37.663  0.00  0.00    -0.325 N 
ATOM     16  N   UNK d   1      17.692 -55.348  35.863  0.00  0.00    -0.243 NA
ATOM     17  C   UNK d   1      17.299 -53.716  37.252  0.00  0.00     0.101 A 
ATOM     18  C   UNK d   1      15.762 -54.944  38.819  0.00  0.00     0.151 C 
ATOM     19 Br   UNK d   1      17.356 -51.976  38.054  0.00  0.00    -0.029 Br
ATOM     20  C   UNK d   1      17.983 -54.057  36.103  0.00  0.00     0.156 A 
ATOM     21  C   UNK d   1      14.601 -55.854  38.546  0.00  0.00     0.145 C 
ENDBRANCH   1  12
TORSDOF 1
ENDMDL
