MODEL 1
REMARK VINA RESULT:    -8.803      0.000      0.000
REMARK INTER + INTRA:         -11.606
REMARK INTER:                 -10.861
REMARK INTRA:                  -0.745
REMARK UNBOUND:                -0.745
REMARK  4 active torsions:
REMARK  status: ('A' for Active; 'I' for Inactive)
REMARK    1  A    between atoms: C_4  and  C_7 
REMARK       I    between atoms: C_7  and  N_9 
REMARK    2  A    between atoms: N_9  and  C_10 
REMARK    3  A    between atoms: C_10  and  C_11 
REMARK    4  A    between atoms: C_11  and  C_12 
REMARK       I    between atoms: C_12  and  N_14 
ROOT
ATOM      1  C   UNK d   1      14.583 -57.737  36.865  0.00  0.00     0.221 C 
ATOM      2  O   UNK d   1      13.398 -57.299  37.037  0.00  0.00    -0.273 OA
ATOM      3  N   UNK d   1      15.083 -57.957  35.553  0.00  0.00    -0.352 N 
ATOM      4  C   UNK d   1      14.245 -57.682  34.418  0.00  0.00     0.129 C 
ATOM      5  C   UNK d   1      14.990 -57.195  33.213  0.00  0.00     0.068 C 
ATOM      6  C   UNK d   1      16.430 -57.616  33.186  0.00  0.00     0.204 C 
ATOM      7  N   UNK d   1      16.898 -57.744  31.839  0.00  0.00     0.099 N 
ATOM      8  C   UNK d   1      18.246 -58.183  31.722  0.00  0.00     0.277 C 
ATOM      9  C   UNK d   1      19.215 -57.535  32.655  0.00  0.00     0.091 C 
ATOM     10  C   UNK d   1      18.580 -56.536  33.554  0.00  0.00     0.062 A 
ATOM     11  N   UNK d   1      19.088 -55.506  34.233  0.00  0.00    -0.246 NA
ATOM     12  C   UNK d   1      18.106 -54.895  34.910  0.00  0.00     0.207 A 
ATOM     13  N   UNK d   1      16.952 -55.532  34.668  0.00  0.00    -0.350 N 
ATOM     14  C   UNK d   1      17.236 -56.542  33.836  0.00  0.00     0.074 A 
ATOM     15  C   UNK d   1      16.621 -58.883  34.004  0.00  0.00     0.068 C 
ATOM     16  C   UNK d   1      16.449 -58.460  35.448  0.00  0.00     0.129 C 
ATOM     17  H   UNK d   1      16.279 -58.424  31.345  0.00  0.00     0.317 HD
ATOM     18  H   UNK d   1      15.988 -55.285  35.063  0.00  0.00     0.166 HD
ENDROOT
BRANCH   1  19
ATOM     19  C   UNK d   1      15.374 -57.994  38.079  0.00  0.00     0.122 C 
BRANCH  19  20
ATOM     20  C   UNK d   1      15.421 -56.822  39.010  0.00  0.00     0.132 C 
BRANCH  20  21
ATOM     21  N   UNK d   1      16.232 -55.746  38.532  0.00  0.00    -0.355 N 
ATOM     22  C   UNK d   1      15.967 -54.388  38.854  0.00  0.00     0.275 C 
ATOM     23  O   UNK d   1      14.968 -54.142  39.593  0.00  0.00    -0.265 OA
ATOM     24  H   UNK d   1      17.050 -55.951  37.927  0.00  0.00     0.162 HD
BRANCH  22  25
ATOM     25  C   UNK d   1      16.770 -53.287  38.386  0.00  0.00     0.144 A 
ATOM     26  O   UNK d   1      17.824 -53.359  37.643  0.00  0.00    -0.298 OA
ATOM     27  C   UNK d   1      18.333 -52.191  37.386  0.00  0.00     0.122 A 
ATOM     28 Br   UNK d   1      19.887 -51.753  36.339  0.00  0.00    -0.023 Br
ATOM     29  C   UNK d   1      17.543 -51.258  38.019  0.00  0.00     0.048 A 
ATOM     30  C   UNK d   1      16.533 -51.936  38.668  0.00  0.00     0.046 A 
ENDBRANCH  22  25
ENDBRANCH  20  21
ENDBRANCH  19  20
ENDBRANCH   1  19
TORSDOF 4
ENDMDL
