MODEL 1
REMARK VINA RESULT:    -8.434      0.000      0.000
REMARK INTER + INTRA:         -10.709
REMARK INTER:                  -9.913
REMARK INTRA:                  -0.796
REMARK UNBOUND:                -0.796
REMARK  3 active torsions:
REMARK  status: ('A' for Active; 'I' for Inactive)
REMARK    1  A    between atoms: C_4  and  C_7 
REMARK       I    between atoms: C_7  and  N_9 
REMARK    2  A    between atoms: N_12  and  C_15 
REMARK    3  A    between atoms: C_17  and  N_22 
ROOT
ATOM      1  C   UNK d   1      16.145 -57.863  36.618  0.00  0.00     0.277 C 
ATOM      2  O   UNK d   1      16.703 -58.827  37.162  0.00  0.00    -0.265 OA
ATOM      3  N   UNK d   1      15.866 -57.901  35.230  0.00  0.00    -0.343 N 
ATOM      4  C   UNK d   1      16.232 -59.068  34.454  0.00  0.00     0.146 C 
ATOM      5  C   UNK d   1      17.205 -58.735  33.349  0.00  0.00     0.144 C 
ATOM      6  N   UNK d   1      16.932 -57.342  32.960  0.00  0.00    -0.362 N 
ATOM      7  C   UNK d   1      15.568 -56.936  33.002  0.00  0.00     0.144 C 
ATOM      8  C   UNK d   1      15.220 -56.828  34.499  0.00  0.00     0.146 C 
ENDROOT
BRANCH   6   9
ATOM      9  C   UNK d   1      18.046 -56.553  32.585  0.00  0.00     0.146 A 
ATOM     10  N   UNK d   1      18.773 -56.833  31.468  0.00  0.00    -0.045 NA
ATOM     11  C   UNK d   1      19.833 -56.095  31.102  0.00  0.00     0.726 A 
ATOM     12  N   UNK d   1      20.211 -55.035  31.849  0.00  0.00    -0.068 NA
ATOM     13  C   UNK d   1      19.553 -54.683  32.967  0.00  0.00     0.053 A 
ATOM     14  C   UNK d   1      18.452 -55.477  33.320  0.00  0.00     0.078 A 
ATOM     15  C   UNK d   1      19.952 -53.520  33.805  0.00  0.00     0.071 C 
BRANCH  11  16
ATOM     16  N   UNK d   1      20.556 -56.427  29.929  0.00  0.00    -0.210 N 
ATOM     17  C   UNK d   1      21.233 -55.448  29.112  0.00  0.00     0.167 C 
ATOM     18  C   UNK d   1      22.661 -55.852  28.903  0.00  0.00     0.188 C 
ATOM     19  O   UNK d   1      22.929 -57.152  29.328  0.00  0.00    -0.388 OA
ATOM     20  C   UNK d   1      21.968 -58.036  28.847  0.00  0.00     0.188 C 
ATOM     21  C   UNK d   1      20.633 -57.811  29.514  0.00  0.00     0.167 C 
ENDBRANCH  11  16
ENDBRANCH   6   9
BRANCH   1  22
ATOM     22  C   UNK d   1      15.785 -56.696  37.443  0.00  0.00     0.144 A 
ATOM     23  O   UNK d   1      16.429 -55.577  37.581  0.00  0.00    -0.298 OA
ATOM     24  C   UNK d   1      15.832 -54.771  38.382  0.00  0.00     0.122 A 
ATOM     25 Br   UNK d   1      16.376 -52.994  38.917  0.00  0.00    -0.023 Br
ATOM     26  C   UNK d   1      14.687 -55.382  38.833  0.00  0.00     0.048 A 
ATOM     27  C   UNK d   1      14.660 -56.614  38.231  0.00  0.00     0.046 A 
ENDBRANCH   1  22
TORSDOF 3
ENDMDL
