/Users/jonathanwahrer/Desktop/Msc/3_Semester/Drug_Design_Praktikum/waehrer_HTS_screening/HTS_experiment/out/docking_results/vina_output/6s1j/0755_docked.pdbqt
 OpenBabel03222221343D

 28 31  0  0  0  0  0  0  0  0999 V2000
   19.5490  -53.9140   34.8850 C   0  0  0  0  0  0  0  0  0  0  0  0
   20.7770  -53.9190   34.7160 O   0  0  0  0  0  0  0  0  0  0  0  0
   18.6930  -54.6750   34.0460 N   0  0  0  0  0  0  0  0  0  0  0  0
   17.2470  -54.6640   34.2510 C   0  0  0  0  0  2  0  0  0  0  0  0
   16.5720  -55.6120   33.2630 C   0  0  0  0  0  2  0  0  0  0  0  0
   17.2700  -56.8810   33.3400 N   0  0  0  0  0  0  0  0  0  0  0  0
   18.6840  -56.9050   33.0840 C   0  0  0  0  0  2  0  0  0  0  0  0
   19.1940  -55.4930   32.9590 C   0  0  0  0  0  2  0  0  0  0  0  0
   16.5800  -58.0950   33.6630 C   0  0  0  0  0  0  0  0  0  0  0  0
   16.9330  -59.2700   33.1220 N   0  0  0  0  0  0  0  0  0  0  0  0
   16.2700  -60.3870   33.4420 C   0  0  0  0  0  0  0  0  0  0  0  0
   15.2350  -60.3750   34.3050 N   0  0  0  0  0  0  0  0  0  0  0  0
   16.6690  -61.6830   32.8390 C   0  0  0  0  0  1  0  0  0  0  0  0
   14.8300  -59.2300   34.8820 C   0  0  0  0  0  0  0  0  0  0  0  0
   15.5270  -58.0900   34.5410 C   0  0  0  0  0  3  0  0  0  0  0  0
   13.7490  -59.1660   35.7960 N   0  0  0  0  0  0  0  0  0  0  0  0
   13.9890  -58.8760   37.1940 C   0  0  0  0  0  2  0  0  0  0  0  0
   12.6470  -58.5720   37.8270 C   0  0  0  0  0  2  0  0  0  0  0  0
   11.8090  -59.7350   37.7150 N   0  0  0  0  0  0  0  0  0  0  0  0
   11.7740  -60.3320   36.4160 C   0  0  0  0  0  2  0  0  0  0  0  0
   12.0920  -60.6530   38.7880 C   0  0  0  0  0  1  0  0  0  0  0  0
   12.3710  -59.3830   35.3990 C   0  0  0  0  0  2  0  0  0  0  0  0
   18.9610  -53.1030   35.9770 C   0  0  0  0  0  0  0  0  0  0  0  0
   18.0490  -53.4880   36.8340 O   0  0  0  0  0  0  0  0  0  0  0  0
   17.7340  -52.5410   37.6820 C   0  0  0  0  0  0  0  0  0  0  0  0
   16.4510  -52.6820   39.0910 Br  0  0  0  0  0  0  0  0  0  0  0  0
   18.4950  -51.4360   37.3680 C   0  0  0  0  0  3  0  0  0  0  0  0
   19.2640  -51.8010   36.2930 C   0  0  0  0  0  3  0  0  0  0  0  0
  1 23  1  0  0  0  0
  2  1  2  0  0  0  0
  3  4  1  0  0  0  0
  3  1  1  0  0  0  0
  5  6  1  0  0  0  0
  5  4  1  0  0  0  0
  6  9  1  0  0  0  0
  7  6  1  0  0  0  0
  8  7  1  0  0  0  0
  8  3  1  0  0  0  0
  9 15  2  0  0  0  0
 10 11  2  0  0  0  0
 10  9  1  0  0  0  0
 11 12  1  0  0  0  0
 12 14  2  0  0  0  0
 13 11  1  0  0  0  0
 14 16  1  0  0  0  0
 15 14  1  0  0  0  0
 16 17  1  0  0  0  0
 17 18  1  0  0  0  0
 19 18  1  0  0  0  0
 19 21  1  0  0  0  0
 20 19  1  0  0  0  0
 22 16  1  0  0  0  0
 22 20  1  0  0  0  0
 23 28  2  0  0  0  0
 23 24  1  0  0  0  0
 24 25  1  0  0  0  0
 25 26  1  0  0  0  0
 27 25  2  0  0  0  0
 28 27  1  0  0  0  0
M  END
>  <Pose>
1

>  <Score>
-9.091

$$$$
