/Users/jonathanwahrer/Desktop/Msc/3_Semester/Drug_Design_Praktikum/waehrer_HTS_screening/HTS_experiment/out/docking_results/vina_output/6s1j/0769_docked.pdbqt
 OpenBabel03222221343D

 26 29  0  0  0  0  0  0  0  0999 V2000
   13.8800  -58.3490   34.5480 C   0  0  0  0  0  0  0  0  0  0  0  0
   13.2170  -57.7600   33.5710 O   0  0  0  0  0  0  0  0  0  0  0  0
   15.2430  -58.0920   34.5850 N   0  0  0  0  0  0  0  0  0  0  0  0
   15.8320  -57.2000   33.5530 C   0  0  0  0  0  2  0  0  0  0  0  0
   16.5530  -56.0680   34.2460 C   0  0  0  0  0  2  0  0  0  0  0  0
   17.5370  -56.5900   35.1090 N   0  0  0  0  0  0  0  0  0  0  0  0
   17.5580  -58.0130   35.1070 C   0  0  0  0  0  2  0  0  0  0  0  0
   16.1810  -58.5880   35.5160 C   0  0  0  0  0  2  0  0  0  0  0  0
   13.0140  -59.1520   35.3890 C   0  0  0  0  0  0  0  0  0  0  0  0
   12.9630  -59.0390   36.7520 C   0  0  0  0  0  3  0  0  0  0  0  0
   12.0930  -59.8590   37.4780 C   0  0  0  0  0  0  0  0  0  0  0  0
   11.9730  -59.7550   39.3550 Br  0  0  0  0  0  0  0  0  0  0  0  0
   11.3110  -60.7600   36.7970 C   0  0  0  0  0  0  0  0  0  0  0  0
   11.3840  -60.8390   35.5150 O   0  0  0  0  0  0  0  0  0  0  0  0
   10.5110  -61.5190   37.4030 O   0  0  0  0  0  0  0  0  0  0  0  0
   12.1730  -60.1020   34.8010 C   0  0  0  0  0  3  0  0  0  0  0  0
   18.8430  -56.0240   34.9960 C   0  0  0  0  0  2  0  0  0  0  0  0
   18.9760  -54.6310   35.4610 C   0  0  0  0  0  0  0  0  0  0  0  0
   19.7280  -53.6800   34.8540 C   0  0  0  0  0  3  0  0  0  0  0  0
   19.7930  -52.4080   35.3660 C   0  0  0  0  0  0  0  0  0  0  0  0
   19.0930  -52.0990   36.5000 C   0  0  0  0  0  0  0  0  0  0  0  0
   20.4630  -51.2360   34.9780 O   0  0  0  0  0  0  0  0  0  0  0  0
   18.3230  -53.0480   37.1340 C   0  0  0  0  0  3  0  0  0  0  0  0
   19.3070  -50.7710   36.8300 O   0  0  0  0  0  0  0  0  0  0  0  0
   18.2770  -54.2970   36.6060 C   0  0  0  0  0  3  0  0  0  0  0  0
   20.4460  -50.3590   36.0880 C   0  0  0  0  0  2  0  0  0  0  0  0
  1  3  1  0  0  0  0
  1  9  1  0  0  0  0
  2  1  2  0  0  0  0
  3  8  1  0  0  0  0
  4  5  1  0  0  0  0
  4  3  1  0  0  0  0
  5  6  1  0  0  0  0
  7  6  1  0  0  0  0
  7  8  1  0  0  0  0
  9 10  1  0  0  0  0
 10 11  2  0  0  0  0
 11 12  1  0  0  0  0
 13 15  2  0  0  0  0
 13 11  1  0  0  0  0
 14 13  1  0  0  0  0
 16  9  2  0  0  0  0
 16 14  1  0  0  0  0
 17  6  1  0  0  0  0
 17 18  1  0  0  0  0
 18 25  1  0  0  0  0
 19 20  1  0  0  0  0
 19 18  2  0  0  0  0
 20 21  2  0  0  0  0
 21 24  1  0  0  0  0
 21 23  1  0  0  0  0
 22 20  1  0  0  0  0
 22 26  1  0  0  0  0
 25 23  2  0  0  0  0
 26 24  1  0  0  0  0
M  END
>  <Pose>
1

>  <Score>
-9.114

$$$$
