MODEL 1
REMARK VINA RESULT:   -10.334      0.000      0.000
REMARK INTER + INTRA:         -12.555
REMARK INTER:                 -13.959
REMARK INTRA:                   1.404
REMARK UNBOUND:                 1.404
REMARK  7 active torsions:
REMARK  status: ('A' for Active; 'I' for Inactive)
REMARK    1  A    between atoms: N_4  and  C_10 
REMARK    2  A    between atoms: C_11  and  O_33 
REMARK       I    between atoms: N_18  and  C_21 
REMARK    3  A    between atoms: C_21  and  C_23 
REMARK    4  A    between atoms: C_25  and  O_29 
REMARK    5  A    between atoms: O_29  and  C_30 
REMARK    6  A    between atoms: C_30  and  C_31 
REMARK    7  A    between atoms: C_31  and  N_32 
ROOT
ATOM      1  C   UNK d   1      17.318 -57.366  30.664  0.00  0.00     0.152 C 
ATOM      2  C   UNK d   1      18.694 -56.725  30.441  0.00  0.00     0.080 C 
ATOM      3  C   UNK d   1      19.453 -56.738  31.723  0.00  0.00     0.077 C 
ATOM      4  C   UNK d   1      18.712 -55.887  32.730  0.00  0.00     0.067 C 
ATOM      5  O   UNK d   1      17.388 -55.689  32.389  0.00  0.00    -0.378 OA
ATOM      6  C   UNK d   1      16.751 -56.837  31.939  0.00  0.00     0.197 C 
ATOM      7  C   UNK d   1      18.909 -56.497  34.070  0.00  0.00     0.058 C 
ATOM      8  C   UNK d   1      18.193 -55.620  35.110  0.00  0.00     0.128 C 
ATOM      9  N   UNK d   1      18.882 -54.374  35.173  0.00  0.00    -0.359 N 
ATOM     10  C   UNK d   1      19.920 -54.181  34.105  0.00  0.00     0.128 C 
ATOM     11  C   UNK d   1      19.380 -54.528  32.757  0.00  0.00     0.058 C 
ATOM     12  C   UNK d   1      18.676 -53.368  36.097  0.00  0.00     0.187 C 
ATOM     13  O   UNK d   1      19.454 -52.314  35.963  0.00  0.00    -0.171 OA
ATOM     14  C   UNK d   1      19.413 -57.369  29.299  0.00  0.00     0.048 C 
ENDROOT
BRANCH   2  15
ATOM     15  O   UNK d   1      18.455 -55.392  30.099  0.00  0.00    -0.388 OA
ATOM     16  H   UNK d   1      18.043 -54.874  30.835  0.00  0.00     0.210 HD
ENDBRANCH   2  15
BRANCH   1  17
ATOM     17  N   UNK d   1      17.350 -58.788  30.540  0.00  0.00    -0.298 N 
ATOM     18  C   UNK d   1      17.400 -59.446  29.368  0.00  0.00     0.121 A 
ATOM     19  C   UNK d   1      17.430 -60.815  29.281  0.00  0.00     0.094 A 
ATOM     20 Br   UNK d   1      17.500 -61.611  27.554  0.00  0.00    -0.044 Br
ATOM     21  C   UNK d   1      17.408 -61.567  30.430  0.00  0.00     0.268 A 
ATOM     22  N   UNK d   1      17.358 -60.910  31.600  0.00  0.00    -0.274 N 
ATOM     23  O   UNK d   1      17.434 -62.819  30.341  0.00  0.00    -0.267 OA
ATOM     24  C   UNK d   1      17.330 -59.587  31.649  0.00  0.00     0.329 A 
ATOM     25  H   UNK d   1      17.342 -61.494  32.463  0.00  0.00     0.173 HD
ATOM     26  O   UNK d   1      17.283 -59.043  32.790  0.00  0.00    -0.246 OA
ENDBRANCH   1  17
BRANCH  12  27
ATOM     27  C   UNK d   1      17.762 -53.270  37.179  0.00  0.00     0.020 A 
ATOM     28  C   UNK d   1      17.115 -54.422  37.663  0.00  0.00     0.052 A 
ATOM     29  C   UNK d   1      16.236 -54.461  38.699  0.00  0.00     0.069 A 
ATOM     30  C   UNK d   1      15.959 -53.233  39.334  0.00  0.00     0.037 A 
ATOM     31  C   UNK d   1      16.569 -52.112  38.886  0.00  0.00     0.004 A 
ATOM     32  C   UNK d   1      17.474 -52.104  37.811  0.00  0.00     0.016 A 
BRANCH  29  33
ATOM     33  O   UNK d   1      15.625 -55.598  39.137  0.00  0.00    -0.349 OA
BRANCH  33  34
ATOM     34  C   UNK d   1      14.337 -56.035  39.054  0.00  0.00     0.205 C 
BRANCH  34  35
ATOM     35  C   UNK d   1      14.111 -56.972  37.916  0.00  0.00     0.293 C 
BRANCH  35  36
ATOM     36  N   UNK d   1      12.825 -57.648  38.087  0.00  0.00     0.080 N 
ATOM     37  H   UNK d   1      12.044 -56.982  38.177  0.00  0.00     0.312 HD
ATOM     38  H   UNK d   1      12.853 -58.387  38.797  0.00  0.00     0.312 HD
ENDBRANCH  35  36
ENDBRANCH  34  35
ENDBRANCH  33  34
ENDBRANCH  29  33
ENDBRANCH  12  27
TORSDOF 7
ENDMDL
