/Users/jonathanwahrer/Desktop/Msc/3_Semester/Drug_Design_Praktikum/waehrer_HTS_screening/HTS_experiment/out/docking_results/vina_output/6s1j/0783_docked.pdbqt
 OpenBabel03222221353D

 39 42  0  0  1  0  0  0  0  0999 V2000
   13.7090  -59.6420   33.7860 C   0  0  1  0  0  3  0  0  0  0  0  0
   14.2620  -58.5940   34.6670 C   0  0  2  0  0  0  0  0  0  0  0  0
   15.3860  -57.7690   34.0300 C   0  0  0  0  0  2  0  0  0  0  0  0
   16.4790  -58.6720   33.5140 C   0  0  2  0  0  0  0  0  0  0  0  0
   16.0200  -59.9560   33.2890 O   0  0  0  0  0  0  0  0  0  0  0  0
   14.7580  -60.0520   32.7900 C   0  0  0  0  0  2  0  0  0  0  0  0
   17.6060  -58.6500   34.5310 C   0  0  0  0  0  2  0  0  0  0  0  0
   18.6540  -57.6450   34.1340 C   0  0  0  0  0  2  0  0  0  0  0  0
   17.9980  -56.4740   33.6100 N   0  0  0  0  0  0  0  0  0  0  0  0
   17.3220  -56.6460   32.3330 C   0  0  0  0  0  2  0  0  0  0  0  0
   16.9680  -58.1100   32.2010 C   0  0  0  0  0  2  0  0  0  0  0  0
   18.0380  -55.2560   34.2930 C   0  0  0  0  0  0  0  0  0  0  0  0
   17.4120  -54.2870   33.7280 O   0  0  0  0  0  0  0  0  0  0  0  0
   14.6780  -59.0470   36.0290 C   0  0  0  0  0  1  0  0  0  0  0  0
   13.2300  -57.6430   34.8780 O   0  0  0  0  0  0  0  0  0  0  0  0
   13.5220  -56.7320   34.6420 H   0  0  0  0  0  0  0  0  0  0  0  0
   13.1650  -60.7920   34.4810 N   0  0  0  0  0  0  0  0  0  0  0  0
   13.8250  -61.9450   34.4600 C   0  0  0  0  0  3  0  0  0  0  0  0
   13.3310  -63.0550   35.1040 C   0  0  0  0  0  0  0  0  0  0  0  0
   14.3020  -64.7120   35.0600 Br  0  0  0  0  0  0  0  0  0  0  0  0
   12.1320  -62.9520   35.7770 C   0  0  0  0  0  0  0  0  0  0  0  0
   11.5100  -61.7580   35.7630 N   0  0  0  0  0  0  0  0  0  0  0  0
   11.6360  -63.9450   36.3850 O   0  0  0  0  0  0  0  0  0  0  0  0
   12.0080  -60.6860   35.1280 C   0  0  0  0  0  0  0  0  0  0  0  0
   10.5840  -61.6730   36.2810 H   0  0  0  0  0  0  0  0  0  0  0  0
   11.3450  -59.5970   35.1710 O   0  0  0  0  0  0  0  0  0  0  0  0
   18.6920  -54.9230   35.5540 C   0  0  1  0  0  3  0  0  0  0  0  0
   20.1060  -54.5960   35.3680 N   0  0  0  0  0  0  0  0  0  0  0  0
   20.3770  -53.7640   35.9360 H   0  0  0  0  0  0  0  0  0  0  0  0
   20.2550  -54.3270   34.3640 H   0  0  0  0  0  0  0  0  0  0  0  0
   18.0930  -53.7530   36.3030 C   0  0  0  0  0  2  0  0  0  0  0  0
   17.0100  -54.3350   37.1810 C   0  0  0  0  0  0  0  0  0  0  0  0
   16.7310  -55.6750   37.1360 C   0  0  0  0  0  3  0  0  0  0  0  0
   15.7250  -56.1700   37.9620 C   0  0  0  0  0  3  0  0  0  0  0  0
   15.0160  -55.3510   38.8110 C   0  0  0  0  0  0  0  0  0  0  0  0
   15.3270  -54.0060   38.8280 C   0  0  0  0  0  3  0  0  0  0  0  0
   16.3180  -53.4860   38.0200 C   0  0  0  0  0  3  0  0  0  0  0  0
   14.0290  -55.8970   39.6080 O   0  0  0  0  0  0  0  0  0  0  0  0
   13.1880  -56.3470   39.2470 H   0  0  0  0  0  0  0  0  0  0  0  0
  1  6  1  6  0  0  0
  1 17  1  0  0  0  0
  1  2  1  0  0  0  0
  2 15  1  0  0  0  0
  2 14  1  1  0  0  0
  3  2  1  0  0  0  0
  4 11  1  6  0  0  0
  4  3  1  0  0  0  0
  4  7  1  0  0  0  0
  5  4  1  0  0  0  0
  6  5  1  0  0  0  0
  8  7  1  0  0  0  0
  9  8  1  0  0  0  0
  9 12  1  0  0  0  0
 10  9  1  0  0  0  0
 11 10  1  0  0  0  0
 12 27  1  0  0  0  0
 13 12  2  0  0  0  0
 16 15  1  0  0  0  0
 17 24  1  0  0  0  0
 18 17  1  0  0  0  0
 18 19  2  0  0  0  0
 19 21  1  0  0  0  0
 20 19  1  0  0  0  0
 21 23  2  0  0  0  0
 22 21  1  0  0  0  0
 22 25  1  0  0  0  0
 24 26  2  0  0  0  0
 24 22  1  0  0  0  0
 27 31  1  6  0  0  0
 28 27  1  0  0  0  0
 28 29  1  0  0  0  0
 30 28  1  0  0  0  0
 31 32  1  0  0  0  0
 32 37  1  0  0  0  0
 33 32  2  0  0  0  0
 33 34  1  0  0  0  0
 34 35  2  0  0  0  0
 35 36  1  0  0  0  0
 35 38  1  0  0  0  0
 37 36  2  0  0  0  0
 39 38  1  0  0  0  0
M  END
>  <Pose>
1

>  <Score>
-9.106

$$$$
