MODEL 1
REMARK VINA RESULT:    -9.106      0.000      0.000
REMARK INTER + INTRA:         -12.694
REMARK INTER:                 -12.033
REMARK INTRA:                  -0.661
REMARK UNBOUND:                -0.661
REMARK  7 active torsions:
REMARK  status: ('A' for Active; 'I' for Inactive)
REMARK    1  A    between atoms: N_4  and  C_10 
REMARK    2  A    between atoms: C_11  and  O_33 
REMARK       I    between atoms: N_18  and  C_21 
REMARK    3  A    between atoms: C_21  and  C_23 
REMARK    4  A    between atoms: C_23  and  N_24 
REMARK    5  A    between atoms: C_23  and  C_25 
REMARK    6  A    between atoms: C_25  and  C_26 
REMARK    7  A    between atoms: C_29  and  O_32 
ROOT
ATOM      1  C   UNK d   1      13.709 -59.642  33.786  0.00  0.00     0.152 C 
ATOM      2  C   UNK d   1      14.262 -58.594  34.667  0.00  0.00     0.080 C 
ATOM      3  C   UNK d   1      15.386 -57.769  34.030  0.00  0.00     0.077 C 
ATOM      4  C   UNK d   1      16.479 -58.672  33.514  0.00  0.00     0.067 C 
ATOM      5  O   UNK d   1      16.020 -59.956  33.289  0.00  0.00    -0.378 OA
ATOM      6  C   UNK d   1      14.758 -60.052  32.790  0.00  0.00     0.197 C 
ATOM      7  C   UNK d   1      17.606 -58.650  34.531  0.00  0.00     0.058 C 
ATOM      8  C   UNK d   1      18.654 -57.645  34.134  0.00  0.00     0.129 C 
ATOM      9  N   UNK d   1      17.998 -56.474  33.610  0.00  0.00    -0.350 N 
ATOM     10  C   UNK d   1      17.322 -56.646  32.333  0.00  0.00     0.129 C 
ATOM     11  C   UNK d   1      16.968 -58.110  32.201  0.00  0.00     0.058 C 
ATOM     12  C   UNK d   1      18.038 -55.256  34.293  0.00  0.00     0.253 C 
ATOM     13  O   UNK d   1      17.412 -54.287  33.728  0.00  0.00    -0.271 OA
ATOM     14  C   UNK d   1      14.678 -59.047  36.029  0.00  0.00     0.048 C 
ENDROOT
BRANCH   2  15
ATOM     15  O   UNK d   1      13.230 -57.643  34.878  0.00  0.00    -0.388 OA
ATOM     16  H   UNK d   1      13.522 -56.732  34.642  0.00  0.00     0.210 HD
ENDBRANCH   2  15
BRANCH   1  17
ATOM     17  N   UNK d   1      13.165 -60.792  34.481  0.00  0.00    -0.298 N 
ATOM     18  C   UNK d   1      13.825 -61.945  34.460  0.00  0.00     0.121 A 
ATOM     19  C   UNK d   1      13.331 -63.055  35.104  0.00  0.00     0.094 A 
ATOM     20 Br   UNK d   1      14.302 -64.712  35.060  0.00  0.00    -0.044 Br
ATOM     21  C   UNK d   1      12.132 -62.952  35.777  0.00  0.00     0.268 A 
ATOM     22  N   UNK d   1      11.510 -61.758  35.763  0.00  0.00    -0.274 N 
ATOM     23  O   UNK d   1      11.636 -63.945  36.385  0.00  0.00    -0.267 OA
ATOM     24  C   UNK d   1      12.008 -60.686  35.128  0.00  0.00     0.329 A 
ATOM     25  H   UNK d   1      10.584 -61.673  36.281  0.00  0.00     0.173 HD
ATOM     26  O   UNK d   1      11.345 -59.597  35.171  0.00  0.00    -0.246 OA
ENDBRANCH   1  17
BRANCH  12  27
ATOM     27  C   UNK d   1      18.692 -54.923  35.554  0.00  0.00     0.313 C 
BRANCH  27  28
ATOM     28  N   UNK d   1      20.106 -54.596  35.368  0.00  0.00     0.092 N 
ATOM     29  H   UNK d   1      20.377 -53.764  35.936  0.00  0.00     0.313 HD
ATOM     30  H   UNK d   1      20.255 -54.327  34.364  0.00  0.00     0.313 HD
ENDBRANCH  27  28
BRANCH  27  31
ATOM     31  C   UNK d   1      18.093 -53.753  36.303  0.00  0.00     0.083 C 
BRANCH  31  32
ATOM     32  C   UNK d   1      17.010 -54.335  37.181  0.00  0.00    -0.056 A 
ATOM     33  C   UNK d   1      16.731 -55.675  37.136  0.00  0.00     0.010 A 
ATOM     34  C   UNK d   1      15.725 -56.170  37.962  0.00  0.00     0.037 A 
ATOM     35  C   UNK d   1      15.016 -55.351  38.811  0.00  0.00     0.065 A 
ATOM     36  C   UNK d   1      15.327 -54.006  38.828  0.00  0.00     0.037 A 
ATOM     37  C   UNK d   1      16.318 -53.486  38.020  0.00  0.00     0.010 A 
BRANCH  35  38
ATOM     38  O   UNK d   1      14.029 -55.897  39.608  0.00  0.00    -0.361 OA
ATOM     39  H   UNK d   1      13.188 -56.347  39.247  0.00  0.00     0.217 HD
ENDBRANCH  35  38
ENDBRANCH  31  32
ENDBRANCH  27  31
ENDBRANCH  12  27
TORSDOF 7
ENDMDL
