MODEL 1
REMARK VINA RESULT:    -8.322      0.000      0.000
REMARK INTER + INTRA:         -12.401
REMARK INTER:                 -10.997
REMARK INTRA:                  -1.404
REMARK UNBOUND:                -1.404
REMARK  6 active torsions:
REMARK  status: ('A' for Active; 'I' for Inactive)
REMARK    1  A    between atoms: N_4  and  C_10 
REMARK    2  A    between atoms: C_11  and  O_34 
REMARK       I    between atoms: N_18  and  C_21 
REMARK    3  A    between atoms: C_21  and  C_23 
REMARK    4  A    between atoms: C_23  and  N_24 
REMARK    5  A    between atoms: C_23  and  C_28 
REMARK       I    between atoms: N_24  and  C_25 
REMARK    6  A    between atoms: C_28  and  C_29 
ROOT
ATOM      1  C   UNK d   1      15.397 -59.322  34.371  0.00  0.00     0.152 C 
ATOM      2  C   UNK d   1      14.745 -57.934  34.274  0.00  0.00     0.080 C 
ATOM      3  C   UNK d   1      14.904 -57.351  35.685  0.00  0.00     0.077 C 
ATOM      4  C   UNK d   1      14.379 -58.310  36.717  0.00  0.00     0.067 C 
ATOM      5  O   UNK d   1      13.739 -59.349  36.084  0.00  0.00    -0.378 OA
ATOM      6  C   UNK d   1      14.553 -60.130  35.269  0.00  0.00     0.197 C 
ATOM      7  C   UNK d   1      13.317 -57.551  37.500  0.00  0.00     0.058 C 
ATOM      8  C   UNK d   1      13.969 -56.752  38.599  0.00  0.00     0.129 C 
ATOM      9  N   UNK d   1      15.387 -56.512  38.286  0.00  0.00    -0.350 N 
ATOM     10  C   UNK d   1      16.223 -57.676  38.300  0.00  0.00     0.129 C 
ATOM     11  C   UNK d   1      15.393 -58.801  37.688  0.00  0.00     0.058 C 
ATOM     12  C   UNK d   1      15.878 -55.248  37.959  0.00  0.00     0.243 C 
ATOM     13  O   UNK d   1      15.085 -54.232  37.868  0.00  0.00    -0.271 OA
ATOM     14  C   UNK d   1      13.309 -58.034  33.867  0.00  0.00     0.048 C 
ENDROOT
BRANCH   2  15
ATOM     15  O   UNK d   1      15.400 -57.113  33.382  0.00  0.00    -0.388 OA
ATOM     16  H   UNK d   1      16.236 -57.556  33.088  0.00  0.00     0.210 HD
ENDBRANCH   2  15
BRANCH   1  17
ATOM     17  N   UNK d   1      15.781 -59.835  33.118  0.00  0.00    -0.298 N 
ATOM     18  C   UNK d   1      15.033 -60.616  32.335  0.00  0.00     0.121 A 
ATOM     19  C   UNK d   1      15.488 -61.083  31.102  0.00  0.00     0.094 A 
ATOM     20 Br   UNK d   1      14.346 -62.187  30.070  0.00  0.00    -0.044 Br
ATOM     21  C   UNK d   1      16.747 -60.738  30.664  0.00  0.00     0.268 A 
ATOM     22  N   UNK d   1      17.489 -59.952  31.463  0.00  0.00    -0.274 N 
ATOM     23  O   UNK d   1      17.188 -61.152  29.542  0.00  0.00    -0.267 OA
ATOM     24  C   UNK d   1      17.023 -59.516  32.646  0.00  0.00     0.329 A 
ATOM     25  H   UNK d   1      18.460 -59.659  31.172  0.00  0.00     0.173 HD
ATOM     26  O   UNK d   1      17.769 -58.781  33.349  0.00  0.00    -0.246 OA
ENDBRANCH   1  17
BRANCH  12  27
ATOM     27  C   UNK d   1      17.284 -54.980  37.701  0.00  0.00     0.182 C 
BRANCH  27  28
ATOM     28  N   UNK d   1      17.490 -54.566  36.334  0.00  0.00    -0.348 N 
ATOM     29  C   UNK d   1      17.828 -55.342  35.232  0.00  0.00     0.214 C 
ATOM     30  O   UNK d   1      18.030 -56.573  35.245  0.00  0.00    -0.274 OA
ATOM     31  C   UNK d   1      17.982 -54.711  33.860  0.00  0.00     0.117 C 
ATOM     32  H   UNK d   1      17.364 -53.520  36.169  0.00  0.00     0.163 HD
ENDBRANCH  27  28
BRANCH  27  33
ATOM     33  C   UNK d   1      17.841 -53.871  38.648  0.00  0.00     0.095 C 
BRANCH  33  34
ATOM     34  C   UNK d   1      18.497 -52.816  37.854  0.00  0.00     0.053 A 
ATOM     35  N   UNK d   1      19.630 -52.850  37.172  0.00  0.00    -0.247 NA
ATOM     36  C   UNK d   1      19.886 -51.655  36.571  0.00  0.00     0.207 A 
ATOM     37  N   UNK d   1      18.862 -50.845  36.898  0.00  0.00    -0.359 N 
ATOM     38  C   UNK d   1      18.004 -51.534  37.680  0.00  0.00     0.116 A 
ATOM     39  H   UNK d   1      18.790 -49.850  36.573  0.00  0.00     0.166 HD
ENDBRANCH  33  34
ENDBRANCH  27  33
ENDBRANCH  12  27
TORSDOF 6
ENDMDL
