/Users/jonathanwahrer/Desktop/Msc/3_Semester/Drug_Design_Praktikum/waehrer_HTS_screening/HTS_experiment/out/docking_results/vina_output/6s1j/0789_docked.pdbqt
 OpenBabel03222221363D

 21 24  0  0  1  0  0  0  0  0999 V2000
   14.8160  -55.9870   38.6610 C   0  0  0  0  0  0  0  0  0  0  0  0
   14.3390  -55.4060   39.6730 O   0  0  0  0  0  0  0  0  0  0  0  0
   16.0150  -55.4770   38.1020 N   0  0  0  0  0  0  0  0  0  0  0  0
   16.6470  -54.3480   38.6820 C   0  0  0  0  0  2  0  0  0  0  0  0
   17.4530  -53.5520   37.7260 C   0  0  2  0  0  3  0  0  0  0  0  0
   17.4980  -54.0450   36.3790 N   0  0  2  0  0  0  0  0  0  0  0  0
   17.7600  -55.4720   36.3440 C   0  0  0  0  0  2  0  0  0  0  0  0
   16.5420  -56.1480   36.9450 C   0  0  0  0  0  2  0  0  0  0  0  0
   18.5080  -53.2420   35.7590 C   0  0  0  0  0  2  0  0  0  0  0  0
   19.5650  -53.0390   36.8160 C   0  0  0  0  0  2  0  0  0  0  0  0
   18.9230  -53.5000   38.1050 C   0  0  0  0  0  2  0  0  0  0  0  0
   14.1190  -57.1570   38.1110 C   0  0  0  0  0  0  0  0  0  0  0  0
   13.8760  -57.4970   36.8380 N   0  0  0  0  0  0  0  0  0  0  0  0
   13.2110  -58.6380   36.7510 N   0  0  0  0  0  0  0  0  0  0  0  0
   12.7450  -59.3790   35.7130 C   0  0  0  0  0  3  0  0  0  0  0  0
   12.9810  -59.1110   37.9900 C   0  0  0  0  0  0  0  0  0  0  0  0
   12.0660  -60.5630   35.9020 C   0  0  0  0  0  0  0  0  0  0  0  0
   11.4140  -61.5950   34.4180 Br  0  0  0  0  0  0  0  0  0  0  0  0
   11.8410  -61.0260   37.1790 C   0  0  0  0  0  3  0  0  0  0  0  0
   12.3110  -60.2770   38.1880 N   0  0  0  0  0  0  0  0  0  0  0  0
   13.5440  -58.1910   38.8510 C   0  0  0  0  0  3  0  0  0  0  0  0
  1  2  2  0  0  0  0
  3  1  1  0  0  0  0
  3  4  1  0  0  0  0
  5 11  1  1  0  0  0
  5  4  1  0  0  0  0
  6  9  1  6  0  0  0
  6  5  1  0  0  0  0
  7  6  1  0  0  0  0
  7  8  1  0  0  0  0
  8  3  1  0  0  0  0
  9 10  1  0  0  0  0
 10 11  1  0  0  0  0
 12  1  1  0  0  0  0
 12 21  1  0  0  0  0
 13 12  2  0  0  0  0
 14 13  1  0  0  0  0
 14 16  1  0  0  0  0
 15 17  2  0  0  0  0
 15 14  1  0  0  0  0
 16 20  1  0  0  0  0
 16 21  2  0  0  0  0
 17 19  1  0  0  0  0
 18 17  1  0  0  0  0
 19 20  2  0  0  0  0
M  END
>  <Pose>
1

>  <Score>
-8.143

$$$$
