MODEL 1
REMARK VINA RESULT:    -8.143      0.000      0.000
REMARK INTER + INTRA:          -8.456
REMARK INTER:                  -8.619
REMARK INTRA:                   0.164
REMARK UNBOUND:                 0.164
REMARK  1 active torsions:
REMARK  status: ('A' for Active; 'I' for Inactive)
REMARK    1  A    between atoms: C_6  and  C_11 
REMARK       I    between atoms: C_11  and  N_13 
ROOT
ATOM      1  C   UNK d   1      14.816 -55.987  38.661  0.00  0.00     0.274 C 
ATOM      2  O   UNK d   1      14.339 -55.406  39.673  0.00  0.00    -0.266 OA
ATOM      3  N   UNK d   1      16.015 -55.477  38.102  0.00  0.00    -0.343 N 
ATOM      4  C   UNK d   1      16.647 -54.348  38.682  0.00  0.00     0.161 C 
ATOM      5  C   UNK d   1      17.453 -53.552  37.726  0.00  0.00     0.241 C 
ATOM      6  N   UNK d   1      17.498 -54.045  36.379  0.00  0.00     0.096 N 
ATOM      7  C   UNK d   1      17.760 -55.472  36.344  0.00  0.00     0.292 C 
ATOM      8  C   UNK d   1      16.542 -56.148  36.945  0.00  0.00     0.156 C 
ATOM      9  C   UNK d   1      18.508 -53.242  35.759  0.00  0.00     0.273 C 
ATOM     10  C   UNK d   1      19.565 -53.039  36.816  0.00  0.00     0.032 C 
ATOM     11  C   UNK d   1      18.923 -53.500  38.105  0.00  0.00     0.039 C 
ENDROOT
BRANCH   1  12
ATOM     12  C   UNK d   1      14.119 -57.157  38.111  0.00  0.00     0.148 A 
ATOM     13  N   UNK d   1      13.876 -57.497  36.838  0.00  0.00    -0.161 NA
ATOM     14  N   UNK d   1      13.211 -58.638  36.751  0.00  0.00    -0.225 N 
ATOM     15  C   UNK d   1      12.745 -59.379  35.713  0.00  0.00     0.141 A 
ATOM     16  C   UNK d   1      12.981 -59.111  37.990  0.00  0.00     0.152 A 
ATOM     17  C   UNK d   1      12.066 -60.563  35.902  0.00  0.00     0.046 A 
ATOM     18 Br   UNK d   1      11.414 -61.595  34.418  0.00  0.00    -0.048 Br
ATOM     19  C   UNK d   1      11.841 -61.026  37.179  0.00  0.00     0.139 A 
ATOM     20  N   UNK d   1      12.311 -60.277  38.188  0.00  0.00    -0.240 NA
ATOM     21  C   UNK d   1      13.544 -58.191  38.851  0.00  0.00     0.091 A 
ENDBRANCH   1  12
TORSDOF 1
ENDMDL
