MODEL 1
REMARK VINA RESULT:    -8.775      0.000      0.000
REMARK INTER + INTRA:         -10.270
REMARK INTER:                  -9.801
REMARK INTRA:                  -0.469
REMARK UNBOUND:                -0.469
REMARK  2 active torsions:
REMARK  status: ('A' for Active; 'I' for Inactive)
REMARK    1  A    between atoms: C_7  and  C_11 
REMARK       I    between atoms: C_11  and  N_13 
REMARK       I    between atoms: N_16  and  C_19 
REMARK    2  A    between atoms: C_19  and  C_21 
ROOT
ATOM      1  C   UNK d   1      14.865 -57.400  34.093  0.00  0.00     0.259 C 
ATOM      2  O   UNK d   1      13.718 -57.300  33.568  0.00  0.00    -0.267 OA
ATOM      3  N   UNK d   1      15.041 -58.048  35.342  0.00  0.00    -0.345 N 
ATOM      4  C   UNK d   1      16.408 -58.120  35.881  0.00  0.00     0.146 C 
ATOM      5  C   UNK d   1      16.204 -58.226  37.392  0.00  0.00     0.145 C 
ATOM      6  N   UNK d   1      15.101 -57.364  37.699  0.00  0.00    -0.354 N 
ATOM      7  C   UNK d   1      13.784 -58.031  37.480  0.00  0.00     0.145 C 
ATOM      8  C   UNK d   1      13.923 -58.624  36.075  0.00  0.00     0.146 C 
ATOM      9  C   UNK d   1      15.125 -56.042  38.110  0.00  0.00     0.211 C 
ATOM     10  O   UNK d   1      13.980 -55.483  38.370  0.00  0.00    -0.169 OA
ENDROOT
BRANCH   1  11
ATOM     11  C   UNK d   1      15.985 -56.836  33.382  0.00  0.00     0.099 A 
ATOM     12  C   UNK d   1      16.570 -55.599  33.522  0.00  0.00     0.160 A 
ATOM     13  N   UNK d   1      17.591 -55.490  32.656  0.00  0.00    -0.178 NA
ATOM     14  N   UNK d   1      17.671 -56.628  31.964  0.00  0.00    -0.225 N 
ATOM     15  C   UNK d   1      18.497 -57.020  31.002  0.00  0.00     0.141 A 
ATOM     16  C   UNK d   1      16.710 -57.471  32.379  0.00  0.00     0.167 A 
ATOM     17  C   UNK d   1      18.382 -58.251  30.436  0.00  0.00     0.046 A 
ATOM     18 Br   UNK d   1      19.571 -58.805  29.056  0.00  0.00    -0.048 Br
ATOM     19  C   UNK d   1      17.402 -59.105  30.862  0.00  0.00     0.139 A 
ATOM     20  N   UNK d   1      16.584 -58.689  31.831  0.00  0.00    -0.239 NA
ENDBRANCH   1  11
BRANCH   9  21
ATOM     21  C   UNK d   1      16.255 -55.148  38.302  0.00  0.00     0.128 A 
ATOM     22  O   UNK d   1      17.380 -55.178  37.573  0.00  0.00    -0.318 OA
ATOM     23  C   UNK d   1      18.225 -54.281  37.950  0.00  0.00     0.142 A 
ATOM     24  C   UNK d   1      17.696 -53.567  38.996  0.00  0.00     0.027 A 
ATOM     25  C   UNK d   1      16.449 -54.131  39.205  0.00  0.00     0.043 A 
ENDBRANCH   9  21
TORSDOF 2
ENDMDL
