/Users/jonathanwahrer/Desktop/Msc/3_Semester/Drug_Design_Praktikum/waehrer_HTS_screening/HTS_experiment/out/docking_results/vina_output/6s1j/0790_docked.pdbqt
 OpenBabel03222221363D

 25 28  0  0  0  0  0  0  0  0999 V2000
   14.8650  -57.4000   34.0930 C   0  0  0  0  0  0  0  0  0  0  0  0
   13.7180  -57.3000   33.5680 O   0  0  0  0  0  0  0  0  0  0  0  0
   15.0410  -58.0480   35.3420 N   0  0  0  0  0  0  0  0  0  0  0  0
   16.4080  -58.1200   35.8810 C   0  0  0  0  0  2  0  0  0  0  0  0
   16.2040  -58.2260   37.3920 C   0  0  0  0  0  2  0  0  0  0  0  0
   15.1010  -57.3640   37.6990 N   0  0  0  0  0  0  0  0  0  0  0  0
   13.7840  -58.0310   37.4800 C   0  0  0  0  0  2  0  0  0  0  0  0
   13.9230  -58.6240   36.0750 C   0  0  0  0  0  2  0  0  0  0  0  0
   15.1250  -56.0420   38.1100 C   0  0  0  0  0  0  0  0  0  0  0  0
   13.9800  -55.4830   38.3700 O   0  0  0  0  0  0  0  0  0  0  0  0
   15.9850  -56.8360   33.3820 C   0  0  0  0  0  0  0  0  0  0  0  0
   16.5700  -55.5990   33.5220 C   0  0  0  0  0  3  0  0  0  0  0  0
   17.5910  -55.4900   32.6560 N   0  0  0  0  0  0  0  0  0  0  0  0
   17.6710  -56.6280   31.9640 N   0  0  0  0  0  0  0  0  0  0  0  0
   18.4970  -57.0200   31.0020 C   0  0  0  0  0  3  0  0  0  0  0  0
   16.7100  -57.4710   32.3790 C   0  0  0  0  0  0  0  0  0  0  0  0
   18.3820  -58.2510   30.4360 C   0  0  0  0  0  0  0  0  0  0  0  0
   19.5710  -58.8050   29.0560 Br  0  0  0  0  0  0  0  0  0  0  0  0
   17.4020  -59.1050   30.8620 C   0  0  0  0  0  3  0  0  0  0  0  0
   16.5840  -58.6890   31.8310 N   0  0  0  0  0  0  0  0  0  0  0  0
   16.2550  -55.1480   38.3020 C   0  0  0  0  0  0  0  0  0  0  0  0
   17.3800  -55.1780   37.5730 O   0  0  0  0  0  0  0  0  0  0  0  0
   18.2250  -54.2810   37.9500 C   0  0  0  0  0  3  0  0  0  0  0  0
   17.6960  -53.5670   38.9960 C   0  0  0  0  0  3  0  0  0  0  0  0
   16.4490  -54.1310   39.2050 C   0  0  0  0  0  3  0  0  0  0  0  0
  1  3  1  0  0  0  0
  2  1  2  0  0  0  0
  3  4  1  0  0  0  0
  3  8  1  0  0  0  0
  4  5  1  0  0  0  0
  5  6  1  0  0  0  0
  6  9  1  0  0  0  0
  7  6  1  0  0  0  0
  8  7  1  0  0  0  0
  9 21  1  0  0  0  0
  9 10  2  0  0  0  0
 11 12  1  0  0  0  0
 11  1  1  0  0  0  0
 13 12  2  0  0  0  0
 14 16  1  0  0  0  0
 14 13  1  0  0  0  0
 15 14  1  0  0  0  0
 16 11  2  0  0  0  0
 17 19  1  0  0  0  0
 17 15  2  0  0  0  0
 18 17  1  0  0  0  0
 19 20  2  0  0  0  0
 20 16  1  0  0  0  0
 21 25  2  0  0  0  0
 22 23  1  0  0  0  0
 22 21  1  0  0  0  0
 23 24  2  0  0  0  0
 24 25  1  0  0  0  0
M  END
>  <Pose>
1

>  <Score>
-8.775

$$$$
