/Users/jonathanwahrer/Desktop/Msc/3_Semester/Drug_Design_Praktikum/waehrer_HTS_screening/HTS_experiment/out/docking_results/vina_output/6s1j/0797_docked.pdbqt
 OpenBabel03222221363D

 28 31  0  0  0  0  0  0  0  0999 V2000
   13.9650  -56.7820   37.8800 O   0  0  0  0  0  0  0  0  0  0  0  0
   14.7680  -56.3350   38.9410 C   0  0  0  0  0  2  0  0  0  0  0  0
   15.6290  -55.1760   38.5890 C   0  0  0  0  0  0  0  0  0  0  0  0
   16.6520  -55.2900   37.7090 N   0  0  0  0  0  0  0  0  0  0  0  0
   17.4430  -54.2570   37.3720 C   0  0  0  0  0  0  0  0  0  0  0  0
   17.2750  -53.0260   37.8880 N   0  0  0  0  0  0  0  0  0  0  0  0
   18.4890  -54.4120   36.4590 C   0  0  0  0  0  3  0  0  0  0  0  0
   18.0790  -51.9990   37.5370 C   0  0  0  0  0  3  0  0  0  0  0  0
   16.2680  -52.8640   38.7700 C   0  0  0  0  0  0  0  0  0  0  0  0
   19.1180  -52.1220   36.6410 C   0  0  0  0  0  0  0  0  0  0  0  0
   20.2300  -50.6290   36.1790 Br  0  0  0  0  0  0  0  0  0  0  0  0
   19.3150  -53.3720   36.0940 C   0  0  0  0  0  3  0  0  0  0  0  0
   15.4390  -53.9230   39.1320 C   0  0  0  0  0  3  0  0  0  0  0  0
   16.1050  -51.7320   39.2520 O   0  0  0  0  0  0  0  0  0  0  0  0
   13.3950  -58.0340   37.7790 C   0  0  0  0  0  0  0  0  0  0  0  0
   12.8030  -58.5230   38.7630 O   0  0  0  0  0  0  0  0  0  0  0  0
   13.5040  -58.7630   36.4950 C   0  0  0  0  0  2  0  0  0  0  0  0
   14.5530  -58.2190   35.6800 N   0  0  0  0  0  0  0  0  0  0  0  0
   14.3880  -57.5340   34.4580 C   0  0  0  0  0  0  0  0  0  0  0  0
   13.3300  -57.2600   33.8340 O   0  0  0  0  0  0  0  0  0  0  0  0
   15.7260  -57.1490   33.9610 C   0  0  0  0  0  0  0  0  0  0  0  0
   16.6490  -57.5950   34.8680 C   0  0  0  0  0  0  0  0  0  0  0  0
   16.1190  -56.4690   32.8210 C   0  0  0  0  0  3  0  0  0  0  0  0
   17.9870  -57.3900   34.6880 C   0  0  0  0  0  3  0  0  0  0  0  0
   15.9340  -58.2690   35.9540 C   0  0  0  0  0  0  0  0  0  0  0  0
   18.4020  -56.7180   33.5640 C   0  0  0  0  0  3  0  0  0  0  0  0
   17.4710  -56.2670   32.6490 C   0  0  0  0  0  3  0  0  0  0  0  0
   16.4970  -58.7980   36.9600 O   0  0  0  0  0  0  0  0  0  0  0  0
  1  2  1  0  0  0  0
  3  2  1  0  0  0  0
  3 13  2  0  0  0  0
  4  3  1  0  0  0  0
  5  4  2  0  0  0  0
  5  6  1  0  0  0  0
  6  9  1  0  0  0  0
  7  5  1  0  0  0  0
  8  6  1  0  0  0  0
  9 13  1  0  0  0  0
  9 14  2  0  0  0  0
 10  8  2  0  0  0  0
 11 10  1  0  0  0  0
 12  7  2  0  0  0  0
 12 10  1  0  0  0  0
 15  1  1  0  0  0  0
 15 16  2  0  0  0  0
 17 15  1  0  0  0  0
 18 25  1  0  0  0  0
 18 17  1  0  0  0  0
 19 18  1  0  0  0  0
 20 19  2  0  0  0  0
 21 19  1  0  0  0  0
 21 22  1  0  0  0  0
 22 25  1  0  0  0  0
 23 21  2  0  0  0  0
 24 22  2  0  0  0  0
 25 28  2  0  0  0  0
 26 24  1  0  0  0  0
 27 23  1  0  0  0  0
 27 26  2  0  0  0  0
M  END
>  <Pose>
1

>  <Score>
-9.975

$$$$
