MODEL 1
REMARK VINA RESULT:    -9.196      0.000      0.000
REMARK INTER + INTRA:         -13.306
REMARK INTER:                 -12.421
REMARK INTRA:                  -0.885
REMARK UNBOUND:                -0.885
REMARK  6 active torsions:
REMARK  status: ('A' for Active; 'I' for Inactive)
REMARK    1  A    between atoms: C_16  and  N_17 
REMARK    2  A    between atoms: N_17  and  C_18 
REMARK    3  A    between atoms: C_19  and  C_24 
REMARK    4  A    between atoms: C_24  and  O_26 
REMARK    5  A    between atoms: O_26  and  C_27 
REMARK    6  A    between atoms: C_27  and  C_28 
ROOT
ATOM      1 Br   UNK d   1      17.750 -55.113  32.641  0.00  0.00    -0.046 Br
ATOM      2  C   UNK d   1      16.682 -56.002  33.936  0.00  0.00     0.072 A 
ATOM      3  C   UNK d   1      15.764 -56.943  33.623  0.00  0.00     0.141 A 
ATOM      4  N   UNK d   1      15.071 -57.634  34.534  0.00  0.00    -0.118 N 
ATOM      5  C   UNK d   1      15.296 -57.384  35.823  0.00  0.00     0.716 A 
ATOM      6  N   UNK d   1      14.596 -58.070  36.770  0.00  0.00    -0.063 NA
ATOM      7  C   UNK d   1      13.687 -58.988  36.474  0.00  0.00     0.091 A 
ATOM      8  C   UNK d   1      13.437 -59.265  35.149  0.00  0.00     0.062 A 
ATOM      9  C   UNK d   1      12.496 -60.205  34.778  0.00  0.00     0.019 A 
ATOM     10  C   UNK d   1      11.752 -60.924  35.715  0.00  0.00     0.001 A 
ATOM     11  C   UNK d   1      12.011 -60.638  37.038  0.00  0.00     0.002 A 
ATOM     12  C   UNK d   1      12.953 -59.697  37.415  0.00  0.00     0.033 A 
ATOM     13  C   UNK d   1      14.162 -58.555  34.200  0.00  0.00     0.278 A 
ATOM     14  O   UNK d   1      13.943 -58.797  32.992  0.00  0.00    -0.266 OA
ATOM     15  N   UNK d   1      16.210 -56.445  36.163  0.00  0.00    -0.173 N 
ATOM     16  C   UNK d   1      16.933 -55.720  35.320  0.00  0.00     0.140 A 
ATOM     17  H   UNK d   1      16.297 -56.341  37.225  0.00  0.00     0.186 HD
ENDROOT
BRANCH  16  18
ATOM     18  N   UNK d   1      17.785 -54.694  35.583  0.00  0.00    -0.340 N 
ATOM     19  H   UNK d   1      18.023 -55.153  36.848  0.00  0.00     0.167 HD
BRANCH  18  20
ATOM     20  C   UNK d   1      18.625 -53.684  35.842  0.00  0.00     0.050 A 
ATOM     21  C   UNK d   1      18.415 -52.886  36.974  0.00  0.00     0.066 A 
ATOM     22  C   UNK d   1      19.094 -51.724  37.139  0.00  0.00     0.020 A 
ATOM     23  C   UNK d   1      20.006 -51.310  36.198  0.00  0.00     0.001 A 
ATOM     24  C   UNK d   1      20.263 -52.052  35.067  0.00  0.00     0.002 A 
ATOM     25  C   UNK d   1      19.560 -53.225  34.921  0.00  0.00     0.030 A 
BRANCH  21  26
ATOM     26  C   UNK d   1      17.577 -53.335  38.092  0.00  0.00     0.295 C 
ATOM     27  O   UNK d   1      18.139 -53.955  39.030  0.00  0.00    -0.259 OA
BRANCH  26  28
ATOM     28  O   UNK d   1      16.230 -53.142  38.202  0.00  0.00    -0.317 OA
BRANCH  28  29
ATOM     29  C   UNK d   1      15.455 -53.715  39.237  0.00  0.00     0.178 C 
BRANCH  29  30
ATOM     30  C   UNK d   1      14.661 -54.912  38.705  0.00  0.00     0.022 C 
ATOM     31  C   UNK d   1      14.879 -56.085  39.630  0.00  0.00     0.007 C 
ENDBRANCH  29  30
ENDBRANCH  28  29
ENDBRANCH  26  28
ENDBRANCH  21  26
ENDBRANCH  18  20
ENDBRANCH  16  18
TORSDOF 6
ENDMDL
