/Users/jonathanwahrer/Desktop/Msc/3_Semester/Drug_Design_Praktikum/waehrer_HTS_screening/HTS_experiment/out/docking_results/vina_output/6s1j/0814_docked.pdbqt
 OpenBabel03222221373D

 31 34  0  0  1  0  0  0  0  0999 V2000
   14.0180  -57.8780   35.6090 N   0  0  0  0  0  0  0  0  0  0  0  0
   14.3790  -56.8970   36.4040 N   0  0  0  0  0  0  0  0  0  0  0  0
   14.0020  -57.1500   37.6670 C   0  0  0  0  0  0  0  0  0  0  0  0
   13.3800  -58.3380   37.6580 N   0  0  0  0  0  0  0  0  0  0  0  0
   13.3940  -58.7860   36.3680 C   0  0  2  0  0  3  0  0  0  0  0  0
   12.8270  -60.0450   35.8880 C   0  0  0  0  0  2  0  0  0  0  0  0
   11.3490  -60.1740   36.1730 C   0  0  0  0  0  2  0  0  0  0  0  0
   11.0750  -60.4120   37.6420 C   0  0  0  0  0  2  0  0  0  0  0  0
   11.3250  -59.2050   38.4920 C   0  0  0  0  0  2  0  0  0  0  0  0
   12.8030  -59.0140   38.8030 C   0  0  0  0  0  2  0  0  0  0  0  0
   14.2120  -56.3120   38.8550 C   0  0  0  0  0  2  0  0  0  0  0  0
   15.5950  -56.0330   39.0950 N   0  0  0  0  0  0  0  0  0  0  0  0
   16.1920  -56.7340   39.5580 H   0  0  0  0  0  0  0  0  0  0  0  0
   16.2150  -54.8070   38.7200 C   0  0  0  0  0  0  0  0  0  0  0  0
   15.8700  -53.6030   39.2910 C   0  0  0  0  0  3  0  0  0  0  0  0
   16.4770  -52.4300   38.9260 C   0  0  0  0  0  3  0  0  0  0  0  0
   17.4480  -52.4440   37.9730 C   0  0  0  0  0  0  0  0  0  0  0  0
   17.7960  -53.6470   37.3990 C   0  0  0  0  0  3  0  0  0  0  0  0
   17.1920  -54.8330   37.7590 C   0  0  0  0  0  3  0  0  0  0  0  0
   18.0730  -51.2830   37.5860 O   0  0  0  0  0  0  0  0  0  0  0  0
   19.1980  -51.2650   36.7430 C   0  0  0  0  0  1  0  0  0  0  0  0
   14.2440  -57.9670   34.1980 C   0  0  0  0  0  2  0  0  0  0  0  0
   15.6760  -58.2130   33.8810 C   0  0  0  0  0  0  0  0  0  0  0  0
   16.0130  -59.3900   33.5820 O   0  0  0  0  0  0  0  0  0  0  0  0
   16.6800  -57.1710   33.9020 C   0  0  0  0  0  0  0  0  0  0  0  0
   17.8320  -57.2850   34.6450 C   0  0  0  0  0  3  0  0  0  0  0  0
   18.7890  -56.2740   34.6560 C   0  0  0  0  0  3  0  0  0  0  0  0
   18.5940  -55.1240   33.9100 C   0  0  0  0  0  0  0  0  0  0  0  0
   19.9220  -53.7320   33.9310 Br  0  0  0  0  0  0  0  0  0  0  0  0
   17.4460  -55.0020   33.1640 C   0  0  0  0  0  3  0  0  0  0  0  0
   16.5180  -56.0150   33.1720 C   0  0  0  0  0  3  0  0  0  0  0  0
  1  5  1  0  0  0  0
  1  2  1  0  0  0  0
  2  3  2  0  0  0  0
  3 11  1  0  0  0  0
  4  3  1  0  0  0  0
  4 10  1  0  0  0  0
  5  6  1  1  0  0  0
  5  4  1  0  0  0  0
  6  7  1  0  0  0  0
  7  8  1  0  0  0  0
  8  9  1  0  0  0  0
  9 10  1  0  0  0  0
 11 12  1  0  0  0  0
 12 13  1  0  0  0  0
 14 12  1  0  0  0  0
 14 15  1  0  0  0  0
 16 15  2  0  0  0  0
 17 16  1  0  0  0  0
 18 19  1  0  0  0  0
 18 17  2  0  0  0  0
 19 14  2  0  0  0  0
 20 17  1  0  0  0  0
 21 20  1  0  0  0  0
 22  1  1  0  0  0  0
 23 25  1  0  0  0  0
 23 22  1  0  0  0  0
 24 23  2  0  0  0  0
 25 26  1  0  0  0  0
 26 27  2  0  0  0  0
 28 29  1  0  0  0  0
 28 27  1  0  0  0  0
 30 31  1  0  0  0  0
 30 28  2  0  0  0  0
 31 25  2  0  0  0  0
M  END
>  <Pose>
1

>  <Score>
-9.416

$$$$
