/Users/jonathanwahrer/Desktop/Msc/3_Semester/Drug_Design_Praktikum/waehrer_HTS_screening/HTS_experiment/out/docking_results/vina_output/6s1j/0827_docked.pdbqt
 OpenBabel03222221373D

 29 32  0  0  1  0  0  0  0  0999 V2000
   13.4110  -58.8590   34.2300 C   0  0  2  0  0  0  0  0  0  0  0  0
   14.0210  -58.0410   35.2750 N   0  0  0  0  0  4  0  0  0  0  0  0
   13.4810  -58.3680   36.4950 C   0  0  0  0  0  0  0  0  0  0  0  0
   13.4880  -57.7010   37.6220 C   0  0  0  0  0  3  0  0  0  0  0  0
   12.9470  -57.9590   38.9880 C   0  0  0  0  0  2  0  0  0  0  0  0
   12.0710  -59.1680   39.0840 C   0  0  0  0  0  2  0  0  0  0  0  0
   12.7910  -60.4150   38.6280 C   0  0  0  0  0  2  0  0  0  0  0  0
   12.4580  -60.7030   37.1770 C   0  0  0  0  0  2  0  0  0  0  0  0
   12.7420  -59.5990   36.3190 N   0  0  0  0  0  0  0  0  0  0  0  0
   12.2160  -59.5660   34.9470 C   0  0  0  0  0  2  0  0  0  0  0  0
   13.4740  -57.0660   35.0540 H   0  0  0  0  0  0  0  0  0  0  0  0
   15.3230  -57.6690   35.0690 C   0  0  0  0  0  0  0  0  0  0  0  0
   16.4010  -58.1260   35.7660 C   0  0  0  0  0  3  0  0  0  0  0  0
   17.6890  -57.5810   35.6290 C   0  0  0  0  0  3  0  0  0  0  0  0
   17.9210  -56.5420   34.7660 C   0  0  0  0  0  0  0  0  0  0  0  0
   16.8300  -56.0720   34.0510 C   0  0  0  0  0  3  0  0  0  0  0  0
   15.5680  -56.6090   34.1900 C   0  0  0  0  0  3  0  0  0  0  0  0
   19.1810  -55.9840   34.6250 O   0  0  0  0  0  0  0  0  0  0  0  0
   19.4560  -54.6080   34.5570 C   0  0  0  0  0  2  0  0  0  0  0  0
   19.8630  -54.1960   35.9860 C   0  0  0  0  0  1  0  0  0  0  0  0
   14.2940  -60.0080   33.8780 C   0  0  0  0  0  0  0  0  0  0  0  0
   14.1670  -61.2470   34.4600 C   0  0  0  0  0  3  0  0  0  0  0  0
   15.0010  -62.2840   34.0980 C   0  0  0  0  0  3  0  0  0  0  0  0
   15.9790  -62.0910   33.1410 C   0  0  0  0  0  0  0  0  0  0  0  0
   17.1180  -63.5290   32.6710 Br  0  0  0  0  0  0  0  0  0  0  0  0
   16.1170  -60.8600   32.5510 C   0  0  0  0  0  3  0  0  0  0  0  0
   15.2590  -59.8210   32.9340 C   0  0  0  0  0  3  0  0  0  0  0  0
   12.9040  -58.1460   33.2150 O   0  0  0  0  0  0  0  0  0  0  0  0
   12.2620  -58.5380   32.6040 H   0  0  0  0  0  0  0  0  0  0  0  0
  1 28  1  6  0  0  0
  1 10  1  0  0  0  0
  1  2  1  0  0  0  0
  2  3  1  0  0  0  0
  3  4  2  0  0  0  0
  4  5  1  0  0  0  0
  5  6  1  0  0  0  0
  7  6  1  0  0  0  0
  8  7  1  0  0  0  0
  9  3  1  0  0  0  0
  9  8  1  0  0  0  0
 10  9  1  0  0  0  0
 11  2  1  0  0  0  0
 12  2  1  0  0  0  0
 12 13  1  0  0  0  0
 14 13  2  0  0  0  0
 15 14  1  0  0  0  0
 16 17  1  0  0  0  0
 16 15  2  0  0  0  0
 17 12  2  0  0  0  0
 18 15  1  0  0  0  0
 19 18  1  0  0  0  0
 19 20  1  0  0  0  0
 21  1  1  0  0  0  0
 21 22  1  0  0  0  0
 23 22  2  0  0  0  0
 24 23  1  0  0  0  0
 25 24  1  0  0  0  0
 26 27  1  0  0  0  0
 26 24  2  0  0  0  0
 27 21  2  0  0  0  0
 29 28  1  0  0  0  0
M  END
>  <Pose>
1

>  <Score>
-6.977

$$$$
