MODEL 1
REMARK VINA RESULT:    -8.113      0.000      0.000
REMARK INTER + INTRA:         -10.399
REMARK INTER:                  -9.773
REMARK INTRA:                  -0.626
REMARK UNBOUND:                -0.626
REMARK  4 active torsions:
REMARK  status: ('A' for Active; 'I' for Inactive)
REMARK    1  A    between atoms: C_5  and  C_8 
REMARK    2  A    between atoms: C_8  and  O_26 
REMARK    3  A    between atoms: N_16  and  C_18 
REMARK    4  A    between atoms: C_19  and  O_24 
ROOT
ATOM      1  C   UNK d   1      17.045 -55.774  32.767  0.00  0.00     0.189 C 
ATOM      2  N   UNK d   1      17.174 -56.853  33.736  0.00  0.00    -0.324 N 
ATOM      3  C   UNK d   1      17.800 -58.130  33.413  0.00  0.00     0.128 C 
ATOM      4  C   UNK d   1      17.554 -59.179  34.434  0.00  0.00     0.020 C 
ATOM      5  C   UNK d   1      16.102 -59.360  34.792  0.00  0.00     0.005 C 
ATOM      6  C   UNK d   1      15.878 -58.543  36.051  0.00  0.00     0.031 C 
ATOM      7  C   UNK d   1      16.043 -57.126  35.914  0.00  0.00     0.030 C 
ATOM      8  C   UNK d   1      16.599 -56.396  34.920  0.00  0.00     0.208 C 
ATOM      9  N   UNK d   1      16.666 -54.992  35.008  0.00  0.00     0.011 N 
ATOM     10  C   UNK d   1      17.050 -54.600  33.683  0.00  0.00     0.316 C 
ATOM     11  H   UNK d   1      15.758 -54.529  35.244  0.00  0.00     0.295 HD
ENDROOT
BRANCH   1  12
ATOM     12  C   UNK d   1      18.174 -55.793  31.816  0.00  0.00    -0.001 A 
ATOM     13  C   UNK d   1      18.040 -56.543  30.644  0.00  0.00     0.013 A 
ATOM     14  C   UNK d   1      19.136 -56.573  29.782  0.00  0.00     0.020 A 
ATOM     15  C   UNK d   1      20.291 -55.892  30.090  0.00  0.00     0.011 A 
ATOM     16 Br   UNK d   1      21.772 -55.959  28.879  0.00  0.00    -0.051 Br
ATOM     17  C   UNK d   1      20.387 -55.158  31.260  0.00  0.00     0.020 A 
ATOM     18  C   UNK d   1      19.310 -55.115  32.129  0.00  0.00     0.013 A 
ENDBRANCH   1  12
BRANCH   1  19
ATOM     19  O   UNK d   1      15.863 -55.962  32.099  0.00  0.00    -0.365 OA
ATOM     20  H   UNK d   1      15.967 -56.281  31.178  0.00  0.00     0.213 HD
ENDBRANCH   1  19
BRANCH   9  21
ATOM     21  C   UNK d   1      17.675 -54.703  35.976  0.00  0.00     0.175 A 
ATOM     22  C   UNK d   1      17.334 -54.303  37.257  0.00  0.00     0.103 A 
ATOM     23  C   UNK d   1      18.388 -53.971  38.099  0.00  0.00     0.039 A 
ATOM     24  C   UNK d   1      19.720 -54.019  37.732  0.00  0.00     0.003 A 
ATOM     25  C   UNK d   1      20.018 -54.433  36.416  0.00  0.00     0.002 A 
ATOM     26  C   UNK d   1      18.986 -54.754  35.610  0.00  0.00     0.041 A 
BRANCH  22  27
ATOM     27  O   UNK d   1      16.026 -54.254  37.632  0.00  0.00    -0.354 OA
ATOM     28  C   UNK d   1      15.638 -53.773  38.893  0.00  0.00     0.210 C 
ENDBRANCH  22  27
ENDBRANCH   9  21
TORSDOF 4
ENDMDL
