MODEL 1
REMARK VINA RESULT:    -8.508      0.000      0.000
REMARK INTER + INTRA:         -10.876
REMARK INTER:                 -10.249
REMARK INTRA:                  -0.627
REMARK UNBOUND:                -0.627
REMARK  4 active torsions:
REMARK  status: ('A' for Active; 'I' for Inactive)
REMARK    1  A    between atoms: C_5  and  C_8 
REMARK    2  A    between atoms: C_8  and  O_26 
REMARK    3  A    between atoms: N_16  and  C_18 
REMARK    4  A    between atoms: C_21  and  O_24 
ROOT
ATOM      1  C   UNK d   1      17.238 -56.462  34.116  0.00  0.00     0.189 C 
ATOM      2  N   UNK d   1      16.202 -57.354  33.704  0.00  0.00    -0.324 N 
ATOM      3  C   UNK d   1      14.830 -57.049  33.442  0.00  0.00     0.128 C 
ATOM      4  C   UNK d   1      13.808 -57.953  34.015  0.00  0.00     0.020 C 
ATOM      5  C   UNK d   1      14.293 -59.133  34.776  0.00  0.00     0.005 C 
ATOM      6  C   UNK d   1      14.889 -60.205  33.862  0.00  0.00     0.031 C 
ATOM      7  C   UNK d   1      16.324 -59.839  33.655  0.00  0.00     0.030 C 
ATOM      8  C   UNK d   1      16.874 -58.638  33.589  0.00  0.00     0.208 C 
ATOM      9  N   UNK d   1      18.265 -58.407  33.404  0.00  0.00     0.009 N 
ATOM     10  C   UNK d   1      18.476 -57.338  34.333  0.00  0.00     0.316 C 
ATOM     11  H   UNK d   1      18.775 -59.285  33.677  0.00  0.00     0.295 HD
ENDROOT
BRANCH   1  12
ATOM     12  C   UNK d   1      17.063 -55.746  35.378  0.00  0.00    -0.001 A 
ATOM     13  C   UNK d   1      16.616 -56.232  36.561  0.00  0.00     0.013 A 
ATOM     14  C   UNK d   1      16.500 -55.436  37.693  0.00  0.00     0.020 A 
ATOM     15  C   UNK d   1      16.845 -54.102  37.642  0.00  0.00     0.011 A 
ATOM     16 Br   UNK d   1      16.701 -52.984  39.187  0.00  0.00    -0.051 Br
ATOM     17  C   UNK d   1      17.300 -53.606  36.444  0.00  0.00     0.020 A 
ATOM     18  C   UNK d   1      17.419 -54.382  35.320  0.00  0.00     0.013 A 
ENDBRANCH   1  12
BRANCH   1  19
ATOM     19  O   UNK d   1      17.511 -55.475  33.149  0.00  0.00    -0.365 OA
ATOM     20  H   UNK d   1      16.748 -54.845  33.205  0.00  0.00     0.213 HD
ENDBRANCH   1  19
BRANCH   9  21
ATOM     21  C   UNK d   1      18.498 -58.047  32.067  0.00  0.00     0.142 A 
ATOM     22  C   UNK d   1      19.687 -57.392  31.694  0.00  0.00     0.040 A 
ATOM     23  C   UNK d   1      19.942 -57.024  30.401  0.00  0.00     0.039 A 
ATOM     24  C   UNK d   1      19.032 -57.284  29.398  0.00  0.00     0.068 A 
ATOM     25  C   UNK d   1      17.866 -57.921  29.737  0.00  0.00     0.039 A 
ATOM     26  C   UNK d   1      17.610 -58.292  31.041  0.00  0.00     0.040 A 
BRANCH  24  27
ATOM     27  O   UNK d   1      19.304 -56.902  28.071  0.00  0.00    -0.356 OA
ATOM     28  C   UNK d   1      20.621 -56.929  27.588  0.00  0.00     0.210 C 
ENDBRANCH  24  27
ENDBRANCH   9  21
TORSDOF 4
ENDMDL
