MODEL 1
REMARK VINA RESULT:    -7.854      0.000      0.000
REMARK INTER + INTRA:          -9.287
REMARK INTER:                  -9.461
REMARK INTRA:                   0.174
REMARK UNBOUND:                 0.174
REMARK  4 active torsions:
REMARK  status: ('A' for Active; 'I' for Inactive)
REMARK    1  A    between atoms: C_5  and  C_8 
REMARK    2  A    between atoms: C_8  and  O_25 
REMARK    3  A    between atoms: N_15  and  C_17 
REMARK    4  A    between atoms: C_18  and  O_23 
ROOT
ATOM      1  C   UNK d   1      17.761 -57.035  33.410  0.00  0.00     0.189 C 
ATOM      2  N   UNK d   1      18.441 -55.802  33.743  0.00  0.00    -0.324 N 
ATOM      3  C   UNK d   1      18.853 -55.094  34.937  0.00  0.00     0.128 C 
ATOM      4  C   UNK d   1      20.163 -54.358  34.742  0.00  0.00     0.024 C 
ATOM      5  C   UNK d   1      20.000 -53.406  33.606  0.00  0.00     0.032 C 
ATOM      6  C   UNK d   1      19.450 -54.075  32.408  0.00  0.00     0.030 C 
ATOM      7  C   UNK d   1      18.723 -55.193  32.484  0.00  0.00     0.208 C 
ATOM      8  N   UNK d   1      18.124 -55.909  31.427  0.00  0.00     0.011 N 
ATOM      9  C   UNK d   1      17.073 -56.679  32.123  0.00  0.00     0.316 C 
ATOM     10  H   UNK d   1      17.546 -55.257  30.802  0.00  0.00     0.295 HD
ENDROOT
BRANCH   1  11
ATOM     11  C   UNK d   1      16.804 -57.474  34.455  0.00  0.00    -0.001 A 
ATOM     12  C   UNK d   1      15.450 -57.291  34.268  0.00  0.00     0.013 A 
ATOM     13  C   UNK d   1      14.501 -57.690  35.208  0.00  0.00     0.020 A 
ATOM     14  C   UNK d   1      14.931 -58.291  36.369  0.00  0.00     0.011 A 
ATOM     15 Br   UNK d   1      13.635 -58.839  37.677  0.00  0.00    -0.051 Br
ATOM     16  C   UNK d   1      16.281 -58.480  36.571  0.00  0.00     0.020 A 
ATOM     17  C   UNK d   1      17.210 -58.079  35.629  0.00  0.00     0.013 A 
ENDBRANCH   1  11
BRANCH   1  18
ATOM     18  O   UNK d   1      18.639 -58.082  33.154  0.00  0.00    -0.365 OA
ATOM     19  H   UNK d   1      19.236 -58.149  33.939  0.00  0.00     0.213 HD
ENDBRANCH   1  18
BRANCH   8  20
ATOM     20  C   UNK d   1      18.947 -56.743  30.678  0.00  0.00     0.175 A 
ATOM     21  C   UNK d   1      18.481 -57.777  29.905  0.00  0.00     0.103 A 
ATOM     22  C   UNK d   1      19.367 -58.589  29.193  0.00  0.00     0.039 A 
ATOM     23  C   UNK d   1      20.720 -58.373  29.249  0.00  0.00     0.003 A 
ATOM     24  C   UNK d   1      21.197 -57.336  30.021  0.00  0.00     0.002 A 
ATOM     25  C   UNK d   1      20.321 -56.542  30.718  0.00  0.00     0.041 A 
BRANCH  21  26
ATOM     26  O   UNK d   1      17.136 -58.065  29.789  0.00  0.00    -0.354 OA
ATOM     27  C   UNK d   1      16.695 -59.191  29.106  0.00  0.00     0.210 C 
ENDBRANCH  21  26
ENDBRANCH   8  20
TORSDOF 4
ENDMDL
