MODEL 1
REMARK VINA RESULT:    -8.122      0.000      0.000
REMARK INTER + INTRA:         -10.623
REMARK INTER:                  -9.784
REMARK INTRA:                  -0.839
REMARK UNBOUND:                -0.839
REMARK  4 active torsions:
REMARK  status: ('A' for Active; 'I' for Inactive)
REMARK    1  A    between atoms: C_5  and  C_8 
REMARK    2  A    between atoms: C_8  and  O_25 
REMARK    3  A    between atoms: N_15  and  C_17 
REMARK    4  A    between atoms: C_20  and  O_23 
ROOT
ATOM      1  C   UNK d   1      17.222 -58.300  33.922  0.00  0.00     0.189 C 
ATOM      2  N   UNK d   1      15.877 -57.843  34.170  0.00  0.00    -0.324 N 
ATOM      3  C   UNK d   1      14.764 -57.380  33.352  0.00  0.00     0.128 C 
ATOM      4  C   UNK d   1      13.423 -57.660  33.908  0.00  0.00     0.024 C 
ATOM      5  C   UNK d   1      13.395 -58.484  35.171  0.00  0.00     0.032 C 
ATOM      6  C   UNK d   1      14.515 -58.206  36.065  0.00  0.00     0.030 C 
ATOM      7  C   UNK d   1      15.703 -57.899  35.578  0.00  0.00     0.208 C 
ATOM      8  N   UNK d   1      16.951 -57.584  36.187  0.00  0.00     0.009 N 
ATOM      9  C   UNK d   1      17.929 -57.957  35.212  0.00  0.00     0.316 C 
ATOM     10  H   UNK d   1      17.031 -58.196  37.044  0.00  0.00     0.295 HD
ENDROOT
BRANCH   1  11
ATOM     11  C   UNK d   1      17.861 -57.717  32.744  0.00  0.00    -0.001 A 
ATOM     12  C   UNK d   1      17.789 -58.355  31.524  0.00  0.00     0.013 A 
ATOM     13  C   UNK d   1      18.373 -57.851  30.380  0.00  0.00     0.020 A 
ATOM     14  C   UNK d   1      19.072 -56.659  30.405  0.00  0.00     0.011 A 
ATOM     15 Br   UNK d   1      19.892 -55.944  28.838  0.00  0.00    -0.051 Br
ATOM     16  C   UNK d   1      19.154 -56.008  31.617  0.00  0.00     0.020 A 
ATOM     17  C   UNK d   1      18.565 -56.519  32.759  0.00  0.00     0.013 A 
ENDBRANCH   1  11
BRANCH   1  18
ATOM     18  O   UNK d   1      17.155 -59.697  33.741  0.00  0.00    -0.365 OA
ATOM     19  H   UNK d   1      17.955 -60.065  34.191  0.00  0.00     0.213 HD
ENDBRANCH   1  18
BRANCH   8  20
ATOM     20  C   UNK d   1      16.951 -56.246  36.556  0.00  0.00     0.142 A 
ATOM     21  C   UNK d   1      16.262 -55.824  37.669  0.00  0.00     0.040 A 
ATOM     22  C   UNK d   1      16.263 -54.469  38.041  0.00  0.00     0.039 A 
ATOM     23  C   UNK d   1      16.941 -53.528  37.319  0.00  0.00     0.068 A 
ATOM     24  C   UNK d   1      17.645 -53.963  36.180  0.00  0.00     0.039 A 
ATOM     25  C   UNK d   1      17.625 -55.300  35.842  0.00  0.00     0.040 A 
BRANCH  23  26
ATOM     26  O   UNK d   1      16.985 -52.170  37.629  0.00  0.00    -0.356 OA
ATOM     27  C   UNK d   1      18.110 -51.353  37.603  0.00  0.00     0.210 C 
ENDBRANCH  23  26
ENDBRANCH   8  20
TORSDOF 4
ENDMDL
