MODEL 1
REMARK VINA RESULT:    -9.209      0.000      0.000
REMARK INTER + INTRA:         -13.508
REMARK INTER:                 -12.439
REMARK INTRA:                  -1.069
REMARK UNBOUND:                -1.069
REMARK  6 active torsions:
REMARK  status: ('A' for Active; 'I' for Inactive)
REMARK    1  A    between atoms: C_5  and  N_8 
REMARK    2  A    between atoms: N_8  and  C_9 
REMARK    3  A    between atoms: C_9  and  C_10 
REMARK    4  A    between atoms: N_13  and  C_15 
REMARK    5  A    between atoms: C_16  and  C_18 
REMARK    6  A    between atoms: C_21  and  O_24 
ROOT
ATOM      1  C   UNK d   1      15.072 -58.530  37.056  0.00  0.00     0.145 A 
ATOM      2  N   UNK d   1      13.882 -59.154  37.062  0.00  0.00    -0.321 N 
ATOM      3  C   UNK d   1      13.704 -59.720  35.854  0.00  0.00     0.104 A 
ATOM      4  N   UNK d   1      14.807 -59.441  35.083  0.00  0.00    -0.250 N 
ATOM      5  N   UNK d   1      15.610 -58.720  35.846  0.00  0.00    -0.155 NA
ATOM      6  C   UNK d   1      12.617 -60.522  35.284  0.00  0.00     0.078 C 
ATOM      7  C   UNK d   1      11.239 -60.167  35.776  0.00  0.00     0.008 C 
ATOM      8  C   UNK d   1      11.061 -60.351  37.248  0.00  0.00     0.002 C 
ATOM      9  C   UNK d   1      11.559 -59.091  37.917  0.00  0.00     0.020 C 
ATOM     10  C   UNK d   1      13.037 -59.156  38.211  0.00  0.00     0.132 C 
ENDROOT
BRANCH   4  11
ATOM     11  C   UNK d   1      15.096 -59.858  33.769  0.00  0.00     0.221 C 
ATOM     12  C   UNK d   1      15.959 -59.037  32.961  0.00  0.00     0.114 C 
ATOM     13  O   UNK d   1      16.119 -59.522  31.729  0.00  0.00    -0.194 OA
BRANCH  12  14
ATOM     14  C   UNK d   1      16.684 -57.818  33.181  0.00  0.00    -0.002 A 
ATOM     15  C   UNK d   1      18.039 -57.851  33.578  0.00  0.00     0.017 A 
ATOM     16  C   UNK d   1      18.776 -56.719  33.806  0.00  0.00     0.037 A 
ATOM     17  C   UNK d   1      18.218 -55.475  33.657  0.00  0.00     0.068 A 
ATOM     18  C   UNK d   1      16.907 -55.397  33.274  0.00  0.00     0.037 A 
ATOM     19  C   UNK d   1      16.162 -56.568  33.043  0.00  0.00     0.017 A 
BRANCH  17  20
ATOM     20  O   UNK d   1      18.969 -54.324  33.890  0.00  0.00    -0.356 OA
ATOM     21  C   UNK d   1      19.959 -53.875  32.998  0.00  0.00     0.210 C 
ENDBRANCH  17  20
ENDBRANCH  12  14
ENDBRANCH   4  11
BRANCH   1  22
ATOM     22  C   UNK d   1      15.749 -57.748  38.140  0.00  0.00     0.200 C 
BRANCH  22  23
ATOM     23  N   UNK d   1      15.163 -56.436  38.330  0.00  0.00    -0.383 N 
ATOM     24  H   UNK d   1      14.171 -56.330  38.635  0.00  0.00     0.160 HD
BRANCH  23  25
ATOM     25  C   UNK d   1      15.894 -55.223  38.114  0.00  0.00     0.028 A 
ATOM     26  C   UNK d   1      15.569 -54.079  38.810  0.00  0.00     0.030 A 
ATOM     27  C   UNK d   1      16.273 -52.923  38.603  0.00  0.00     0.021 A 
ATOM     28  C   UNK d   1      17.321 -52.895  37.689  0.00  0.00     0.011 A 
ATOM     29 Br   UNK d   1      18.299 -51.291  37.404  0.00  0.00    -0.051 Br
ATOM     30  C   UNK d   1      17.663 -54.033  36.981  0.00  0.00     0.021 A 
ATOM     31  C   UNK d   1      16.936 -55.178  37.212  0.00  0.00     0.030 A 
ENDBRANCH  23  25
ENDBRANCH  22  23
ENDBRANCH   1  22
TORSDOF 6
ENDMDL
