MODEL 1
REMARK VINA RESULT:    -7.844      0.000      0.000
REMARK INTER + INTRA:          -9.557
REMARK INTER:                  -9.908
REMARK INTRA:                   0.350
REMARK UNBOUND:                 0.350
REMARK  5 active torsions:
REMARK  status: ('A' for Active; 'I' for Inactive)
REMARK    1  A    between atoms: C_5  and  N_8 
REMARK    2  A    between atoms: C_9  and  O_18 
REMARK    3  A    between atoms: C_9  and  C_19 
REMARK    4  A    between atoms: C_22  and  O_25 
REMARK    5  A    between atoms: O_25  and  C_26 
ROOT
ATOM      1  N   UNK d   1      17.703 -56.084  32.409  0.00  0.00     0.042 N 
ATOM      2  C   UNK d   1      18.831 -55.896  33.273  0.00  0.00     0.283 C 
ATOM      3  C   UNK d   1      18.970 -57.311  33.833  0.00  0.00     0.200 C 
ATOM      4  N   UNK d   1      17.572 -57.726  34.026  0.00  0.00    -0.356 N 
ATOM      5  C   UNK d   1      17.244 -58.805  34.890  0.00  0.00     0.124 C 
ATOM      6  C   UNK d   1      15.777 -59.076  35.035  0.00  0.00     0.020 C 
ATOM      7  C   UNK d   1      15.060 -57.790  35.344  0.00  0.00     0.005 C 
ATOM      8  C   UNK d   1      14.459 -57.337  34.006  0.00  0.00     0.031 C 
ATOM      9  C   UNK d   1      15.509 -56.648  33.229  0.00  0.00     0.030 C 
ATOM     10  C   UNK d   1      16.811 -56.828  33.221  0.00  0.00     0.210 C 
ATOM     11  H   UNK d   1      17.332 -55.112  32.172  0.00  0.00     0.299 HD
ENDROOT
BRANCH   2  12
ATOM     12  O   UNK d   1      19.959 -55.368  32.731  0.00  0.00    -0.359 OA
ATOM     13  H   UNK d   1      20.203 -54.500  33.103  0.00  0.00     0.213 HD
ENDBRANCH   2  12
BRANCH   2  14
ATOM     14  C   UNK d   1      18.493 -55.046  34.451  0.00  0.00     0.007 A 
ATOM     15  C   UNK d   1      17.339 -54.336  34.601  0.00  0.00     0.015 A 
ATOM     16  C   UNK d   1      17.078 -53.555  35.746  0.00  0.00     0.037 A 
ATOM     17  C   UNK d   1      17.991 -53.479  36.770  0.00  0.00     0.068 A 
ATOM     18  C   UNK d   1      19.159 -54.190  36.629  0.00  0.00     0.037 A 
ATOM     19  C   UNK d   1      19.410 -54.950  35.510  0.00  0.00     0.015 A 
BRANCH  17  20
ATOM     20  O   UNK d   1      17.740 -52.708  37.916  0.00  0.00    -0.352 OA
BRANCH  20  21
ATOM     21  C   UNK d   1      17.332 -53.299  39.127  0.00  0.00     0.171 C 
ATOM     22  C   UNK d   1      15.843 -53.398  39.246  0.00  0.00     0.034 C 
ENDBRANCH  20  21
ENDBRANCH  17  20
ENDBRANCH   2  14
BRANCH   1  23
ATOM     23  C   UNK d   1      17.916 -56.697  31.192  0.00  0.00     0.146 A 
ATOM     24  C   UNK d   1      18.766 -56.098  30.265  0.00  0.00     0.039 A 
ATOM     25  C   UNK d   1      19.042 -56.675  29.034  0.00  0.00     0.021 A 
ATOM     26  C   UNK d   1      18.478 -57.880  28.678  0.00  0.00     0.011 A 
ATOM     27 Br   UNK d   1      18.863 -58.703  26.991  0.00  0.00    -0.051 Br
ATOM     28  C   UNK d   1      17.643 -58.489  29.563  0.00  0.00     0.021 A 
ATOM     29  C   UNK d   1      17.383 -57.887  30.791  0.00  0.00     0.039 A 
ENDBRANCH   1  23
TORSDOF 5
ENDMDL
