MODEL 1
REMARK VINA RESULT:    -6.980      0.000      0.000
REMARK INTER + INTRA:          -9.600
REMARK INTER:                  -8.408
REMARK INTRA:                  -1.192
REMARK UNBOUND:                -1.192
REMARK  4 active torsions:
REMARK  status: ('A' for Active; 'I' for Inactive)
REMARK    1  A    between atoms: C_11  and  N_14 
REMARK    2  A    between atoms: C_11  and  C_20 
REMARK    3  A    between atoms: C_12  and  O_13 
REMARK    4  A    between atoms: C_20  and  N_21 
ROOT
ATOM      1 Br   UNK d   1      19.604 -55.825  27.998  0.00  0.00    -0.051 Br
ATOM      2  C   UNK d   1      19.411 -56.458  29.795  0.00  0.00     0.017 A 
ATOM      3  C   UNK d   1      18.743 -55.722  30.754  0.00  0.00     0.032 A 
ATOM      4  C   UNK d   1      18.607 -56.181  32.045  0.00  0.00     0.008 A 
ATOM      5  C   UNK d   1      19.170 -57.407  32.332  0.00  0.00     0.078 A 
ATOM      6  C   UNK d   1      19.839 -58.147  31.378  0.00  0.00     0.045 A 
ATOM      7  C   UNK d   1      19.973 -57.684  30.087  0.00  0.00    -0.042 A 
ATOM      8  C   UNK d   1      20.698 -58.492  29.065  0.00  0.00     0.049 C 
ATOM      9  O   UNK d   1      19.019 -57.850  33.645  0.00  0.00    -0.348 OA
ATOM     10  C   UNK d   1      18.637 -57.036  34.702  0.00  0.00     0.219 C 
ATOM     11  C   UNK d   1      17.703 -55.926  34.357  0.00  0.00     0.202 C 
ATOM     12  C   UNK d   1      17.883 -55.338  33.002  0.00  0.00     0.194 C 
ENDROOT
BRANCH  11  13
ATOM     13  N   UNK d   1      17.993 -54.858  35.320  0.00  0.00    -0.052 N 
ATOM     14  C   UNK d   1      19.383 -54.601  35.476  0.00  0.00     0.262 C 
ATOM     15  C   UNK d   1      19.491 -53.249  36.198  0.00  0.00     0.195 C 
ATOM     16  O   UNK d   1      18.931 -53.433  37.451  0.00  0.00    -0.388 OA
ATOM     17  C   UNK d   1      17.591 -53.801  37.405  0.00  0.00     0.195 C 
ATOM     18  C   UNK d   1      17.407 -55.098  36.603  0.00  0.00     0.262 C 
ATOM     19  H   UNK d   1      17.544 -54.002  34.923  0.00  0.00     0.281 HD
ENDBRANCH  11  13
BRANCH  11  20
ATOM     20  C   UNK d   1      16.249 -56.300  34.559  0.00  0.00     0.279 C 
BRANCH  20  21
ATOM     21  N   UNK d   1      16.020 -57.709  34.645  0.00  0.00    -0.065 N 
ATOM     22  C   UNK d   1      15.394 -58.102  35.894  0.00  0.00     0.261 C 
ATOM     23  C   UNK d   1      14.265 -59.097  35.673  0.00  0.00     0.195 C 
ATOM     24  O   UNK d   1      13.228 -58.560  34.929  0.00  0.00    -0.388 OA
ATOM     25  C   UNK d   1      13.700 -57.668  33.971  0.00  0.00     0.195 C 
ATOM     26  C   UNK d   1      15.089 -58.133  33.586  0.00  0.00     0.261 C 
ATOM     27  H   UNK d   1      16.855 -58.302  34.528  0.00  0.00     0.280 HD
ENDBRANCH  20  21
ENDBRANCH  11  20
BRANCH  12  28
ATOM     28  O   UNK d   1      16.631 -55.036  32.412  0.00  0.00    -0.388 OA
ATOM     29  H   UNK d   1      16.082 -54.462  32.984  0.00  0.00     0.210 HD
ENDBRANCH  12  28
TORSDOF 4
ENDMDL
