/Users/jonathanwahrer/Desktop/Msc/3_Semester/Drug_Design_Praktikum/waehrer_HTS_screening/HTS_experiment/out/docking_results/vina_output/6s1j/0865_docked.pdbqt
 OpenBabel03222221393D

 30 33  0  0  0  0  0  0  0  0999 V2000
   14.2110  -57.0680   38.5000 C   0  0  0  0  0  0  0  0  0  0  0  0
   14.5440  -57.1990   37.1970 N   0  0  0  0  0  4  0  0  0  0  0  0
   13.9250  -58.0730   36.3650 C   0  0  0  0  0  0  0  0  0  0  0  0
   12.9540  -58.8170   36.8990 N   0  0  0  0  0  0  0  0  0  0  0  0
   12.5700  -58.7400   38.1850 C   0  0  0  0  0  0  0  0  0  0  0  0
   13.2210  -57.8540   38.9590 N   0  0  0  0  0  2  0  0  0  0  0  0
   14.8980  -56.1360   39.3110 N   0  0  0  0  0  0  0  0  0  0  0  0
   14.6350  -56.0390   40.3050 H   0  0  0  0  0  0  0  0  0  0  0  0
   15.9150  -55.3520   38.7840 N   0  0  0  0  0  0  0  0  0  0  0  0
   15.7420  -54.1610   38.3340 C   0  0  0  0  0  3  0  0  0  0  0  0
   16.8590  -53.3980   37.7950 C   0  0  0  0  0  0  0  0  0  0  0  0
   17.7410  -53.9330   36.8710 C   0  0  0  0  0  3  0  0  0  0  0  0
   18.7980  -53.2070   36.3640 C   0  0  0  0  0  0  0  0  0  0  0  0
   19.0180  -51.9050   36.7640 C   0  0  0  0  0  0  0  0  0  0  0  0
   19.9980  -53.9710   35.0890 Br  0  0  0  0  0  0  0  0  0  0  0  0
   20.0550  -51.1700   36.2760 F   0  0  0  0  0  0  0  0  0  0  0  0
   18.1500  -51.3610   37.6820 C   0  0  0  0  0  3  0  0  0  0  0  0
   17.0880  -52.0960   38.1900 C   0  0  0  0  0  3  0  0  0  0  0  0
   14.3160  -58.1700   35.0000 N   0  0  0  0  0  0  0  0  0  0  0  0
   13.5310  -58.8180   33.9760 C   0  0  0  0  0  2  0  0  0  0  0  0
   14.4950  -59.8290   33.3590 C   0  0  0  0  0  2  0  0  0  0  0  0
   15.4680  -59.1670   32.7060 O   0  0  0  0  0  0  0  0  0  0  0  0
   16.0830  -58.1270   33.2830 C   0  0  0  0  0  3  0  0  0  0  0  0
   15.5690  -57.5990   34.5630 C   0  0  0  0  0  3  0  0  0  0  0  0
   11.5260  -59.5660   38.6830 N   0  0  0  0  0  0  0  0  0  0  0  0
   11.7780  -60.3890   39.8500 C   0  0  0  0  0  2  0  0  0  0  0  0
   10.5460  -61.2050   40.1670 C   0  0  0  0  0  2  0  0  0  0  0  0
    9.3860  -60.4850   40.2070 O   0  0  0  0  0  0  0  0  0  0  0  0
    9.2160  -59.5350   39.2360 C   0  0  0  0  0  2  0  0  0  0  0  0
   10.2190  -59.6400   38.0990 C   0  0  0  0  0  2  0  0  0  0  0  0
  1  6  1  0  0  0  0
  1  7  1  0  0  0  0
  2  1  2  0  0  0  0
  3  4  1  0  0  0  0
  3  2  2  0  0  0  0
  4  5  2  0  0  0  0
  5 25  1  0  0  0  0
  5  6  1  0  0  0  0
  7  8  1  0  0  0  0
  9  7  1  0  0  0  0
 10  9  2  0  0  0  0
 11 18  1  0  0  0  0
 11 10  1  0  0  0  0
 12 11  2  0  0  0  0
 13 14  2  0  0  0  0
 13 12  1  0  0  0  0
 14 17  1  0  0  0  0
 15 13  1  0  0  0  0
 16 14  1  0  0  0  0
 17 18  2  0  0  0  0
 19  3  1  0  0  0  0
 20 19  1  0  0  0  0
 21 20  1  0  0  0  0
 22 23  1  0  0  0  0
 22 21  1  0  0  0  0
 23 24  2  0  0  0  0
 24 19  1  0  0  0  0
 25 26  1  0  0  0  0
 26 27  1  0  0  0  0
 27 28  1  0  0  0  0
 29 28  1  0  0  0  0
 30 25  1  0  0  0  0
 30 29  1  0  0  0  0
M  END
>  <Pose>
1

>  <Score>
-9.581

$$$$
