MODEL 1
REMARK VINA RESULT:    -9.581      0.000      0.000
REMARK INTER + INTRA:         -13.145
REMARK INTER:                 -12.381
REMARK INTRA:                  -0.763
REMARK UNBOUND:                -0.763
REMARK  5 active torsions:
REMARK  status: ('A' for Active; 'I' for Inactive)
REMARK    1  A    between atoms: C_5  and  C_8 
REMARK    2  A    between atoms: N_9  and  N_10 
REMARK    3  A    between atoms: N_10  and  C_11 
REMARK    4  A    between atoms: C_13  and  N_23 
REMARK    5  A    between atoms: C_15  and  N_17 
ROOT
ATOM      1  C   UNK d   1      14.211 -57.068  38.500  0.00  0.00     0.774 A 
ATOM      2  N   UNK d   1      14.544 -57.199  37.197  0.00  0.00     0.133 NA
ATOM      3  C   UNK d   1      13.925 -58.073  36.365  0.00  0.00     0.756 A 
ATOM      4  N   UNK d   1      12.954 -58.817  36.899  0.00  0.00     0.131 NA
ATOM      5  C   UNK d   1      12.570 -58.740  38.185  0.00  0.00     0.756 A 
ATOM      6  N   UNK d   1      13.221 -57.854  38.959  0.00  0.00     0.133 NA
ENDROOT
BRANCH   1   7
ATOM      7  N   UNK d   1      14.898 -56.136  39.311  0.00  0.00    -0.105 N 
ATOM      8  H   UNK d   1      14.635 -56.039  40.305  0.00  0.00     0.208 HD
BRANCH   7   9
ATOM      9  N   UNK d   1      15.915 -55.352  38.784  0.00  0.00    -0.172 NA
ATOM     10  C   UNK d   1      15.742 -54.161  38.334  0.00  0.00     0.150 C 
BRANCH  10  11
ATOM     11  C   UNK d   1      16.859 -53.398  37.795  0.00  0.00    -0.016 A 
ATOM     12  C   UNK d   1      17.741 -53.933  36.871  0.00  0.00     0.035 A 
ATOM     13  C   UNK d   1      18.798 -53.207  36.364  0.00  0.00     0.050 A 
ATOM     14  C   UNK d   1      19.018 -51.905  36.764  0.00  0.00     0.133 A 
ATOM     15 Br   UNK d   1      19.998 -53.971  35.089  0.00  0.00    -0.048 Br
ATOM     16  F   UNK d   1      20.055 -51.170  36.276  0.00  0.00    -0.205 F 
ATOM     17  C   UNK d   1      18.150 -51.361  37.682  0.00  0.00     0.044 A 
ATOM     18  C   UNK d   1      17.088 -52.096  38.190  0.00  0.00     0.016 A 
ENDBRANCH  10  11
ENDBRANCH   7   9
ENDBRANCH   1   7
BRANCH   3  19
ATOM     19  N   UNK d   1      14.316 -58.170  35.000  0.00  0.00    -0.209 N 
ATOM     20  C   UNK d   1      13.531 -58.818  33.976  0.00  0.00     0.167 C 
ATOM     21  C   UNK d   1      14.495 -59.829  33.359  0.00  0.00     0.188 C 
ATOM     22  O   UNK d   1      15.468 -59.167  32.706  0.00  0.00    -0.388 OA
ATOM     23  C   UNK d   1      16.083 -58.127  33.283  0.00  0.00     0.188 C 
ATOM     24  C   UNK d   1      15.569 -57.599  34.563  0.00  0.00     0.167 C 
ENDBRANCH   3  19
BRANCH   5  25
ATOM     25  N   UNK d   1      11.526 -59.566  38.683  0.00  0.00    -0.209 N 
ATOM     26  C   UNK d   1      11.778 -60.389  39.850  0.00  0.00     0.167 C 
ATOM     27  C   UNK d   1      10.546 -61.205  40.167  0.00  0.00     0.188 C 
ATOM     28  O   UNK d   1       9.386 -60.485  40.207  0.00  0.00    -0.388 OA
ATOM     29  C   UNK d   1       9.216 -59.535  39.236  0.00  0.00     0.188 C 
ATOM     30  C   UNK d   1      10.219 -59.640  38.099  0.00  0.00     0.167 C 
ENDBRANCH   5  25
TORSDOF 5
ENDMDL
