/Users/jonathanwahrer/Desktop/Msc/3_Semester/Drug_Design_Praktikum/waehrer_HTS_screening/HTS_experiment/out/docking_results/vina_output/6s1j/0873_docked.pdbqt
 OpenBabel03222221403D

 32 35  0  0  1  0  0  0  0  0999 V2000
   16.7260  -55.7110   34.5300 C   0  0  2  0  0  3  0  0  0  0  0  0
   16.0320  -56.9360   34.8980 N   0  0  0  0  0  0  0  0  0  0  0  0
   17.1330  -57.8580   35.0390 C   0  0  0  0  0  0  0  0  0  0  0  0
   17.2330  -58.8490   35.8090 O   0  0  0  0  0  0  0  0  0  0  0  0
   18.2130  -57.4590   34.0930 C   0  0  0  0  0  0  0  0  0  0  0  0
   19.3220  -57.9320   33.8540 O   0  0  0  0  0  0  0  0  0  0  0  0
   17.6150  -56.2600   33.4340 C   0  0  0  0  0  0  0  0  0  0  0  0
   17.8440  -55.8320   32.2170 C   0  0  0  0  0  0  0  0  0  0  0  0
   17.1940  -54.6670   31.7640 O   0  0  0  0  0  1  0  0  0  0  0  0
   14.6910  -57.2840   35.0970 C   0  0  0  0  0  2  0  0  0  0  0  0
   13.8030  -57.5660   33.9380 C   0  0  0  0  0  2  0  0  0  0  0  0
   13.2610  -58.8950   33.9200 N   0  0  0  0  0  4  0  0  0  0  0  0
   12.6030  -59.1500   35.1850 C   0  0  0  0  0  2  0  0  0  0  0  0
   11.9110  -60.5010   35.1690 C   0  0  0  0  0  2  0  0  0  0  0  0
   12.8510  -61.4860   34.9290 O   0  0  0  0  0  0  0  0  0  0  0  0
   13.5250  -61.2390   33.7370 C   0  0  0  0  0  2  0  0  0  0  0  0
   14.3160  -59.9270   33.8430 C   0  0  0  0  0  2  0  0  0  0  0  0
   12.6670  -59.1030   33.0920 H   0  0  0  0  0  0  0  0  0  0  0  0
   17.5910  -55.1540   35.5820 C   0  0  0  0  0  0  0  0  0  0  0  0
   17.2010  -55.0550   36.9020 C   0  0  0  0  0  0  0  0  0  0  0  0
   16.0190  -55.4850   37.3180 F   0  0  0  0  0  0  0  0  0  0  0  0
   18.0410  -54.4930   37.8680 C   0  0  0  0  0  3  0  0  0  0  0  0
   19.2720  -54.0250   37.5430 C   0  0  0  0  0  3  0  0  0  0  0  0
   19.6930  -54.1050   36.2470 C   0  0  0  0  0  3  0  0  0  0  0  0
   18.8430  -54.6650   35.3060 C   0  0  0  0  0  3  0  0  0  0  0  0
   18.7490  -56.5280   31.3140 C   0  0  0  0  0  0  0  0  0  0  0  0
   19.9910  -55.9850   31.0640 C   0  0  0  0  0  3  0  0  0  0  0  0
   20.8900  -56.5790   30.1940 C   0  0  0  0  0  3  0  0  0  0  0  0
   20.5520  -57.7500   29.5530 C   0  0  0  0  0  0  0  0  0  0  0  0
   19.3300  -58.3040   29.7850 C   0  0  0  0  0  3  0  0  0  0  0  0
   21.7840  -58.6010   28.3380 Br  0  0  0  0  0  0  0  0  0  0  0  0
   18.4250  -57.6920   30.6690 C   0  0  0  0  0  3  0  0  0  0  0  0
  1  2  1  0  0  0  0
  1 19  1  1  0  0  0
  2  3  1  0  0  0  0
  2 10  1  0  0  0  0
  3  4  2  0  0  0  0
  5  3  1  0  0  0  0
  6  5  2  0  0  0  0
  7  5  1  0  0  0  0
  7  1  1  0  0  0  0
  8  7  2  0  0  0  0
  9  8  1  0  0  0  0
 11 10  1  0  0  0  0
 12 11  1  0  0  0  0
 12 13  1  0  0  0  0
 14 13  1  0  0  0  0
 15 14  1  0  0  0  0
 16 17  1  0  0  0  0
 16 15  1  0  0  0  0
 17 12  1  0  0  0  0
 18 12  1  0  0  0  0
 19 20  1  0  0  0  0
 20 21  1  0  0  0  0
 20 22  2  0  0  0  0
 23 22  1  0  0  0  0
 24 23  2  0  0  0  0
 25 19  2  0  0  0  0
 25 24  1  0  0  0  0
 26  8  1  0  0  0  0
 27 26  1  0  0  0  0
 28 27  2  0  0  0  0
 29 30  2  0  0  0  0
 29 28  1  0  0  0  0
 30 32  1  0  0  0  0
 31 29  1  0  0  0  0
 32 26  2  0  0  0  0
M  END
>  <Pose>
1

>  <Score>
-8.540

$$$$
