/Users/jonathanwahrer/Desktop/Msc/3_Semester/Drug_Design_Praktikum/waehrer_HTS_screening/HTS_experiment/out/docking_results/vina_output/6s1j/0874_docked.pdbqt
 OpenBabel03222221403D

 31 34  0  0  0  0  0  0  0  0999 V2000
   14.3640  -57.6360   37.6030 N   0  0  0  0  0  0  0  0  0  0  0  0
   13.1380  -58.1090   37.5390 N   0  0  0  0  0  0  0  0  0  0  0  0
   12.8280  -58.4160   36.2880 N   0  0  0  0  0  0  0  0  0  0  0  0
   13.8950  -58.1300   35.5100 C   0  0  0  0  0  0  0  0  0  0  0  0
   14.8190  -57.6570   36.3210 C   0  0  0  0  0  0  0  0  0  0  0  0
   15.9140  -57.3620   35.5250 C   0  0  0  0  0  0  0  0  0  0  0  0
   16.9890  -56.8910   35.9540 O   0  0  0  0  0  0  0  0  0  0  0  0
   15.6630  -57.6520   34.2360 N   0  0  0  0  0  0  0  0  0  0  0  0
   14.4060  -58.1310   34.2250 C   0  0  0  0  0  0  0  0  0  0  0  0
   13.7810  -58.5200   33.2140 O   0  0  0  0  0  0  0  0  0  0  0  0
   12.5170  -58.2180   38.3820 H   0  0  0  0  0  0  0  0  0  0  0  0
   11.9150  -58.8130   35.9560 H   0  0  0  0  0  0  0  0  0  0  0  0
   15.1020  -57.1800   38.7660 C   0  0  0  0  0  2  0  0  0  0  0  0
   15.3930  -55.7240   38.6330 C   0  0  0  0  0  0  0  0  0  0  0  0
   16.6540  -55.2690   38.2600 N   0  0  0  0  0  0  0  0  0  0  0  0
   17.3860  -56.0330   38.0780 H   0  0  0  0  0  0  0  0  0  0  0  0
   14.4500  -54.9540   38.8740 O   0  0  0  0  0  0  0  0  0  0  0  0
   17.0860  -53.9230   38.0900 C   0  0  0  0  0  0  0  0  0  0  0  0
   18.2340  -53.6580   37.3270 C   0  0  0  0  0  0  0  0  0  0  0  0
   18.8970  -54.7140   36.7720 F   0  0  0  0  0  0  0  0  0  0  0  0
   18.7020  -52.3850   37.1260 C   0  0  0  0  0  3  0  0  0  0  0  0
   18.0580  -51.2990   37.6720 C   0  0  0  0  0  3  0  0  0  0  0  0
   16.9420  -51.5510   38.4140 C   0  0  0  0  0  3  0  0  0  0  0  0
   16.4540  -52.8300   38.6270 C   0  0  0  0  0  3  0  0  0  0  0  0
   16.5540  -57.4820   33.1330 C   0  0  0  0  0  0  0  0  0  0  0  0
   16.8220  -56.2290   32.6170 C   0  0  0  0  0  3  0  0  0  0  0  0
   17.6810  -56.0460   31.5520 C   0  0  0  0  0  3  0  0  0  0  0  0
   18.3120  -57.1180   30.9550 C   0  0  0  0  0  0  0  0  0  0  0  0
   18.0600  -58.3790   31.4540 C   0  0  0  0  0  3  0  0  0  0  0  0
   19.5080  -56.8950   29.4790 Br  0  0  0  0  0  0  0  0  0  0  0  0
   17.1970  -58.5400   32.5200 C   0  0  0  0  0  3  0  0  0  0  0  0
  1 13  1  0  0  0  0
  2  1  1  0  0  0  0
  2 11  1  0  0  0  0
  3  2  1  0  0  0  0
  4  3  1  0  0  0  0
  4  5  2  0  0  0  0
  5  1  1  0  0  0  0
  6  7  2  0  0  0  0
  6  5  1  0  0  0  0
  8  6  1  0  0  0  0
  9  8  1  0  0  0  0
  9  4  1  0  0  0  0
 10  9  2  0  0  0  0
 12  3  1  0  0  0  0
 14 13  1  0  0  0  0
 14 17  2  0  0  0  0
 15 14  1  0  0  0  0
 16 15  1  0  0  0  0
 18 15  1  0  0  0  0
 18 24  1  0  0  0  0
 19 18  2  0  0  0  0
 20 19  1  0  0  0  0
 21 19  1  0  0  0  0
 21 22  2  0  0  0  0
 22 23  1  0  0  0  0
 23 24  2  0  0  0  0
 25  8  1  0  0  0  0
 26 25  1  0  0  0  0
 27 26  2  0  0  0  0
 28 29  2  0  0  0  0
 28 27  1  0  0  0  0
 29 31  1  0  0  0  0
 30 28  1  0  0  0  0
 31 25  2  0  0  0  0
M  END
>  <Pose>
1

>  <Score>
-9.961

$$$$
