MODEL 1
REMARK VINA RESULT:    -9.698      0.000      0.000
REMARK INTER + INTRA:         -12.963
REMARK INTER:                 -11.966
REMARK INTRA:                  -0.996
REMARK UNBOUND:                -0.996
REMARK  4 active torsions:
REMARK  status: ('A' for Active; 'I' for Inactive)
REMARK    1  A    between atoms: C_5  and  N_8 
REMARK    2  A    between atoms: N_15  and  C_16 
REMARK    3  A    between atoms: C_16  and  C_17 
REMARK       I    between atoms: C_17  and  N_19 
REMARK    4  A    between atoms: N_19  and  C_20 
ROOT
ATOM      1  N   UNK d   1      19.063 -54.464  34.716  0.00  0.00    -0.241 N 
ATOM      2  C   UNK d   1      18.822 -55.599  34.038  0.00  0.00     0.286 A 
ATOM      3  O   UNK d   1      18.221 -56.570  34.573  0.00  0.00    -0.265 OA
ATOM      4  C   UNK d   1      19.304 -55.547  32.744  0.00  0.00     0.155 A 
ATOM      5  C   UNK d   1      19.855 -54.341  32.634  0.00  0.00     0.152 A 
ATOM      6  N   UNK d   1      20.339 -54.248  31.393  0.00  0.00    -0.279 N 
ATOM      7  N   UNK d   1      20.087 -55.378  30.760  0.00  0.00    -0.239 N 
ATOM      8  N   UNK d   1      19.443 -56.212  31.571  0.00  0.00    -0.261 N 
ATOM      9  C   UNK d   1      19.715 -53.669  33.830  0.00  0.00     0.286 A 
ATOM     10  O   UNK d   1      20.099 -52.504  34.137  0.00  0.00    -0.265 OA
ATOM     11  H   UNK d   1      20.835 -53.392  31.019  0.00  0.00     0.189 HD
ATOM     12  H   UNK d   1      20.341 -55.601  29.787  0.00  0.00     0.208 HD
ENDROOT
BRANCH   8  13
ATOM     13  C   UNK d   1      18.968 -57.541  31.315  0.00  0.00     0.254 C 
BRANCH  13  14
ATOM     14  C   UNK d   1      17.571 -57.797  31.683  0.00  0.00     0.242 C 
ATOM     15  O   UNK d   1      16.691 -57.288  30.972  0.00  0.00    -0.271 OA
ATOM     16  N   UNK d   1      17.259 -58.587  32.793  0.00  0.00    -0.326 N 
ATOM     17  H   UNK d   1      18.081 -59.000  33.366  0.00  0.00     0.169 HD
BRANCH  16  18
ATOM     18  C   UNK d   1      15.991 -58.946  33.306  0.00  0.00     0.034 A 
ATOM     19  C   UNK d   1      15.120 -58.014  33.816  0.00  0.00     0.031 A 
ATOM     20  C   UNK d   1      13.860 -58.331  34.333  0.00  0.00     0.021 A 
ATOM     21  C   UNK d   1      13.506 -59.657  34.313  0.00  0.00     0.011 A 
ATOM     22  C   UNK d   1      14.357 -60.608  33.808  0.00  0.00     0.021 A 
ATOM     23 Br   UNK d   1      11.781 -60.166  35.008  0.00  0.00    -0.051 Br
ATOM     24  C   UNK d   1      15.588 -60.270  33.307  0.00  0.00     0.031 A 
ENDBRANCH  16  18
ENDBRANCH  13  14
ENDBRANCH   8  13
BRANCH   1  25
ATOM     25  C   UNK d   1      18.727 -54.144  36.065  0.00  0.00     0.046 A 
ATOM     26  C   UNK d   1      19.595 -54.262  37.127  0.00  0.00     0.033 A 
ATOM     27  C   UNK d   1      19.210 -53.941  38.431  0.00  0.00     0.044 A 
ATOM     28  C   UNK d   1      17.944 -53.497  38.686  0.00  0.00     0.116 A 
ATOM     29  F   UNK d   1      17.577 -53.187  39.965  0.00  0.00    -0.206 F 
ATOM     30  C   UNK d   1      17.060 -53.372  37.639  0.00  0.00     0.044 A 
ATOM     31  C   UNK d   1      17.450 -53.691  36.358  0.00  0.00     0.033 A 
ENDBRANCH   1  25
TORSDOF 4
ENDMDL
