/Users/jonathanwahrer/Desktop/Msc/3_Semester/Drug_Design_Praktikum/waehrer_HTS_screening/HTS_experiment/out/docking_results/vina_output/6s1j/0886_docked.pdbqt
 OpenBabel03222221403D

 31 34  0  0  0  0  0  0  0  0999 V2000
   19.0630  -54.4640   34.7160 N   0  0  0  0  0  0  0  0  0  0  0  0
   18.8220  -55.5990   34.0380 C   0  0  0  0  0  0  0  0  0  0  0  0
   18.2210  -56.5700   34.5730 O   0  0  0  0  0  0  0  0  0  0  0  0
   19.3040  -55.5470   32.7440 C   0  0  0  0  0  0  0  0  0  0  0  0
   19.8550  -54.3410   32.6340 C   0  0  0  0  0  0  0  0  0  0  0  0
   20.3390  -54.2480   31.3930 N   0  0  0  0  0  0  0  0  0  0  0  0
   20.0870  -55.3780   30.7600 N   0  0  0  0  0  0  0  0  0  0  0  0
   19.4430  -56.2120   31.5710 N   0  0  0  0  0  0  0  0  0  0  0  0
   19.7150  -53.6690   33.8300 C   0  0  0  0  0  0  0  0  0  0  0  0
   20.0990  -52.5040   34.1370 O   0  0  0  0  0  0  0  0  0  0  0  0
   20.8350  -53.3920   31.0190 H   0  0  0  0  0  0  0  0  0  0  0  0
   20.3410  -55.6010   29.7870 H   0  0  0  0  0  0  0  0  0  0  0  0
   18.9680  -57.5410   31.3150 C   0  0  0  0  0  2  0  0  0  0  0  0
   17.5710  -57.7970   31.6830 C   0  0  0  0  0  0  0  0  0  0  0  0
   16.6910  -57.2880   30.9720 O   0  0  0  0  0  0  0  0  0  0  0  0
   17.2590  -58.5870   32.7930 N   0  0  0  0  0  0  0  0  0  0  0  0
   18.0810  -59.0000   33.3660 H   0  0  0  0  0  0  0  0  0  0  0  0
   15.9910  -58.9460   33.3060 C   0  0  0  0  0  0  0  0  0  0  0  0
   15.1200  -58.0140   33.8160 C   0  0  0  0  0  3  0  0  0  0  0  0
   13.8600  -58.3310   34.3330 C   0  0  0  0  0  3  0  0  0  0  0  0
   13.5060  -59.6570   34.3130 C   0  0  0  0  0  0  0  0  0  0  0  0
   14.3570  -60.6080   33.8080 C   0  0  0  0  0  3  0  0  0  0  0  0
   11.7810  -60.1660   35.0080 Br  0  0  0  0  0  0  0  0  0  0  0  0
   15.5880  -60.2700   33.3070 C   0  0  0  0  0  3  0  0  0  0  0  0
   18.7270  -54.1440   36.0650 C   0  0  0  0  0  0  0  0  0  0  0  0
   19.5950  -54.2620   37.1270 C   0  0  0  0  0  3  0  0  0  0  0  0
   19.2100  -53.9410   38.4310 C   0  0  0  0  0  3  0  0  0  0  0  0
   17.9440  -53.4970   38.6860 C   0  0  0  0  0  0  0  0  0  0  0  0
   17.5770  -53.1870   39.9650 F   0  0  0  0  0  0  0  0  0  0  0  0
   17.0600  -53.3720   37.6390 C   0  0  0  0  0  3  0  0  0  0  0  0
   17.4500  -53.6910   36.3580 C   0  0  0  0  0  3  0  0  0  0  0  0
  1 25  1  0  0  0  0
  2  3  2  0  0  0  0
  2  1  1  0  0  0  0
  4  2  1  0  0  0  0
  5  4  2  0  0  0  0
  5  9  1  0  0  0  0
  6  5  1  0  0  0  0
  7  6  1  0  0  0  0
  7  8  1  0  0  0  0
  8  4  1  0  0  0  0
  9 10  2  0  0  0  0
  9  1  1  0  0  0  0
 11  6  1  0  0  0  0
 12  7  1  0  0  0  0
 13  8  1  0  0  0  0
 13 14  1  0  0  0  0
 14 16  1  0  0  0  0
 15 14  2  0  0  0  0
 16 18  1  0  0  0  0
 16 17  1  0  0  0  0
 18 24  2  0  0  0  0
 18 19  1  0  0  0  0
 19 20  2  0  0  0  0
 21 20  1  0  0  0  0
 21 23  1  0  0  0  0
 22 21  2  0  0  0  0
 24 22  1  0  0  0  0
 25 31  2  0  0  0  0
 25 26  1  0  0  0  0
 26 27  2  0  0  0  0
 27 28  1  0  0  0  0
 28 29  1  0  0  0  0
 30 28  2  0  0  0  0
 31 30  1  0  0  0  0
M  END
>  <Pose>
1

>  <Score>
-9.698

$$$$
