MODEL 1
REMARK VINA RESULT:    -7.914      0.000      0.000
REMARK INTER + INTRA:          -7.352
REMARK INTER:                  -8.376
REMARK INTRA:                   1.025
REMARK UNBOUND:                 1.025
REMARK  1 active torsions:
REMARK  status: ('A' for Active; 'I' for Inactive)
REMARK    1  A    between atoms: C_4  and  C_9 
ROOT
ATOM      1  C   UNK d   1      16.863 -56.147  33.425  0.00  0.00     0.222 C 
ATOM      2  N   UNK d   1      15.468 -56.399  33.143  0.00  0.00    -0.358 N 
ATOM      3  C   UNK d   1      14.878 -57.638  33.549  0.00  0.00     0.088 A 
ATOM      4  S   UNK d   1      13.247 -58.117  33.915  0.00  0.00    -0.074 SA
ATOM      5  C   UNK d   1      13.515 -59.753  34.291  0.00  0.00     0.018 A 
ATOM      6  C   UNK d   1      14.850 -59.885  34.127  0.00  0.00    -0.023 A 
ATOM      7  C   UNK d   1      15.556 -58.806  33.747  0.00  0.00     0.073 A 
ATOM      8  C   UNK d   1      17.013 -58.637  33.485  0.00  0.00     0.256 C 
ATOM      9  O   UNK d   1      17.810 -59.597  33.608  0.00  0.00    -0.267 OA
ATOM     10  N   UNK d   1      17.541 -57.388  33.089  0.00  0.00    -0.331 N 
ATOM     11  C   UNK d   1      15.384 -61.285  34.402  0.00  0.00     0.068 C 
ATOM     12  C   UNK d   1      14.257 -62.254  34.250  0.00  0.00     0.239 C 
ATOM     13  N   UNK d   1      13.279 -61.890  35.288  0.00  0.00    -0.070 N 
ATOM     14  C   UNK d   1      12.542 -60.792  34.699  0.00  0.00     0.281 C 
ATOM     15  C   UNK d   1      12.431 -63.008  35.626  0.00  0.00     0.270 C 
ATOM     16  H   UNK d   1      14.852 -55.716  32.649  0.00  0.00     0.162 HD
ATOM     17  H   UNK d   1      18.437 -57.330  32.542  0.00  0.00     0.165 HD
ATOM     18  H   UNK d   1      13.793 -61.514  36.113  0.00  0.00     0.279 HD
ENDROOT
BRANCH   1  19
ATOM     19  C   UNK d   1      16.959 -55.880  34.884  0.00  0.00     0.023 A 
ATOM     20  C   UNK d   1      17.797 -54.945  35.442  0.00  0.00     0.134 A 
ATOM     21  C   UNK d   1      17.858 -54.741  36.821  0.00  0.00     0.044 A 
ATOM     22  O   UNK d   1      18.601 -54.184  34.623  0.00  0.00    -0.190 OA
ATOM     23  I   UNK d   1      19.163 -53.293  37.612  0.00  0.00    -0.042 I 
ATOM     24  C   UNK d   1      17.084 -55.464  37.674  0.00  0.00     0.040 A 
ATOM     25  C   UNK d   1      16.237 -56.406  37.136  0.00  0.00     0.013 A 
ATOM     26  C   UNK d   1      16.171 -56.613  35.783  0.00  0.00     0.033 A 
ATOM     27 Br   UNK d   1      15.152 -57.421  38.326  0.00  0.00    -0.051 Br
ENDBRANCH   1  19
TORSDOF 1
ENDMDL
