/Users/jonathanwahrer/Desktop/Msc/3_Semester/Drug_Design_Praktikum/waehrer_HTS_screening/HTS_experiment/out/docking_results/vina_output/6s1j/0895_docked.pdbqt
 OpenBabel03222221413D

 28 31  0  0  1  0  0  0  0  0999 V2000
   17.6390  -55.2760   32.1610 C   0  0  2  0  0  3  0  0  0  0  0  0
   17.1270  -56.5320   31.6130 N   0  0  0  0  0  0  0  0  0  0  0  0
   17.8070  -57.2010   30.5210 C   0  0  0  0  0  0  0  0  0  0  0  0
   17.3430  -58.4710   29.4600 S   0  0  0  0  0  0  0  0  0  0  0  0
   18.7590  -58.5760   28.5330 C   0  0  0  0  0  0  0  0  0  0  0  0
   19.5680  -57.6130   29.0750 C   0  0  0  0  0  0  0  0  0  0  0  0
   19.0660  -56.9020   30.1080 C   0  0  0  0  0  0  0  0  0  0  0  0
   19.7390  -55.8080   30.8650 C   0  0  0  0  0  0  0  0  0  0  0  0
   20.9160  -55.4310   30.5800 O   0  0  0  0  0  0  0  0  0  0  0  0
   19.0520  -55.1780   31.9210 N   0  0  0  0  0  0  0  0  0  0  0  0
   20.9170  -57.5430   28.3690 C   0  0  0  0  0  2  0  0  0  0  0  0
   21.5040  -58.9270   28.2810 C   0  0  0  0  0  2  0  0  0  0  0  0
   20.5740  -59.9290   27.8810 N   0  0  0  0  0  4  0  0  0  0  0  0
   19.3240  -59.3670   27.3790 C   0  0  0  0  0  2  0  0  0  0  0  0
   20.2030  -60.6840   29.0880 C   0  0  0  0  0  1  0  0  0  0  0  0
   16.2710  -56.9820   31.9840 H   0  0  0  0  0  0  0  0  0  0  0  0
   19.6000  -54.5840   32.5980 H   0  0  0  0  0  0  0  0  0  0  0  0
   20.9600  -60.6110   27.1760 H   0  0  0  0  0  0  0  0  0  0  0  0
   17.4440  -55.3660   33.6340 C   0  0  0  0  0  0  0  0  0  0  0  0
   16.6160  -56.3680   34.1240 C   0  0  0  0  0  3  0  0  0  0  0  0
   16.3630  -56.5470   35.4510 C   0  0  0  0  0  0  0  0  0  0  0  0
   16.9740  -55.6720   36.3480 C   0  0  0  0  0  0  0  0  0  0  0  0
   17.8020  -54.6680   35.8880 C   0  0  0  0  0  0  0  0  0  0  0  0
   16.7430  -55.8220   37.7030 O   0  0  0  0  0  1  0  0  0  0  0  0
   18.7160  -53.3550   37.2630 I   0  0  0  0  0  0  0  0  0  0  0  0
   18.0340  -54.5170   34.5300 C   0  0  0  0  0  3  0  0  0  0  0  0
   15.5420  -57.5380   35.9710 O   0  0  0  0  0  0  0  0  0  0  0  0
   14.4390  -57.9750   35.1990 C   0  0  0  0  0  1  0  0  0  0  0  0
  1 19  1  1  0  0  0
  2 16  1  0  0  0  0
  2  1  1  0  0  0  0
  3  2  1  0  0  0  0
  4  3  1  0  0  0  0
  5  6  2  0  0  0  0
  5  4  1  0  0  0  0
  6  7  1  0  0  0  0
  7  3  2  0  0  0  0
  7  8  1  0  0  0  0
  8 10  1  0  0  0  0
  9  8  2  0  0  0  0
 10  1  1  0  0  0  0
 10 17  1  0  0  0  0
 11  6  1  0  0  0  0
 12 11  1  0  0  0  0
 13 12  1  0  0  0  0
 13 15  1  0  0  0  0
 14 13  1  0  0  0  0
 14  5  1  0  0  0  0
 18 13  1  0  0  0  0
 19 20  2  0  0  0  0
 19 26  1  0  0  0  0
 20 21  1  0  0  0  0
 21 27  1  0  0  0  0
 21 22  2  0  0  0  0
 22 24  1  0  0  0  0
 23 22  1  0  0  0  0
 23 25  1  0  0  0  0
 26 23  2  0  0  0  0
 28 27  1  0  0  0  0
M  END
>  <Pose>
1

>  <Score>
-7.654

$$$$
