MODEL 1
REMARK VINA RESULT:    -7.654      0.000      0.000
REMARK INTER + INTRA:          -8.990
REMARK INTER:                  -8.549
REMARK INTRA:                  -0.441
REMARK UNBOUND:                -0.441
REMARK  2 active torsions:
REMARK  status: ('A' for Active; 'I' for Inactive)
REMARK    1  A    between atoms: C_4  and  O_23 
REMARK    2  A    between atoms: C_6  and  C_8 
ROOT
ATOM      1  C   UNK d   1      17.639 -55.276  32.161  0.00  0.00     0.219 C 
ATOM      2  N   UNK d   1      17.127 -56.532  31.613  0.00  0.00    -0.358 N 
ATOM      3  C   UNK d   1      17.807 -57.201  30.521  0.00  0.00     0.088 A 
ATOM      4  S   UNK d   1      17.343 -58.471  29.460  0.00  0.00    -0.074 SA
ATOM      5  C   UNK d   1      18.759 -58.576  28.533  0.00  0.00     0.018 A 
ATOM      6  C   UNK d   1      19.568 -57.613  29.075  0.00  0.00    -0.023 A 
ATOM      7  C   UNK d   1      19.066 -56.902  30.108  0.00  0.00     0.073 A 
ATOM      8  C   UNK d   1      19.739 -55.808  30.865  0.00  0.00     0.256 C 
ATOM      9  O   UNK d   1      20.916 -55.431  30.580  0.00  0.00    -0.267 OA
ATOM     10  N   UNK d   1      19.052 -55.178  31.921  0.00  0.00    -0.332 N 
ATOM     11  C   UNK d   1      20.917 -57.543  28.369  0.00  0.00     0.068 C 
ATOM     12  C   UNK d   1      21.504 -58.927  28.281  0.00  0.00     0.239 C 
ATOM     13  N   UNK d   1      20.574 -59.929  27.881  0.00  0.00    -0.070 N 
ATOM     14  C   UNK d   1      19.324 -59.367  27.379  0.00  0.00     0.281 C 
ATOM     15  C   UNK d   1      20.203 -60.684  29.088  0.00  0.00     0.270 C 
ATOM     16  H   UNK d   1      16.271 -56.982  31.984  0.00  0.00     0.162 HD
ATOM     17  H   UNK d   1      19.600 -54.584  32.598  0.00  0.00     0.165 HD
ATOM     18  H   UNK d   1      20.960 -60.611  27.176  0.00  0.00     0.279 HD
ENDROOT
BRANCH   1  19
ATOM     19  C   UNK d   1      17.444 -55.366  33.634  0.00  0.00    -0.012 A 
ATOM     20  C   UNK d   1      16.616 -56.368  34.124  0.00  0.00     0.050 A 
ATOM     21  C   UNK d   1      16.363 -56.547  35.451  0.00  0.00     0.106 A 
ATOM     22  C   UNK d   1      16.974 -55.672  36.348  0.00  0.00     0.157 A 
ATOM     23  C   UNK d   1      17.802 -54.668  35.888  0.00  0.00     0.046 A 
ATOM     24  O   UNK d   1      16.743 -55.822  37.703  0.00  0.00    -0.188 OA
ATOM     25  I   UNK d   1      18.716 -53.355  37.263  0.00  0.00    -0.041 I 
ATOM     26  C   UNK d   1      18.034 -54.517  34.530  0.00  0.00     0.032 A 
BRANCH  21  27
ATOM     27  O   UNK d   1      15.542 -57.538  35.971  0.00  0.00    -0.353 OA
ATOM     28  C   UNK d   1      14.439 -57.975  35.199  0.00  0.00     0.210 C 
ENDBRANCH  21  27
ENDBRANCH   1  19
TORSDOF 2
ENDMDL
