MODEL 1
REMARK VINA RESULT:    -8.953      0.000      0.000
REMARK INTER + INTRA:         -12.903
REMARK INTER:                 -12.093
REMARK INTRA:                  -0.810
REMARK UNBOUND:                -0.810
REMARK  6 active torsions:
REMARK  status: ('A' for Active; 'I' for Inactive)
REMARK    1  A    between atoms: C_3  and  N_8 
REMARK    2  A    between atoms: N_8  and  C_9 
REMARK    3  A    between atoms: C_20  and  C_21 
REMARK    4  A    between atoms: C_21  and  C_22 
REMARK    5  A    between atoms: C_22  and  O_24 
REMARK    6  A    between atoms: O_24  and  C_25 
ROOT
ATOM      1  C   UNK d   1      17.559 -55.647  35.826  0.00  0.00     0.179 A 
ATOM      2  N   UNK d   1      17.786 -55.496  34.526  0.00  0.00    -0.202 NA
ATOM      3  C   UNK d   1      17.247 -56.236  33.543  0.00  0.00     0.230 A 
ATOM      4  N   UNK d   1      17.294 -56.310  32.208  0.00  0.00    -0.081 NA
ATOM      5  O   UNK d   1      16.528 -57.271  31.778  0.00  0.00    -0.103 OA
ATOM      6  N   UNK d   1      15.957 -57.858  32.791  0.00  0.00    -0.082 NA
ATOM      7  C   UNK d   1      16.367 -57.257  33.919  0.00  0.00     0.217 A 
ATOM      8  N   UNK d   1      16.104 -57.453  35.198  0.00  0.00    -0.256 N 
ATOM      9  C   UNK d   1      16.666 -56.690  36.139  0.00  0.00     0.206 A 
ATOM     10  N   UNK d   1      16.209 -57.128  37.301  0.00  0.00    -0.126 NA
ATOM     11  N   UNK d   1      15.367 -58.156  37.091  0.00  0.00    -0.133 NA
ATOM     12  C   UNK d   1      15.285 -58.381  35.771  0.00  0.00     0.145 A 
ENDROOT
BRANCH   1  13
ATOM     13  N   UNK d   1      18.119 -54.877  36.865  0.00  0.00    -0.337 N 
ATOM     14  H   UNK d   1      18.276 -55.367  37.816  0.00  0.00     0.167 HD
BRANCH  13  15
ATOM     15  C   UNK d   1      18.512 -53.523  36.832  0.00  0.00     0.050 A 
ATOM     16  C   UNK d   1      17.777 -52.584  37.589  0.00  0.00     0.033 A 
ATOM     17  I   UNK d   1      16.137 -53.239  38.748  0.00  0.00    -0.042 I 
ATOM     18  C   UNK d   1      18.125 -51.256  37.576  0.00  0.00     0.020 A 
ATOM     19  C   UNK d   1      19.209 -50.830  36.811  0.00  0.00     0.001 A 
ATOM     20  C   UNK d   1      19.901 -51.761  36.088  0.00  0.00     0.002 A 
ATOM     21  C   UNK d   1      19.578 -53.120  36.080  0.00  0.00     0.031 A 
ENDBRANCH  13  15
ENDBRANCH   1  13
BRANCH  12  22
ATOM     22  C   UNK d   1      14.488 -59.398  35.035  0.00  0.00     0.192 C 
BRANCH  22  23
ATOM     23  C   UNK d   1      13.106 -58.952  34.736  0.00  0.00     0.266 C 
ATOM     24  O   UNK d   1      12.847 -58.001  33.969  0.00  0.00    -0.265 OA
BRANCH  23  25
ATOM     25  O   UNK d   1      12.063 -59.608  35.329  0.00  0.00    -0.322 OA
BRANCH  25  26
ATOM     26  C   UNK d   1      12.038 -60.053  36.638  0.00  0.00     0.174 C 
ATOM     27  C   UNK d   1      10.785 -59.814  37.390  0.00  0.00     0.034 C 
ENDBRANCH  25  26
ENDBRANCH  23  25
ENDBRANCH  22  23
ENDBRANCH  12  22
TORSDOF 6
ENDMDL
