MODEL 1
REMARK VINA RESULT:    -7.988      0.000      0.000
REMARK INTER + INTRA:          -9.166
REMARK INTER:                  -8.922
REMARK INTRA:                  -0.244
REMARK UNBOUND:                -0.244
REMARK  2 active torsions:
REMARK  status: ('A' for Active; 'I' for Inactive)
REMARK    1  A    between atoms: C_3  and  N_8 
REMARK    2  A    between atoms: N_15  and  C_16 
ROOT
ATOM      1  N   UNK d   1      16.683 -58.108  33.602  0.00  0.00    -0.240 N 
ATOM      2  C   UNK d   1      16.998 -57.383  34.690  0.00  0.00     0.286 A 
ATOM      3  O   UNK d   1      16.884 -57.778  35.889  0.00  0.00    -0.265 OA
ATOM      4  C   UNK d   1      17.469 -56.133  34.344  0.00  0.00     0.160 A 
ATOM      5  C   UNK d   1      17.441 -56.098  33.022  0.00  0.00     0.152 A 
ATOM      6  N   UNK d   1      17.906 -54.869  32.697  0.00  0.00    -0.278 N 
ATOM      7  N   UNK d   1      18.206 -54.184  33.786  0.00  0.00    -0.234 N 
ATOM      8  N   UNK d   1      17.944 -54.947  34.815  0.00  0.00    -0.234 N 
ATOM      9  C   UNK d   1      16.958 -57.310  32.554  0.00  0.00     0.286 A 
ATOM     10  O   UNK d   1      16.807 -57.599  31.323  0.00  0.00    -0.265 OA
ATOM     11  H   UNK d   1      18.020 -54.494  31.732  0.00  0.00     0.189 HD
ATOM     12  H   UNK d   1      18.581 -53.215  33.821  0.00  0.00     0.209 HD
ENDROOT
BRANCH   1  13
ATOM     13  C   UNK d   1      16.167 -59.438  33.532  0.00  0.00     0.062 A 
ATOM     14  C   UNK d   1      14.836 -59.711  33.776  0.00  0.00     0.034 A 
ATOM     15  I   UNK d   1      13.583 -58.075  34.260  0.00  0.00    -0.042 I 
ATOM     16  C   UNK d   1      14.316 -60.988  33.715  0.00  0.00     0.020 A 
ATOM     17  C   UNK d   1      15.123 -62.062  33.400  0.00  0.00     0.001 A 
ATOM     18  C   UNK d   1      16.454 -61.802  33.155  0.00  0.00     0.002 A 
ATOM     19  C   UNK d   1      16.967 -60.517  33.218  0.00  0.00     0.031 A 
ENDBRANCH   1  13
BRANCH   8  20
ATOM     20  C   UNK d   1      18.103 -54.650  36.196  0.00  0.00     0.058 A 
ATOM     21  C   UNK d   1      17.051 -54.704  37.083  0.00  0.00     0.031 A 
ATOM     22  C   UNK d   1      17.240 -54.409  38.423  0.00  0.00     0.002 A 
ATOM     23  C   UNK d   1      18.474 -54.051  38.924  0.00  0.00     0.000 A 
ATOM     24  C   UNK d   1      19.529 -53.997  38.038  0.00  0.00     0.002 A 
ATOM     25  C   UNK d   1      19.351 -54.287  36.707  0.00  0.00     0.031 A 
ENDBRANCH   8  20
TORSDOF 2
ENDMDL
