/Users/jonathanwahrer/Desktop/Msc/3_Semester/Drug_Design_Praktikum/waehrer_HTS_screening/HTS_experiment/out/docking_results/vina_output/6s1j/0910_docked.pdbqt
 OpenBabel03222221413D

 26 29  0  0  0  0  0  0  0  0999 V2000
   18.0840  -55.3860   34.7910 C   0  0  0  0  0  0  0  0  0  0  0  0
   19.1060  -54.5970   34.2130 C   0  0  0  0  0  0  0  0  0  0  0  0
   19.8250  -53.5950   34.7040 N   0  0  0  0  0  0  0  0  0  0  0  0
   20.6410  -53.1870   33.7800 O   0  0  0  0  0  0  0  0  0  0  0  0
   20.4850  -53.8760   32.7080 N   0  0  0  0  0  0  0  0  0  0  0  0
   19.5230  -54.7800   32.9350 C   0  0  0  0  0  0  0  0  0  0  0  0
   18.9460  -55.7620   32.1610 C   0  0  0  0  0  0  0  0  0  0  0  0
   17.9520  -56.5440   32.6910 C   0  0  0  0  0  3  0  0  0  0  0  0
   17.5180  -56.3680   33.9900 C   0  0  0  0  0  3  0  0  0  0  0  0
   17.8340  -55.1290   36.1230 N   0  0  0  0  0  0  0  0  0  0  0  0
   17.5930  -54.8800   37.4090 C   0  0  0  0  0  0  0  0  0  0  0  0
   18.4980  -54.5000   38.2590 O   0  0  0  0  0  0  0  0  0  0  0  0
   19.1740  -55.0160   36.3360 H   0  0  0  0  0  0  0  0  0  0  0  0
   16.2740  -54.9920   38.0910 C   0  0  0  0  0  0  0  0  0  0  0  0
   15.4870  -56.1230   38.1080 C   0  0  0  0  0  0  0  0  0  0  0  0
   15.9000  -57.9670   37.1270 I   0  0  0  0  0  0  0  0  0  0  0  0
   14.3850  -55.8480   38.8790 C   0  0  0  0  0  3  0  0  0  0  0  0
   14.5300  -54.5920   39.2970 N   0  0  0  0  0  0  0  0  0  0  0  0
   15.6580  -54.0690   38.8330 N   0  0  0  0  0  0  0  0  0  0  0  0
   16.1140  -52.7070   39.1710 C   0  0  0  0  0  1  0  0  0  0  0  0
   19.4010  -55.9150   30.8420 N   0  0  0  0  0  0  0  0  0  0  0  0
   18.5080  -56.2420   29.7300 C   0  0  0  0  0  2  0  0  0  0  0  0
   18.9960  -57.5880   29.2330 C   0  0  0  0  0  2  0  0  0  0  0  0
   20.1060  -58.0640   29.9140 O   0  0  0  0  0  0  0  0  0  0  0  0
   21.1760  -57.1960   29.9750 C   0  0  0  0  0  2  0  0  0  0  0  0
   20.7610  -55.7890   30.3680 C   0  0  0  0  0  2  0  0  0  0  0  0
  1 10  1  0  0  0  0
  2  3  2  0  0  0  0
  2  1  1  0  0  0  0
  4  3  1  0  0  0  0
  5  6  2  0  0  0  0
  5  4  1  0  0  0  0
  6  2  1  0  0  0  0
  7  8  2  0  0  0  0
  7  6  1  0  0  0  0
  8  9  1  0  0  0  0
  9  1  2  0  0  0  0
 10 13  1  0  0  0  0
 10 11  1  0  0  0  0
 11 14  1  0  0  0  0
 11 12  2  0  0  0  0
 14 15  2  0  0  0  0
 14 19  1  0  0  0  0
 15 17  1  0  0  0  0
 16 15  1  0  0  0  0
 17 18  2  0  0  0  0
 19 20  1  0  0  0  0
 19 18  1  0  0  0  0
 21  7  1  0  0  0  0
 22 21  1  0  0  0  0
 23 22  1  0  0  0  0
 23 24  1  0  0  0  0
 24 25  1  0  0  0  0
 25 26  1  0  0  0  0
 26 21  1  0  0  0  0
M  END
>  <Pose>
1

>  <Score>
-8.605

$$$$
