/Users/jonathanwahrer/Desktop/Msc/3_Semester/Drug_Design_Praktikum/waehrer_HTS_screening/HTS_experiment/out/docking_results/vina_output/6s1j/0920_docked.pdbqt
 OpenBabel03222221413D

 24 27  0  0  1  0  0  0  0  0999 V2000
   17.4300  -56.9160   32.6720 N   0  0  0  0  0  0  0  0  0  0  0  0
   17.2690  -56.7350   33.9460 C   0  0  1  0  0  3  0  0  0  0  0  0
   16.7980  -57.6300   35.4340 S   0  0  0  0  0  0  0  0  0  0  0  0
   16.9870  -56.2130   36.4910 C   0  0  0  0  0  3  0  0  0  0  0  0
   17.3690  -55.1880   35.7620 C   0  0  0  0  0  0  0  0  0  0  0  0
   17.5340  -55.4340   34.3770 N   0  0  0  0  0  0  0  0  0  0  0  0
   17.9350  -54.6720   33.1670 C   0  0  0  0  0  3  0  0  0  0  0  0
   17.7950  -55.6650   32.0670 C   0  0  0  0  0  3  0  0  0  0  0  0
   17.2350  -58.1360   31.9830 C   0  0  0  0  0  2  0  0  0  0  0  0
   17.8940  -58.4190   30.7350 C   0  0  1  0  0  3  0  0  0  0  0  0
   17.3480  -59.4160   30.0900 O   0  0  0  0  0  1  0  0  0  0  0  0
   19.0200  -57.8330   30.0590 C   0  0  0  0  0  0  0  0  0  0  0  0
   20.2760  -57.8370   30.5830 C   0  0  0  0  0  3  0  0  0  0  0  0
   21.3240  -57.2550   29.9200 C   0  0  0  0  0  3  0  0  0  0  0  0
   21.1820  -56.6340   28.6950 C   0  0  0  0  0  0  0  0  0  0  0  0
   22.7410  -55.7340   27.6490 I   0  0  0  0  0  0  0  0  0  0  0  0
   19.8910  -56.6340   28.1650 C   0  0  0  0  0  3  0  0  0  0  0  0
   18.8570  -57.2100   28.8230 C   0  0  0  0  0  3  0  0  0  0  0  0
   17.5830  -53.8820   36.4530 C   0  0  0  0  0  0  0  0  0  0  0  0
   16.6540  -53.3440   37.3050 C   0  0  0  0  0  3  0  0  0  0  0  0
   16.8640  -52.1160   37.9620 C   0  0  0  0  0  3  0  0  0  0  0  0
   18.0300  -51.4140   37.7600 C   0  0  0  0  0  3  0  0  0  0  0  0
   18.9630  -51.9480   36.9080 C   0  0  0  0  0  3  0  0  0  0  0  0
   18.7480  -53.1600   36.2650 C   0  0  0  0  0  3  0  0  0  0  0  0
  1  2  1  0  0  0  0
  2  6  1  0  0  0  0
  2  3  1  1  0  0  0
  3  4  1  0  0  0  0
  5 19  1  0  0  0  0
  5  4  2  0  0  0  0
  6  5  1  0  0  0  0
  7  6  1  0  0  0  0
  8  1  1  0  0  0  0
  8  7  2  0  0  0  0
  9  1  1  0  0  0  0
 10 11  1  6  0  0  0
 10  9  1  0  0  0  0
 12 13  1  0  0  0  0
 12 10  1  0  0  0  0
 14 13  2  0  0  0  0
 15 14  1  0  0  0  0
 16 15  1  0  0  0  0
 17 15  2  0  0  0  0
 17 18  1  0  0  0  0
 18 12  2  0  0  0  0
 19 20  1  0  0  0  0
 20 21  2  0  0  0  0
 22 21  1  0  0  0  0
 23 22  2  0  0  0  0
 24 19  2  0  0  0  0
 24 23  1  0  0  0  0
M  END
>  <Pose>
1

>  <Score>
-8.505

$$$$
