MODEL 1
REMARK VINA RESULT:    -8.505      0.000      0.000
REMARK INTER + INTRA:         -10.195
REMARK INTER:                  -9.996
REMARK INTRA:                  -0.199
REMARK UNBOUND:                -0.199
REMARK  3 active torsions:
REMARK  status: ('A' for Active; 'I' for Inactive)
REMARK    1  A    between atoms: C_5  and  C_8 
REMARK    2  A    between atoms: C_10  and  N_11 
REMARK    3  A    between atoms: C_15  and  C_19 
ROOT
ATOM      1  N   UNK d   1      17.430 -56.916  32.672  0.00  0.00    -0.353 N 
ATOM      2  C   UNK d   1      17.269 -56.735  33.946  0.00  0.00     0.149 A 
ATOM      3  S   UNK d   1      16.798 -57.630  35.434  0.00  0.00    -0.063 SA
ATOM      4  C   UNK d   1      16.987 -56.213  36.491  0.00  0.00     0.083 A 
ATOM      5  C   UNK d   1      17.369 -55.188  35.762  0.00  0.00     0.053 A 
ATOM      6  N   UNK d   1      17.534 -55.434  34.377  0.00  0.00    -0.325 N 
ATOM      7  C   UNK d   1      17.935 -54.672  33.167  0.00  0.00     0.151 A 
ATOM      8  C   UNK d   1      17.795 -55.665  32.067  0.00  0.00     0.145 A 
ENDROOT
BRANCH   1   9
ATOM      9  C   UNK d   1      17.235 -58.136  31.983  0.00  0.00     0.193 C 
ATOM     10  C   UNK d   1      17.894 -58.419  30.735  0.00  0.00     0.112 C 
ATOM     11  O   UNK d   1      17.348 -59.416  30.090  0.00  0.00    -0.194 OA
BRANCH  10  12
ATOM     12  C   UNK d   1      19.020 -57.833  30.059  0.00  0.00    -0.002 A 
ATOM     13  C   UNK d   1      20.276 -57.837  30.583  0.00  0.00     0.015 A 
ATOM     14  C   UNK d   1      21.324 -57.255  29.920  0.00  0.00     0.019 A 
ATOM     15  C   UNK d   1      21.182 -56.634  28.695  0.00  0.00     0.006 A 
ATOM     16  I   UNK d   1      22.741 -55.734  27.649  0.00  0.00    -0.045 I 
ATOM     17  C   UNK d   1      19.891 -56.634  28.165  0.00  0.00     0.019 A 
ATOM     18  C   UNK d   1      18.857 -57.210  28.823  0.00  0.00     0.015 A 
ENDBRANCH  10  12
ENDBRANCH   1   9
BRANCH   5  19
ATOM     19  C   UNK d   1      17.583 -53.882  36.453  0.00  0.00    -0.009 A 
ATOM     20  C   UNK d   1      16.654 -53.344  37.305  0.00  0.00     0.014 A 
ATOM     21  C   UNK d   1      16.864 -52.116  37.962  0.00  0.00     0.001 A 
ATOM     22  C   UNK d   1      18.030 -51.414  37.760  0.00  0.00     0.000 A 
ATOM     23  C   UNK d   1      18.963 -51.948  36.908  0.00  0.00     0.001 A 
ATOM     24  C   UNK d   1      18.748 -53.160  36.265  0.00  0.00     0.014 A 
ENDBRANCH   5  19
TORSDOF 3
ENDMDL
