MODEL 1
REMARK VINA RESULT:    -8.663      0.000      0.000
REMARK INTER + INTRA:         -12.205
REMARK INTER:                 -11.195
REMARK INTRA:                  -1.010
REMARK UNBOUND:                -1.010
REMARK  5 active torsions:
REMARK  status: ('A' for Active; 'I' for Inactive)
REMARK    1  A    between atoms: C_5  and  C_8 
REMARK    2  A    between atoms: N_9  and  N_10 
REMARK    3  A    between atoms: N_10  and  C_11 
REMARK    4  A    between atoms: C_13  and  N_23 
REMARK    5  A    between atoms: C_15  and  N_17 
ROOT
ATOM      1  C   UNK d   1      14.327 -58.254  34.833  0.00  0.00     0.774 A 
ATOM      2  N   UNK d   1      15.179 -57.298  34.427  0.00  0.00     0.133 NA
ATOM      3  C   UNK d   1      15.939 -57.463  33.337  0.00  0.00     0.756 A 
ATOM      4  N   UNK d   1      15.807 -58.626  32.678  0.00  0.00     0.131 NA
ATOM      5  C   UNK d   1      14.965 -59.608  33.055  0.00  0.00     0.756 A 
ATOM      6  N   UNK d   1      14.217 -59.403  34.155  0.00  0.00     0.133 NA
ENDROOT
BRANCH   1   7
ATOM      7  N   UNK d   1      13.515 -58.052  36.015  0.00  0.00    -0.105 N 
ATOM      8  H   UNK d   1      12.692 -57.411  35.976  0.00  0.00     0.208 HD
BRANCH   7   9
ATOM      9  N   UNK d   1      13.853 -58.679  37.168  0.00  0.00    -0.172 NA
ATOM     10  C   UNK d   1      14.525 -58.151  38.093  0.00  0.00     0.150 C 
BRANCH  10  11
ATOM     11  C   UNK d   1      15.067 -56.821  38.151  0.00  0.00    -0.017 A 
ATOM     12  C   UNK d   1      14.554 -55.742  38.809  0.00  0.00     0.014 A 
ATOM     13  C   UNK d   1      15.166 -54.480  38.804  0.00  0.00     0.019 A 
ATOM     14  C   UNK d   1      16.327 -54.290  38.121  0.00  0.00     0.006 A 
ATOM     15  I   UNK d   1      17.314 -52.447  38.055  0.00  0.00    -0.045 I 
ATOM     16  C   UNK d   1      16.868 -55.363  37.448  0.00  0.00     0.019 A 
ATOM     17  C   UNK d   1      16.265 -56.597  37.456  0.00  0.00     0.014 A 
ENDBRANCH  10  11
ENDBRANCH   7   9
ENDBRANCH   1   7
BRANCH   3  18
ATOM     18  N   UNK d   1      16.852 -56.461  32.886  0.00  0.00    -0.209 N 
ATOM     19  C   UNK d   1      17.621 -56.582  31.685  0.00  0.00     0.167 C 
ATOM     20  C   UNK d   1      18.601 -55.408  31.643  0.00  0.00     0.188 C 
ATOM     21  O   UNK d   1      19.285 -55.272  32.840  0.00  0.00    -0.388 OA
ATOM     22  C   UNK d   1      18.476 -54.938  33.898  0.00  0.00     0.188 C 
ATOM     23  C   UNK d   1      17.018 -55.253  33.678  0.00  0.00     0.167 C 
ENDBRANCH   3  18
BRANCH   5  24
ATOM     24  N   UNK d   1      14.887 -60.810  32.301  0.00  0.00    -0.209 N 
ATOM     25  C   UNK d   1      15.802 -61.025  31.204  0.00  0.00     0.167 C 
ATOM     26  C   UNK d   1      14.995 -61.792  30.146  0.00  0.00     0.188 C 
ATOM     27  O   UNK d   1      14.699 -63.024  30.670  0.00  0.00    -0.388 OA
ATOM     28  C   UNK d   1      13.926 -63.036  31.797  0.00  0.00     0.188 C 
ATOM     29  C   UNK d   1      13.916 -61.798  32.619  0.00  0.00     0.167 C 
ENDBRANCH   5  24
TORSDOF 5
ENDMDL
