/Users/jonathanwahrer/Desktop/Msc/3_Semester/Drug_Design_Praktikum/waehrer_HTS_screening/HTS_experiment/out/docking_results/vina_output/6s1j/0924_docked.pdbqt
 OpenBabel03222221413D

 29 32  0  0  0  0  0  0  0  0999 V2000
   14.3270  -58.2540   34.8330 C   0  0  0  0  0  0  0  0  0  0  0  0
   15.1790  -57.2980   34.4270 N   0  0  0  0  0  4  0  0  0  0  0  0
   15.9390  -57.4630   33.3370 C   0  0  0  0  0  0  0  0  0  0  0  0
   15.8070  -58.6260   32.6780 N   0  0  0  0  0  0  0  0  0  0  0  0
   14.9650  -59.6080   33.0550 C   0  0  0  0  0  0  0  0  0  0  0  0
   14.2170  -59.4030   34.1550 N   0  0  0  0  0  2  0  0  0  0  0  0
   13.5150  -58.0520   36.0150 N   0  0  0  0  0  0  0  0  0  0  0  0
   12.6920  -57.4110   35.9760 H   0  0  0  0  0  0  0  0  0  0  0  0
   13.8530  -58.6790   37.1680 N   0  0  0  0  0  0  0  0  0  0  0  0
   14.5250  -58.1510   38.0930 C   0  0  0  0  0  3  0  0  0  0  0  0
   15.0670  -56.8210   38.1510 C   0  0  0  0  0  0  0  0  0  0  0  0
   14.5540  -55.7420   38.8090 C   0  0  0  0  0  3  0  0  0  0  0  0
   15.1660  -54.4800   38.8040 C   0  0  0  0  0  3  0  0  0  0  0  0
   16.3270  -54.2900   38.1210 C   0  0  0  0  0  0  0  0  0  0  0  0
   17.3140  -52.4470   38.0550 I   0  0  0  0  0  0  0  0  0  0  0  0
   16.8680  -55.3630   37.4480 C   0  0  0  0  0  3  0  0  0  0  0  0
   16.2650  -56.5970   37.4560 C   0  0  0  0  0  3  0  0  0  0  0  0
   16.8520  -56.4610   32.8860 N   0  0  0  0  0  0  0  0  0  0  0  0
   17.6210  -56.5820   31.6850 C   0  0  0  0  0  2  0  0  0  0  0  0
   18.6010  -55.4080   31.6430 C   0  0  0  0  0  2  0  0  0  0  0  0
   19.2850  -55.2720   32.8400 O   0  0  0  0  0  0  0  0  0  0  0  0
   18.4760  -54.9380   33.8980 C   0  0  0  0  0  2  0  0  0  0  0  0
   17.0180  -55.2530   33.6780 C   0  0  0  0  0  2  0  0  0  0  0  0
   14.8870  -60.8100   32.3010 N   0  0  0  0  0  0  0  0  0  0  0  0
   15.8020  -61.0250   31.2040 C   0  0  0  0  0  2  0  0  0  0  0  0
   14.9950  -61.7920   30.1460 C   0  0  0  0  0  2  0  0  0  0  0  0
   14.6990  -63.0240   30.6700 O   0  0  0  0  0  0  0  0  0  0  0  0
   13.9260  -63.0360   31.7970 C   0  0  0  0  0  3  0  0  0  0  0  0
   13.9160  -61.7980   32.6190 C   0  0  0  0  0  3  0  0  0  0  0  0
  1  7  1  0  0  0  0
  2  1  2  0  0  0  0
  3  2  2  0  0  0  0
  4  5  2  0  0  0  0
  4  3  1  0  0  0  0
  5  6  1  0  0  0  0
  6  1  1  0  0  0  0
  7  9  1  0  0  0  0
  8  7  1  0  0  0  0
  9 10  2  0  0  0  0
 10 11  1  0  0  0  0
 11 12  1  0  0  0  0
 13 12  2  0  0  0  0
 14 13  1  0  0  0  0
 15 14  1  0  0  0  0
 16 17  1  0  0  0  0
 16 14  2  0  0  0  0
 17 11  2  0  0  0  0
 18  3  1  0  0  0  0
 18 23  1  0  0  0  0
 19 18  1  0  0  0  0
 20 19  1  0  0  0  0
 20 21  1  0  0  0  0
 21 22  1  0  0  0  0
 23 22  1  0  0  0  0
 24 29  1  0  0  0  0
 24  5  1  0  0  0  0
 25 24  1  0  0  0  0
 26 27  1  0  0  0  0
 26 25  1  0  0  0  0
 27 28  1  0  0  0  0
 28 29  2  0  0  0  0
M  END
>  <Pose>
1

>  <Score>
-8.663

$$$$
