MODEL 1
REMARK VINA RESULT:    -7.816      0.000      0.000
REMARK INTER + INTRA:          -7.115
REMARK INTER:                  -9.187
REMARK INTRA:                   2.072
REMARK UNBOUND:                 2.072
REMARK  3 active torsions:
REMARK  status: ('A' for Active; 'I' for Inactive)
REMARK    1  A    between atoms: C_5  and  N_8 
REMARK    2  A    between atoms: C_10  and  C_16 
REMARK    3  A    between atoms: C_22  and  O_29 
ROOT
ATOM      1  N   UNK d   1      18.165 -56.613  33.362  0.00  0.00    -0.241 N 
ATOM      2  C   UNK d   1      18.314 -56.341  32.054  0.00  0.00     0.204 A 
ATOM      3  C   UNK d   1      18.329 -57.326  31.091  0.00  0.00     0.100 A 
ATOM      4  C   UNK d   1      18.178 -58.620  31.548  0.00  0.00     0.262 A 
ATOM      5  O   UNK d   1      18.170 -59.637  30.790  0.00  0.00    -0.267 OA
ATOM      6  N   UNK d   1      18.025 -58.911  32.877  0.00  0.00    -0.274 N 
ATOM      7  C   UNK d   1      18.023 -57.890  33.752  0.00  0.00     0.336 A 
ATOM      8  O   UNK d   1      17.886 -58.108  34.983  0.00  0.00    -0.246 OA
ATOM      9  O   UNK d   1      18.458 -55.042  31.640  0.00  0.00    -0.171 OA
ATOM     10  H   UNK d   1      17.913 -59.884  33.216  0.00  0.00     0.173 HD
ENDROOT
BRANCH   3  11
ATOM     11  C   UNK d   1      18.502 -57.113  29.665  0.00  0.00     0.267 C 
ATOM     12  N   UNK d   1      19.238 -55.960  29.256  0.00  0.00    -0.062 N 
ATOM     13  C   UNK d   1      20.620 -55.959  29.653  0.00  0.00     0.240 C 
ATOM     14  C   UNK d   1      19.267 -56.029  27.771  0.00  0.00     0.270 C 
ATOM     15  H   UNK d   1      18.783 -55.043  29.404  0.00  0.00     0.280 HD
ATOM     16  C   UNK d   1      21.083 -57.287  30.213  0.00  0.00     0.067 C 
ATOM     17  C   UNK d   1      20.557 -58.388  29.324  0.00  0.00    -0.042 A 
ATOM     18  C   UNK d   1      19.222 -58.274  29.031  0.00  0.00     0.020 A 
ATOM     19  C   UNK d   1      21.320 -59.391  28.821  0.00  0.00     0.047 A 
ATOM     20  C   UNK d   1      18.609 -59.186  28.205  0.00  0.00     0.113 A 
ATOM     21  C   UNK d   1      19.395 -60.208  27.693  0.00  0.00     0.139 A 
ATOM     22  C   UNK d   1      20.738 -60.338  27.979  0.00  0.00     0.108 A 
ATOM     23  O   UNK d   1      19.098 -61.282  26.838  0.00  0.00    -0.320 OA
ATOM     24  O   UNK d   1      21.224 -61.454  27.316  0.00  0.00    -0.323 OA
ATOM     25  C   UNK d   1      20.114 -62.265  26.895  0.00  0.00     0.352 C 
BRANCH  20  26
ATOM     26  O   UNK d   1      17.280 -59.063  27.917  0.00  0.00    -0.352 OA
ATOM     27  C   UNK d   1      16.279 -60.005  28.143  0.00  0.00     0.210 C 
ENDBRANCH  20  26
ENDBRANCH   3  11
BRANCH   1  28
ATOM     28  C   UNK d   1      18.154 -55.582  34.337  0.00  0.00     0.046 A 
ATOM     29  C   UNK d   1      19.302 -55.165  34.992  0.00  0.00     0.031 A 
ATOM     30  C   UNK d   1      19.294 -54.174  35.930  0.00  0.00     0.020 A 
ATOM     31  C   UNK d   1      18.106 -53.535  36.268  0.00  0.00     0.006 A 
ATOM     32  I   UNK d   1      18.108 -52.012  37.713  0.00  0.00    -0.045 I 
ATOM     33  C   UNK d   1      16.965 -53.946  35.620  0.00  0.00     0.020 A 
ATOM     34  C   UNK d   1      16.963 -54.947  34.671  0.00  0.00     0.031 A 
ENDBRANCH   1  28
TORSDOF 3
ENDMDL
