MODEL 1
REMARK VINA RESULT:    -8.775      0.000      0.000
REMARK INTER + INTRA:         -10.547
REMARK INTER:                 -10.314
REMARK INTRA:                  -0.233
REMARK UNBOUND:                -0.233
REMARK  3 active torsions:
REMARK  status: ('A' for Active; 'I' for Inactive)
REMARK    1  A    between atoms: C_5  and  N_8 
REMARK    2  A    between atoms: C_11  and  N_15 
REMARK    3  A    between atoms: N_18  and  C_21 
ROOT
ATOM      1  N   UNK d   1      15.745 -56.504  37.743  0.00  0.00    -0.251 N 
ATOM      2  C   UNK d   1      15.789 -57.863  37.341  0.00  0.00     0.254 C 
ATOM      3  O   UNK d   1      16.827 -58.432  36.914  0.00  0.00    -0.270 OA
ATOM      4  C   UNK d   1      14.443 -58.479  37.508  0.00  0.00     0.181 C 
ATOM      5  C   UNK d   1      13.880 -57.665  38.660  0.00  0.00     0.138 C 
ATOM      6  C   UNK d   1      14.615 -56.386  38.605  0.00  0.00     0.233 C 
ATOM      7  O   UNK d   1      14.318 -55.321  39.221  0.00  0.00    -0.273 OA
ENDROOT
BRANCH   4   8
ATOM      8  N   UNK d   1      13.733 -58.325  36.306  0.00  0.00    -0.397 N 
ATOM      9  C   UNK d   1      14.288 -57.654  35.217  0.00  0.00     0.138 C 
ATOM     10  C   UNK d   1      13.599 -58.210  33.943  0.00  0.00     0.161 C 
ATOM     11  N   UNK d   1      13.643 -59.663  34.008  0.00  0.00    -0.211 N 
ATOM     12  C   UNK d   1      12.980 -60.275  35.132  0.00  0.00     0.161 C 
ATOM     13  C   UNK d   1      12.617 -59.158  36.106  0.00  0.00     0.138 C 
BRANCH  11  14
ATOM     14  C   UNK d   1      14.308 -60.420  33.022  0.00  0.00     0.724 A 
ATOM     15  N   UNK d   1      13.915 -61.692  32.740  0.00  0.00    -0.075 NA
ATOM     16  C   UNK d   1      14.497 -62.451  31.814  0.00  0.00     0.138 A 
ATOM     17  C   UNK d   1      15.563 -61.957  31.075  0.00  0.00     0.040 A 
ATOM     18  C   UNK d   1      15.958 -60.663  31.366  0.00  0.00     0.138 A 
ATOM     19  N   UNK d   1      15.344 -59.933  32.307  0.00  0.00    -0.075 NA
ENDBRANCH  11  14
ENDBRANCH   4   8
BRANCH   1  20
ATOM     20  C   UNK d   1      16.638 -55.436  37.376  0.00  0.00     0.045 A 
ATOM     21  C   UNK d   1      17.242 -54.685  38.362  0.00  0.00     0.031 A 
ATOM     22  C   UNK d   1      18.104 -53.650  38.059  0.00  0.00     0.020 A 
ATOM     23  C   UNK d   1      18.393 -53.330  36.749  0.00  0.00     0.006 A 
ATOM     24  I   UNK d   1      19.708 -51.756  36.241  0.00  0.00    -0.045 I 
ATOM     25  C   UNK d   1      17.799 -54.071  35.750  0.00  0.00     0.020 A 
ATOM     26  C   UNK d   1      16.940 -55.101  36.077  0.00  0.00     0.031 A 
ENDBRANCH   1  20
TORSDOF 3
ENDMDL
