MODEL 1
REMARK VINA RESULT:    -8.226      0.000      0.000
REMARK INTER + INTRA:         -10.040
REMARK INTER:                  -9.668
REMARK INTRA:                  -0.372
REMARK UNBOUND:                -0.372
REMARK  3 active torsions:
REMARK  status: ('A' for Active; 'I' for Inactive)
REMARK    1  A    between atoms: C_6  and  C_7 
REMARK       I    between atoms: C_7  and  N_9 
REMARK    2  A    between atoms: N_9  and  C_10 
REMARK    3  A    between atoms: C_16  and  N_19 
ROOT
ATOM      1  C   UNK d   1      18.083 -55.387  33.227  0.00  0.00     0.069 A 
ATOM      2  C   UNK d   1      17.649 -56.375  32.339  0.00  0.00     0.146 A 
ATOM      3  N   UNK d   1      16.607 -57.223  32.390  0.00  0.00    -0.101 NA
ATOM      4  O   UNK d   1      16.621 -57.959  31.318  0.00  0.00    -0.106 OA
ATOM      5  N   UNK d   1      17.625 -57.636  30.563  0.00  0.00    -0.101 NA
ATOM      6  C   UNK d   1      18.304 -56.640  31.165  0.00  0.00     0.146 A 
ATOM      7  C   UNK d   1      19.430 -55.919  30.831  0.00  0.00     0.064 A 
ATOM      8  C   UNK d   1      19.848 -54.951  31.709  0.00  0.00     0.034 A 
ATOM      9  C   UNK d   1      19.185 -54.674  32.912  0.00  0.00     0.034 A 
ENDROOT
BRANCH   1  10
ATOM     10  N   UNK d   1      17.329 -55.200  34.409  0.00  0.00    -0.319 N 
ATOM     11  C   UNK d   1      17.809 -55.130  35.709  0.00  0.00     0.278 C 
ATOM     12  O   UNK d   1      19.064 -55.243  35.931  0.00  0.00    -0.265 OA
ATOM     13  H   UNK d   1      16.268 -55.113  34.315  0.00  0.00     0.169 HD
BRANCH  11  14
ATOM     14  C   UNK d   1      16.973 -54.931  36.907  0.00  0.00     0.162 A 
ATOM     15  C   UNK d   1      16.819 -53.881  37.745  0.00  0.00     0.059 A 
ATOM     16  I   UNK d   1      17.797 -52.041  37.716  0.00  0.00    -0.040 I 
ATOM     17  C   UNK d   1      15.866 -54.247  38.696  0.00  0.00     0.132 A 
ATOM     18  N   UNK d   1      15.462 -55.490  38.430  0.00  0.00    -0.283 N 
ATOM     19  N   UNK d   1      16.113 -55.897  37.376  0.00  0.00    -0.166 NA
ATOM     20  C   UNK d   1      14.460 -56.231  39.209  0.00  0.00     0.179 C 
ENDBRANCH  11  14
ENDBRANCH   1  10
BRANCH   7  21
ATOM     21  N   UNK d   1      20.095 -56.208  29.612  0.00  0.00    -0.375 N 
ATOM     22  C   UNK d   1      21.350 -56.930  29.609  0.00  0.00     0.149 C 
ATOM     23  C   UNK d   1      21.773 -57.162  28.201  0.00  0.00     0.187 C 
ATOM     24  O   UNK d   1      20.783 -57.679  27.388  0.00  0.00    -0.388 OA
ATOM     25  C   UNK d   1      19.644 -56.941  27.323  0.00  0.00     0.187 C 
ATOM     26  C   UNK d   1      19.575 -55.810  28.319  0.00  0.00     0.149 C 
ENDBRANCH   7  21
TORSDOF 3
ENDMDL
