/Users/jonathanwahrer/Desktop/Msc/3_Semester/Drug_Design_Praktikum/waehrer_HTS_screening/HTS_experiment/out/docking_results/vina_output/6s1j/0950_docked.pdbqt
 OpenBabel03222221423D

 26 29  0  0  0  0  0  0  0  0999 V2000
   18.0830  -55.3870   33.2270 C   0  0  0  0  0  0  0  0  0  0  0  0
   17.6490  -56.3750   32.3390 C   0  0  0  0  0  0  0  0  0  0  0  0
   16.6070  -57.2230   32.3900 N   0  0  0  0  0  0  0  0  0  0  0  0
   16.6210  -57.9590   31.3180 O   0  0  0  0  0  0  0  0  0  0  0  0
   17.6250  -57.6360   30.5630 N   0  0  0  0  0  0  0  0  0  0  0  0
   18.3040  -56.6400   31.1650 C   0  0  0  0  0  0  0  0  0  0  0  0
   19.4300  -55.9190   30.8310 C   0  0  0  0  0  0  0  0  0  0  0  0
   19.8480  -54.9510   31.7090 C   0  0  0  0  0  3  0  0  0  0  0  0
   19.1850  -54.6740   32.9120 C   0  0  0  0  0  3  0  0  0  0  0  0
   17.3290  -55.2000   34.4090 N   0  0  0  0  0  0  0  0  0  0  0  0
   17.8090  -55.1300   35.7090 C   0  0  0  0  0  0  0  0  0  0  0  0
   19.0640  -55.2430   35.9310 O   0  0  0  0  0  0  0  0  0  0  0  0
   16.2680  -55.1130   34.3150 H   0  0  0  0  0  0  0  0  0  0  0  0
   16.9730  -54.9310   36.9070 C   0  0  0  0  0  0  0  0  0  0  0  0
   16.8190  -53.8810   37.7450 C   0  0  0  0  0  0  0  0  0  0  0  0
   17.7970  -52.0410   37.7160 I   0  0  0  0  0  0  0  0  0  0  0  0
   15.8660  -54.2470   38.6960 C   0  0  0  0  0  3  0  0  0  0  0  0
   15.4620  -55.4900   38.4300 N   0  0  0  0  0  0  0  0  0  0  0  0
   16.1130  -55.8970   37.3760 N   0  0  0  0  0  0  0  0  0  0  0  0
   14.4600  -56.2310   39.2090 C   0  0  0  0  0  1  0  0  0  0  0  0
   20.0950  -56.2080   29.6120 N   0  0  0  0  0  0  0  0  0  0  0  0
   21.3500  -56.9300   29.6090 C   0  0  0  0  0  2  0  0  0  0  0  0
   21.7730  -57.1620   28.2010 C   0  0  0  0  0  2  0  0  0  0  0  0
   20.7830  -57.6790   27.3880 O   0  0  0  0  0  0  0  0  0  0  0  0
   19.6440  -56.9410   27.3230 C   0  0  0  0  0  2  0  0  0  0  0  0
   19.5750  -55.8100   28.3190 C   0  0  0  0  0  2  0  0  0  0  0  0
  1 10  1  0  0  0  0
  2  3  2  0  0  0  0
  2  1  1  0  0  0  0
  4  3  1  0  0  0  0
  5  6  2  0  0  0  0
  5  4  1  0  0  0  0
  6  2  1  0  0  0  0
  7  6  1  0  0  0  0
  7  8  2  0  0  0  0
  8  9  1  0  0  0  0
  9  1  2  0  0  0  0
 10 11  1  0  0  0  0
 11 12  2  0  0  0  0
 11 14  1  0  0  0  0
 13 10  1  0  0  0  0
 14 19  2  0  0  0  0
 14 15  1  0  0  0  0
 15 17  2  0  0  0  0
 16 15  1  0  0  0  0
 18 17  1  0  0  0  0
 18 20  1  0  0  0  0
 19 18  1  0  0  0  0
 21  7  1  0  0  0  0
 22 21  1  0  0  0  0
 23 22  1  0  0  0  0
 24 23  1  0  0  0  0
 25 24  1  0  0  0  0
 25 26  1  0  0  0  0
 26 21  1  0  0  0  0
M  END
>  <Pose>
1

>  <Score>
-8.226

$$$$
