/Users/jonathanwahrer/Desktop/Msc/3_Semester/Drug_Design_Praktikum/waehrer_HTS_screening/HTS_experiment/out/docking_results/vina_output/6s1j/0956_docked.pdbqt
 OpenBabel03222221423D

 30 33  0  0  1  0  0  0  0  0999 V2000
   15.9200  -58.0610   36.1840 I   0  0  0  0  0  0  0  0  0  0  0  0
   16.5740  -58.4790   34.2240 C   0  0  0  0  0  0  0  0  0  0  0  0
   17.5360  -57.8050   33.5310 C   0  0  0  0  0  0  0  0  0  0  0  0
   17.6010  -58.4580   32.2990 C   0  0  0  0  0  0  0  0  0  0  0  0
   16.7370  -59.4720   32.2300 N   0  0  0  0  0  0  0  0  0  0  0  0
   16.1050  -59.4920   33.4030 C   0  0  0  0  0  3  0  0  0  0  0  0
   18.4830  -57.9970   31.3970 N   0  0  0  0  0  0  0  0  0  0  0  0
   19.2720  -56.9460   31.6720 C   0  0  0  0  0  3  0  0  0  0  0  0
   19.2070  -56.3240   32.8530 N   0  0  0  0  0  0  0  0  0  0  0  0
   18.3370  -56.7270   33.8290 C   0  0  0  0  0  0  0  0  0  0  0  0
   16.5000  -60.3770   31.1470 C   0  0  2  0  0  3  0  0  0  0  0  0
   16.2860  -59.7460   29.9270 O   0  0  0  0  0  0  0  0  0  0  0  0
   15.9520  -60.8100   29.0940 C   0  0  1  0  0  3  0  0  0  0  0  0
   15.0670  -61.7360   29.8960 C   0  0  2  0  0  3  0  0  0  0  0  0
   15.1840  -61.1440   31.3060 C   0  0  0  0  0  2  0  0  0  0  0  0
   15.0970  -60.3070   27.9230 C   0  0  0  0  0  2  0  0  0  0  0  0
   13.7900  -60.0900   28.3780 O   0  0  0  0  0  0  0  0  0  0  0  0
   13.3380  -60.9660   28.5950 H   0  0  0  0  0  0  0  0  0  0  0  0
   15.6000  -63.0240   29.9710 O   0  0  0  0  0  0  0  0  0  0  0  0
   15.2440  -63.5050   29.1610 H   0  0  0  0  0  0  0  0  0  0  0  0
   18.3110  -56.0260   35.0690 N   0  0  0  0  0  0  0  0  0  0  0  0
   17.5850  -54.8030   35.1450 C   0  0  0  0  0  0  0  0  0  0  0  0
   17.0030  -54.4120   34.1010 O   0  0  0  0  0  0  0  0  0  0  0  0
   18.7750  -56.3220   35.9320 H   0  0  0  0  0  0  0  0  0  0  0  0
   17.4760  -53.9970   36.3300 C   0  0  0  0  0  0  0  0  0  0  0  0
   18.1930  -52.8400   36.4700 C   0  0  0  0  0  3  0  0  0  0  0  0
   18.0960  -52.0440   37.6130 C   0  0  0  0  0  3  0  0  0  0  0  0
   17.2640  -52.4240   38.6250 C   0  0  0  0  0  3  0  0  0  0  0  0
   16.5340  -53.5780   38.5130 C   0  0  0  0  0  3  0  0  0  0  0  0
   16.6460  -54.3610   37.3580 C   0  0  0  0  0  3  0  0  0  0  0  0
  2  1  1  0  0  0  0
  3 10  1  0  0  0  0
  3  2  1  0  0  0  0
  4  3  2  0  0  0  0
  5  4  1  0  0  0  0
  5  6  1  0  0  0  0
  6  2  2  0  0  0  0
  7  8  2  0  0  0  0
  7  4  1  0  0  0  0
  8  9  1  0  0  0  0
  9 10  2  0  0  0  0
 10 21  1  0  0  0  0
 11 15  1  1  0  0  0
 11  5  1  0  0  0  0
 12 11  1  0  0  0  0
 13 16  1  6  0  0  0
 13 14  1  0  0  0  0
 13 12  1  0  0  0  0
 14 19  1  1  0  0  0
 14 15  1  0  0  0  0
 16 17  1  0  0  0  0
 17 18  1  0  0  0  0
 20 19  1  0  0  0  0
 21 22  1  0  0  0  0
 21 24  1  0  0  0  0
 22 25  1  0  0  0  0
 23 22  2  0  0  0  0
 25 26  2  0  0  0  0
 25 30  1  0  0  0  0
 26 27  1  0  0  0  0
 27 28  2  0  0  0  0
 29 28  1  0  0  0  0
 30 29  2  0  0  0  0
M  END
>  <Pose>
1

>  <Score>
-8.564

$$$$
