MODEL 1
REMARK VINA RESULT:    -8.564      0.000      0.000
REMARK INTER + INTRA:         -11.761
REMARK INTER:                 -11.068
REMARK INTRA:                  -0.693
REMARK UNBOUND:                -0.693
REMARK  6 active torsions:
REMARK  status: ('A' for Active; 'I' for Inactive)
REMARK    1  A    between atoms: N_5  and  C_7 
REMARK    2  A    between atoms: C_9  and  C_13 
REMARK    3  A    between atoms: C_10  and  O_12 
REMARK    4  A    between atoms: C_13  and  O_14 
REMARK    5  A    between atoms: C_18  and  N_19 
REMARK       I    between atoms: N_19  and  C_20 
REMARK    6  A    between atoms: C_20  and  C_22 
ROOT
ATOM      1  I   UNK d   1      15.920 -58.061  36.184  0.00  0.00    -0.042 I 
ATOM      2  C   UNK d   1      16.574 -58.479  34.224  0.00  0.00     0.040 A 
ATOM      3  C   UNK d   1      17.536 -57.805  33.531  0.00  0.00     0.074 A 
ATOM      4  C   UNK d   1      17.601 -58.458  32.299  0.00  0.00     0.148 A 
ATOM      5  N   UNK d   1      16.737 -59.472  32.230  0.00  0.00    -0.312 N 
ATOM      6  C   UNK d   1      16.105 -59.492  33.403  0.00  0.00     0.114 A 
ATOM      7  N   UNK d   1      18.483 -57.997  31.397  0.00  0.00    -0.223 NA
ATOM      8  C   UNK d   1      19.272 -56.946  31.672  0.00  0.00     0.237 A 
ATOM      9  N   UNK d   1      19.207 -56.324  32.853  0.00  0.00    -0.223 NA
ATOM     10  C   UNK d   1      18.337 -56.727  33.829  0.00  0.00     0.147 A 
ENDROOT
BRANCH   5  11
ATOM     11  C   UNK d   1      16.500 -60.377  31.147  0.00  0.00     0.232 C 
ATOM     12  O   UNK d   1      16.286 -59.746  29.927  0.00  0.00    -0.356 OA
ATOM     13  C   UNK d   1      15.952 -60.810  29.094  0.00  0.00     0.176 C 
ATOM     14  C   UNK d   1      15.067 -61.736  29.896  0.00  0.00     0.153 C 
ATOM     15  C   UNK d   1      15.184 -61.144  31.306  0.00  0.00     0.088 C 
BRANCH  13  16
ATOM     16  C   UNK d   1      15.097 -60.307  27.923  0.00  0.00     0.198 C 
BRANCH  16  17
ATOM     17  O   UNK d   1      13.790 -60.090  28.378  0.00  0.00    -0.398 OA
ATOM     18  H   UNK d   1      13.338 -60.966  28.595  0.00  0.00     0.209 HD
ENDBRANCH  16  17
ENDBRANCH  13  16
BRANCH  14  19
ATOM     19  O   UNK d   1      15.600 -63.024  29.971  0.00  0.00    -0.393 OA
ATOM     20  H   UNK d   1      15.244 -63.505  29.161  0.00  0.00     0.210 HD
ENDBRANCH  14  19
ENDBRANCH   5  11
BRANCH  10  21
ATOM     21  N   UNK d   1      18.311 -56.026  35.069  0.00  0.00    -0.306 N 
ATOM     22  C   UNK d   1      17.585 -54.803  35.145  0.00  0.00     0.257 C 
ATOM     23  O   UNK d   1      17.003 -54.412  34.101  0.00  0.00    -0.267 OA
ATOM     24  H   UNK d   1      18.775 -56.322  35.932  0.00  0.00     0.170 HD
BRANCH  22  25
ATOM     25  C   UNK d   1      17.476 -53.997  36.330  0.00  0.00     0.032 A 
ATOM     26  C   UNK d   1      18.193 -52.840  36.470  0.00  0.00     0.017 A 
ATOM     27  C   UNK d   1      18.096 -52.044  37.613  0.00  0.00     0.001 A 
ATOM     28  C   UNK d   1      17.264 -52.424  38.625  0.00  0.00     0.000 A 
ATOM     29  C   UNK d   1      16.534 -53.578  38.513  0.00  0.00     0.001 A 
ATOM     30  C   UNK d   1      16.646 -54.361  37.358  0.00  0.00     0.017 A 
ENDBRANCH  22  25
ENDBRANCH  10  21
TORSDOF 6
ENDMDL
