MODEL 1
REMARK VINA RESULT:   -11.107      0.000      0.000
REMARK INTER + INTRA:         -13.371
REMARK INTER:                 -13.055
REMARK INTRA:                  -0.315
REMARK UNBOUND:                -0.315
REMARK  3 active torsions:
REMARK  status: ('A' for Active; 'I' for Inactive)
REMARK    1  A    between atoms: C_7  and  C_8 
REMARK    2  A    between atoms: C_9  and  C_10 
REMARK    3  A    between atoms: C_16  and  C_19 
ROOT
ATOM      1  C   UNK d   1      18.843 -53.345  35.961  0.00  0.00     0.065 A 
ATOM      2  N   UNK d   1      19.229 -52.125  36.247  0.00  0.00    -0.359 N 
ATOM      3  C   UNK d   1      18.627 -51.439  37.265  0.00  0.00     0.093 A 
ATOM      4  C   UNK d   1      17.625 -51.949  38.032  0.00  0.00     0.049 A 
ATOM      5  C   UNK d   1      17.194 -53.230  37.764  0.00  0.00     0.068 A 
ATOM      6  N   UNK d   1      16.235 -54.056  38.307  0.00  0.00    -0.333 N 
ATOM      7  C   UNK d   1      16.231 -55.209  37.659  0.00  0.00     0.141 A 
ATOM      8  N   UNK d   1      17.195 -55.105  36.704  0.00  0.00    -0.226 NA
ATOM      9  C   UNK d   1      17.797 -53.910  36.746  0.00  0.00     0.113 A 
ATOM     10  C   UNK d   1      15.447 -53.613  39.422  0.00  0.00     0.158 C 
ATOM     11  C   UNK d   1      20.324 -51.490  35.575  0.00  0.00     0.156 C 
ENDROOT
BRANCH   1  12
ATOM     12  C   UNK d   1      19.301 -54.168  34.857  0.00  0.00     0.033 C 
ATOM     13  C   UNK d   1      18.671 -54.821  33.945  0.00  0.00     0.015 C 
BRANCH  13  14
ATOM     14  C   UNK d   1      19.125 -55.633  32.839  0.00  0.00    -0.016 A 
ATOM     15  C   UNK d   1      18.992 -56.975  32.708  0.00  0.00     0.024 A 
ATOM     16 Br   UNK d   1      18.272 -58.021  34.129  0.00  0.00    -0.050 Br
ATOM     17  C   UNK d   1      19.420 -57.664  31.545  0.00  0.00     0.059 A 
ATOM     18  C   UNK d   1      19.991 -56.986  30.503  0.00  0.00     0.106 A 
ATOM     19  C   UNK d   1      20.141 -55.621  30.609  0.00  0.00     0.105 A 
ATOM     20  O   UNK d   1      20.504 -57.350  29.254  0.00  0.00    -0.323 OA
ATOM     21  C   UNK d   1      19.722 -54.962  31.742  0.00  0.00     0.052 A 
ATOM     22  O   UNK d   1      20.745 -55.179  29.420  0.00  0.00    -0.323 OA
ATOM     23  C   UNK d   1      20.474 -56.171  28.451  0.00  0.00     0.352 C 
ENDBRANCH  13  14
ENDBRANCH   1  12
BRANCH   7  24
ATOM     24  C   UNK d   1      15.405 -56.401  37.886  0.00  0.00     0.010 A 
ATOM     25  C   UNK d   1      14.282 -56.443  38.643  0.00  0.00     0.015 A 
ATOM     26  C   UNK d   1      13.586 -57.654  38.812  0.00  0.00     0.001 A 
ATOM     27  C   UNK d   1      14.041 -58.805  38.209  0.00  0.00     0.000 A 
ATOM     28  C   UNK d   1      15.188 -58.790  37.427  0.00  0.00     0.001 A 
ATOM     29  C   UNK d   1      15.827 -57.602  37.291  0.00  0.00     0.015 A 
ENDBRANCH   7  24
TORSDOF 3
ENDMDL
