MODEL 1
REMARK VINA RESULT:    -6.042      0.000      0.000
REMARK INTER + INTRA:          -7.823
REMARK INTER:                  -6.749
REMARK INTRA:                  -1.074
REMARK UNBOUND:                -1.074
REMARK  2 active torsions:
REMARK  status: ('A' for Active; 'I' for Inactive)
REMARK    1  A    between atoms: C_10  and  C_21 
REMARK    2  A    between atoms: C_26  and  C_27 
ROOT
ATOM      1 Br   UNK d   1      15.234 -58.619  34.796  0.00  0.00    -0.045 Br
ATOM      2  C   UNK d   1      15.157 -59.853  33.353  0.00  0.00     0.083 A 
ATOM      3  C   UNK d   1      15.879 -59.696  32.173  0.00  0.00     0.107 A 
ATOM      4  C   UNK d   1      15.788 -60.625  31.149  0.00  0.00     0.013 A 
ATOM      5  C   UNK d   1      14.971 -61.728  31.288  0.00  0.00     0.037 A 
ATOM      6  C   UNK d   1      14.258 -61.890  32.443  0.00  0.00     0.049 A 
ATOM      7  C   UNK d   1      14.354 -60.967  33.453  0.00  0.00     0.144 A 
ATOM      8  O   UNK d   1      13.591 -61.202  34.612  0.00  0.00    -0.189 OA
ATOM      9 Br   UNK d   1      13.143 -63.448  32.571  0.00  0.00    -0.048 Br
ATOM     10  C   UNK d   1      16.492 -60.493  29.972  0.00  0.00     0.003 A 
ATOM     11  C   UNK d   1      17.306 -59.388  29.842  0.00  0.00     0.013 A 
ATOM     12  C   UNK d   1      17.341 -58.456  30.975  0.00  0.00     0.108 A 
ATOM     13  C   UNK d   1      18.170 -57.342  30.828  0.00  0.00     0.097 A 
ATOM     14  C   UNK d   1      18.897 -57.157  29.676  0.00  0.00     0.209 A 
ATOM     15  O   UNK d   1      19.630 -56.139  29.588  0.00  0.00    -0.285 OA
ATOM     16  C   UNK d   1      18.842 -58.058  28.618  0.00  0.00     0.063 A 
ATOM     17  C   UNK d   1      18.053 -59.169  28.695  0.00  0.00     0.038 A 
ATOM     18 Br   UNK d   1      19.887 -57.723  27.053  0.00  0.00    -0.047 Br
ATOM     19 Br   UNK d   1      18.264 -56.079  32.273  0.00  0.00    -0.044 Br
ATOM     20  O   UNK d   1      16.645 -58.640  32.072  0.00  0.00    -0.306 OA
ENDROOT
BRANCH  10  21
ATOM     21  C   UNK d   1      16.387 -61.471  28.888  0.00  0.00     0.016 A 
ATOM     22  C   UNK d   1      15.430 -61.328  27.900  0.00  0.00     0.046 A 
ATOM     23  C   UNK d   1      15.308 -62.239  26.872  0.00  0.00     0.026 A 
ATOM     24 Cl   UNK d   1      14.341 -59.938  27.962  0.00  0.00    -0.083 Cl
ATOM     25  C   UNK d   1      16.169 -63.316  26.840  0.00  0.00     0.026 A 
ATOM     26  C   UNK d   1      17.124 -63.495  27.792  0.00  0.00     0.052 A 
ATOM     27  C   UNK d   1      17.232 -62.576  28.812  0.00  0.00     0.075 A 
ATOM     28 Cl   UNK d   1      18.179 -64.895  27.673  0.00  0.00    -0.083 Cl
BRANCH  27  29
ATOM     29  C   UNK d   1      18.239 -62.761  29.829  0.00  0.00     0.212 C 
ATOM     30  O   UNK d   1      19.403 -62.288  29.720  0.00  0.00    -0.644 OA
ATOM     31  O   UNK d   1      17.949 -63.483  30.985  0.00  0.00    -0.644 OA
ENDBRANCH  27  29
ENDBRANCH  10  21
TORSDOF 2
ENDMDL
