/Users/jonathanwahrer/Desktop/Msc/3_Semester/Drug_Design_Praktikum/waehrer_HTS_screening/HTS_experiment/out/docking_results/vina_output/6s1j/0969_docked.pdbqt
 OpenBabel03222221433D

 31 34  0  0  1  0  0  0  0  0999 V2000
   15.2340  -58.6190   34.7960 Br  0  0  0  0  0  0  0  0  0  0  0  0
   15.1570  -59.8530   33.3530 C   0  0  0  0  0  0  0  0  0  0  0  0
   15.8790  -59.6960   32.1730 C   0  0  0  0  0  0  0  0  0  0  0  0
   15.7880  -60.6250   31.1490 C   0  0  0  0  0  0  0  0  0  0  0  0
   14.9710  -61.7280   31.2880 C   0  0  0  0  0  2  0  0  0  0  0  0
   14.2580  -61.8900   32.4430 C   0  0  0  0  0  0  0  0  0  0  0  0
   14.3540  -60.9670   33.4530 C   0  0  0  0  0  0  0  0  0  0  0  0
   13.5910  -61.2020   34.6120 O   0  0  0  0  0  1  0  0  0  0  0  0
   13.1430  -63.4480   32.5710 Br  0  0  0  0  0  0  0  0  0  0  0  0
   16.4920  -60.4930   29.9720 C   0  0  0  0  0  0  0  0  0  0  0  0
   17.3060  -59.3880   29.8420 C   0  0  0  0  0  0  0  0  0  0  0  0
   17.3410  -58.4560   30.9750 C   0  0  0  0  0  0  0  0  0  0  0  0
   18.1700  -57.3420   30.8280 C   0  0  1  0  0  3  0  0  0  0  0  0
   18.8970  -57.1570   29.6760 C   0  0  0  0  0  0  0  0  0  0  0  0
   19.6300  -56.1390   29.5880 O   0  0  0  0  0  0  0  0  0  0  0  0
   18.8420  -58.0580   28.6180 C   0  0  0  0  0  0  0  0  0  0  0  0
   18.0530  -59.1690   28.6950 C   0  0  0  0  0  3  0  0  0  0  0  0
   19.8870  -57.7230   27.0530 Br  0  0  0  0  0  0  0  0  0  0  0  0
   18.2640  -56.0790   32.2730 Br  0  0  0  0  0  0  0  0  0  0  0  0
   16.6450  -58.6400   32.0720 O   0  0  0  0  0  0  0  0  0  0  0  0
   16.3870  -61.4710   28.8880 C   0  0  0  0  0  0  0  0  0  0  0  0
   15.4300  -61.3280   27.9000 C   0  0  0  0  0  0  0  0  0  0  0  0
   15.3080  -62.2390   26.8720 C   0  0  0  0  0  3  0  0  0  0  0  0
   14.3410  -59.9380   27.9620 Cl  0  0  0  0  0  0  0  0  0  0  0  0
   16.1690  -63.3160   26.8400 C   0  0  0  0  0  3  0  0  0  0  0  0
   17.1240  -63.4950   27.7920 C   0  0  0  0  0  0  0  0  0  0  0  0
   17.2320  -62.5760   28.8120 C   0  0  0  0  0  0  0  0  0  0  0  0
   18.1790  -64.8950   27.6730 Cl  0  0  0  0  0  0  0  0  0  0  0  0
   18.2390  -62.7610   29.8290 C   0  0  0  0  0  0  0  0  0  0  0  0
   19.4030  -62.2880   29.7200 O   0  0  0  0  0  0  0  0  0  0  0  0
   17.9490  -63.4830   30.9850 O   0  0  0  0  0  1  0  0  0  0  0  0
  2  7  1  0  0  0  0
  2  1  1  0  0  0  0
  3  2  2  0  0  0  0
  4  5  1  0  0  0  0
  4  3  1  0  0  0  0
  5  6  1  0  0  0  0
  6  9  1  0  0  0  0
  6  7  2  0  0  0  0
  7  8  1  0  0  0  0
 10  4  2  0  0  0  0
 11 10  1  0  0  0  0
 11 12  2  0  0  0  0
 12 20  1  0  0  0  0
 13 12  1  0  0  0  0
 13 19  1  6  0  0  0
 14 13  1  0  0  0  0
 15 14  2  0  0  0  0
 16 17  2  0  0  0  0
 16 14  1  0  0  0  0
 17 11  1  0  0  0  0
 18 16  1  0  0  0  0
 20  3  1  0  0  0  0
 21 10  1  0  0  0  0
 22 24  1  0  0  0  0
 22 21  2  0  0  0  0
 23 22  1  0  0  0  0
 25 23  2  0  0  0  0
 25 26  1  0  0  0  0
 26 27  2  0  0  0  0
 27 21  1  0  0  0  0
 27 29  1  0  0  0  0
 28 26  1  0  0  0  0
 29 31  1  0  0  0  0
 30 29  2  0  0  0  0
M  END
>  <Pose>
1

>  <Score>
-6.042

$$$$
