MODEL 1
REMARK VINA RESULT:    -9.077      0.000      0.000
REMARK INTER + INTRA:          -9.077
REMARK INTER:                  -9.077
REMARK INTRA:                   0.000
REMARK UNBOUND:                 0.000
REMARK  0 active torsions:
REMARK  status: ('A' for Active; 'I' for Inactive)
ROOT
ATOM      1 Br   UNK d   1      11.987 -61.479  35.121  0.00  0.00    -0.045 Br
ATOM      2  C   UNK d   1      13.593 -60.894  34.275  0.00  0.00     0.083 A 
ATOM      3  C   UNK d   1      14.357 -59.836  34.802  0.00  0.00     0.106 A 
ATOM      4  C   UNK d   1      15.510 -59.388  34.228  0.00  0.00     0.023 A 
ATOM      5  C   UNK d   1      15.937 -60.022  33.059  0.00  0.00     0.036 A 
ATOM      6  C   UNK d   1      15.196 -61.046  32.548  0.00  0.00     0.049 A 
ATOM      7  C   UNK d   1      14.030 -61.505  33.125  0.00  0.00     0.144 A 
ATOM      8  O   UNK d   1      13.318 -62.567  32.542  0.00  0.00    -0.189 OA
ATOM      9 Br   UNK d   1      15.773 -61.918  30.952  0.00  0.00    -0.048 Br
ATOM     10  C   UNK d   1      16.280 -58.291  34.798  0.00  0.00     0.159 A 
ATOM     11  O   UNK d   1      17.549 -58.831  35.163  0.00  0.00    -0.291 OA
ATOM     12  C   UNK d   1      18.577 -58.226  34.494  0.00  0.00     0.295 A 
ATOM     13  O   UNK d   1      19.792 -58.502  34.622  0.00  0.00    -0.259 OA
ATOM     14  C   UNK d   1      17.964 -57.229  33.638  0.00  0.00     0.049 A 
ATOM     15  C   UNK d   1      16.596 -57.238  33.791  0.00  0.00     0.003 A 
ATOM     16  C   UNK d   1      15.864 -56.362  33.059  0.00  0.00     0.012 A 
ATOM     17  C   UNK d   1      16.494 -55.494  32.191  0.00  0.00     0.001 A 
ATOM     18  C   UNK d   1      17.863 -55.483  32.034  0.00  0.00     0.001 A 
ATOM     19  C   UNK d   1      18.617 -56.361  32.768  0.00  0.00     0.018 A 
ATOM     20  C   UNK d   1      15.701 -57.737  36.017  0.00  0.00     0.023 A 
ATOM     21  C   UNK d   1      14.541 -58.230  36.546  0.00  0.00     0.106 A 
ATOM     22  C   UNK d   1      13.996 -57.681  37.725  0.00  0.00     0.083 A 
ATOM     23  C   UNK d   1      14.654 -56.640  38.337  0.00  0.00     0.144 A 
ATOM     24  C   UNK d   1      15.832 -56.134  37.806  0.00  0.00     0.049 A 
ATOM     25  C   UNK d   1      16.353 -56.670  36.663  0.00  0.00     0.036 A 
ATOM     26 Br   UNK d   1      16.754 -54.692  38.642  0.00  0.00    -0.048 Br
ATOM     27  O   UNK d   1      14.107 -56.110  39.496  0.00  0.00    -0.189 OA
ATOM     28 Br   UNK d   1      12.370 -58.398  38.435  0.00  0.00    -0.045 Br
ATOM     29  O   UNK d   1      13.836 -59.278  35.972  0.00  0.00    -0.306 OA
ENDROOT
TORSDOF 0
ENDMDL
