MODEL 1
REMARK VINA RESULT:    -6.801      0.000      0.000
REMARK INTER + INTRA:          -6.801
REMARK INTER:                  -6.801
REMARK INTRA:                   0.000
REMARK UNBOUND:                 0.000
REMARK  0 active torsions:
REMARK  status: ('A' for Active; 'I' for Inactive)
ROOT
ATOM      1  I   UNK d   1      11.200 -61.503  36.836  0.00  0.00    -0.038 I 
ATOM      2  C   UNK d   1      11.863 -62.072  34.913  0.00  0.00     0.078 A 
ATOM      3  C   UNK d   1      13.010 -61.452  34.428  0.00  0.00     0.105 A 
ATOM      4  C   UNK d   1      13.461 -61.797  33.196  0.00  0.00     0.023 A 
ATOM      5  C   UNK d   1      12.761 -62.757  32.460  0.00  0.00     0.035 A 
ATOM      6  C   UNK d   1      11.624 -63.377  32.932  0.00  0.00     0.045 A 
ATOM      7  C   UNK d   1      11.173 -63.021  34.187  0.00  0.00     0.143 A 
ATOM      8  O   UNK d   1      10.030 -63.631  34.682  0.00  0.00    -0.189 OA
ATOM      9  I   UNK d   1      10.599 -64.828  31.777  0.00  0.00    -0.042 I 
ATOM     10  C   UNK d   1      14.645 -61.213  32.595  0.00  0.00     0.161 A 
ATOM     11  O   UNK d   1      14.334 -60.555  31.358  0.00  0.00    -0.291 OA
ATOM     12  C   UNK d   1      15.049 -61.066  30.307  0.00  0.00     0.297 A 
ATOM     13  O   UNK d   1      15.035 -60.738  29.085  0.00  0.00    -0.259 OA
ATOM     14  C   UNK d   1      15.886 -62.122  30.858  0.00  0.00     0.074 A 
ATOM     15  C   UNK d   1      15.652 -62.210  32.197  0.00  0.00     0.028 A 
ATOM     16  C   UNK d   1      16.331 -63.151  32.971  0.00  0.00     0.068 A 
ATOM     17  C   UNK d   1      17.250 -64.008  32.404  0.00  0.00     0.080 A 
ATOM     18  C   UNK d   1      17.487 -63.916  31.035  0.00  0.00     0.080 A 
ATOM     19  C   UNK d   1      16.821 -62.992  30.271  0.00  0.00     0.074 A 
ATOM     20 Cl   UNK d   1      17.126 -62.890  28.579  0.00  0.00    -0.081 Cl
ATOM     21 Cl   UNK d   1      18.636 -64.969  30.258  0.00  0.00    -0.081 Cl
ATOM     22 Cl   UNK d   1      18.084 -65.175  33.404  0.00  0.00    -0.081 Cl
ATOM     23 Cl   UNK d   1      15.986 -63.209  34.667  0.00  0.00    -0.082 Cl
ATOM     24  C   UNK d   1      15.287 -60.209  33.487  0.00  0.00     0.023 A 
ATOM     25  C   UNK d   1      14.810 -59.889  34.712  0.00  0.00     0.105 A 
ATOM     26  C   UNK d   1      15.508 -58.931  35.443  0.00  0.00     0.078 A 
ATOM     27  C   UNK d   1      16.644 -58.312  34.973  0.00  0.00     0.143 A 
ATOM     28  C   UNK d   1      17.102 -58.664  33.719  0.00  0.00     0.045 A 
ATOM     29  C   UNK d   1      16.439 -59.602  32.970  0.00  0.00     0.035 A 
ATOM     30  I   UNK d   1      18.837 -57.734  32.970  0.00  0.00    -0.042 I 
ATOM     31  O   UNK d   1      17.332 -57.370  35.693  0.00  0.00    -0.189 OA
ATOM     32  I   UNK d   1      14.779 -58.425  37.345  0.00  0.00    -0.038 I 
ATOM     33  O   UNK d   1      13.672 -60.491  35.217  0.00  0.00    -0.307 OA
ENDROOT
TORSDOF 0
ENDMDL
