MODEL 1
REMARK VINA RESULT:    -7.574      0.000      0.000
REMARK INTER + INTRA:          -7.574
REMARK INTER:                  -7.574
REMARK INTRA:                   0.000
REMARK UNBOUND:                 0.000
REMARK  0 active torsions:
REMARK  status: ('A' for Active; 'I' for Inactive)
ROOT
ATOM      1  I   UNK d   1      11.144 -61.296  37.204  0.00  0.00    -0.038 I 
ATOM      2  C   UNK d   1      11.840 -61.878  35.289  0.00  0.00     0.078 A 
ATOM      3  C   UNK d   1      12.969 -61.196  34.806  0.00  0.00     0.105 A 
ATOM      4  C   UNK d   1      13.435 -61.551  33.579  0.00  0.00     0.023 A 
ATOM      5  C   UNK d   1      12.778 -62.566  32.861  0.00  0.00     0.035 A 
ATOM      6  C   UNK d   1      11.677 -63.231  33.335  0.00  0.00     0.045 A 
ATOM      7  C   UNK d   1      11.206 -62.871  34.578  0.00  0.00     0.143 A 
ATOM      8  O   UNK d   1      10.092 -63.523  35.089  0.00  0.00    -0.189 OA
ATOM      9  I   UNK d   1      10.736 -64.753  32.200  0.00  0.00    -0.042 I 
ATOM     10  C   UNK d   1      14.609 -60.898  32.987  0.00  0.00     0.159 A 
ATOM     11  O   UNK d   1      14.336 -60.404  31.690  0.00  0.00    -0.291 OA
ATOM     12  C   UNK d   1      15.132 -60.977  30.734  0.00  0.00     0.295 A 
ATOM     13  O   UNK d   1      15.152 -60.768  29.492  0.00  0.00    -0.259 OA
ATOM     14  C   UNK d   1      16.005 -61.923  31.415  0.00  0.00     0.049 A 
ATOM     15  C   UNK d   1      15.705 -61.885  32.738  0.00  0.00     0.003 A 
ATOM     16  C   UNK d   1      16.421 -62.718  33.605  0.00  0.00     0.012 A 
ATOM     17  C   UNK d   1      17.401 -63.550  33.116  0.00  0.00     0.001 A 
ATOM     18  C   UNK d   1      17.707 -63.592  31.772  0.00  0.00     0.001 A 
ATOM     19  C   UNK d   1      17.011 -62.778  30.911  0.00  0.00     0.018 A 
ATOM     20  C   UNK d   1      15.192 -59.856  33.850  0.00  0.00     0.023 A 
ATOM     21  C   UNK d   1      14.681 -59.549  35.064  0.00  0.00     0.105 A 
ATOM     22  C   UNK d   1      15.284 -58.552  35.824  0.00  0.00     0.078 A 
ATOM     23  C   UNK d   1      16.382 -57.886  35.357  0.00  0.00     0.143 A 
ATOM     24  C   UNK d   1      16.929 -58.173  34.128  0.00  0.00     0.045 A 
ATOM     25  C   UNK d   1      16.318 -59.156  33.399  0.00  0.00     0.035 A 
ATOM     26  I   UNK d   1      18.629 -57.139  33.412  0.00  0.00    -0.042 I 
ATOM     27  O   UNK d   1      16.965 -56.896  36.138  0.00  0.00    -0.189 OA
ATOM     28  I   UNK d   1      14.474 -58.075  37.731  0.00  0.00    -0.038 I 
ATOM     29  O   UNK d   1      13.554 -60.200  35.591  0.00  0.00    -0.307 OA
ENDROOT
TORSDOF 0
ENDMDL
