MODEL 1
REMARK VINA RESULT:    -9.025      0.000      0.000
REMARK INTER + INTRA:          -9.875
REMARK INTER:                 -10.080
REMARK INTRA:                   0.205
REMARK UNBOUND:                 0.205
REMARK  2 active torsions:
REMARK  status: ('A' for Active; 'I' for Inactive)
REMARK    1  A    between atoms: C_9  and  C_19 
REMARK    2  A    between atoms: C_20  and  C_25 
ROOT
ATOM      1  I   UNK d   1      13.982 -56.930  38.575  0.00  0.00    -0.038 I 
ATOM      2  C   UNK d   1      14.655 -57.282  36.610  0.00  0.00     0.077 A 
ATOM      3  C   UNK d   1      15.757 -56.643  36.076  0.00  0.00     0.106 A 
ATOM      4  C   UNK d   1      16.201 -56.870  34.791  0.00  0.00     0.011 A 
ATOM      5  C   UNK d   1      15.497 -57.780  34.024  0.00  0.00     0.018 A 
ATOM      6  C   UNK d   1      14.389 -58.426  34.551  0.00  0.00     0.042 A 
ATOM      7  C   UNK d   1      13.948 -58.191  35.847  0.00  0.00     0.126 A 
ATOM      8  O   UNK d   1      12.830 -58.868  36.327  0.00  0.00    -0.191 OA
ATOM      9  C   UNK d   1      17.300 -56.242  34.241  0.00  0.00     0.001 A 
ATOM     10  C   UNK d   1      17.959 -55.340  35.070  0.00  0.00     0.011 A 
ATOM     11  C   UNK d   1      17.458 -55.127  36.425  0.00  0.00     0.107 A 
ATOM     12  C   UNK d   1      18.153 -54.222  37.199  0.00  0.00     0.091 A 
ATOM     13  C   UNK d   1      19.262 -53.542  36.744  0.00  0.00     0.191 A 
ATOM     14  O   UNK d   1      19.888 -52.714  37.470  0.00  0.00    -0.287 OA
ATOM     15  C   UNK d   1      19.737 -53.742  35.463  0.00  0.00     0.057 A 
ATOM     16  C   UNK d   1      19.063 -54.643  34.662  0.00  0.00     0.019 A 
ATOM     17  I   UNK d   1      17.508 -53.848  39.164  0.00  0.00    -0.037 I 
ATOM     18  O   UNK d   1      16.401 -55.788  36.829  0.00  0.00    -0.306 OA
ENDROOT
BRANCH   9  19
ATOM     19  C   UNK d   1      17.772 -56.480  32.881  0.00  0.00    -0.007 A 
ATOM     20  C   UNK d   1      18.372 -57.702  32.593  0.00  0.00     0.051 A 
ATOM     21  C   UNK d   1      18.831 -57.971  31.330  0.00  0.00     0.019 A 
ATOM     22  C   UNK d   1      18.697 -57.022  30.341  0.00  0.00     0.001 A 
ATOM     23  C   UNK d   1      18.106 -55.805  30.600  0.00  0.00     0.001 A 
ATOM     24  C   UNK d   1      17.652 -55.556  31.876  0.00  0.00     0.013 A 
BRANCH  20  25
ATOM     25  C   UNK d   1      18.520 -58.715  33.634  0.00  0.00     0.210 C 
ATOM     26  O   UNK d   1      19.289 -58.578  34.611  0.00  0.00    -0.644 OA
ATOM     27  O   UNK d   1      17.796 -59.897  33.574  0.00  0.00    -0.644 OA
ENDBRANCH  20  25
ENDBRANCH   9  19
TORSDOF 2
ENDMDL
