/Users/jonathanwahrer/Desktop/Msc/3_Semester/Drug_Design_Praktikum/waehrer_HTS_screening/HTS_experiment/out/docking_results/vina_output/6s1j/0980_docked.pdbqt
 OpenBabel03222221433D

 27 30  0  0  1  0  0  0  0  0999 V2000
   13.9820  -56.9300   38.5750 I   0  0  0  0  0  0  0  0  0  0  0  0
   14.6550  -57.2820   36.6100 C   0  0  0  0  0  0  0  0  0  0  0  0
   15.7570  -56.6430   36.0760 C   0  0  0  0  0  0  0  0  0  0  0  0
   16.2010  -56.8700   34.7910 C   0  0  0  0  0  0  0  0  0  0  0  0
   15.4970  -57.7800   34.0240 C   0  0  0  0  0  2  0  0  0  0  0  0
   14.3890  -58.4260   34.5510 C   0  0  0  0  0  3  0  0  0  0  0  0
   13.9480  -58.1910   35.8470 C   0  0  0  0  0  0  0  0  0  0  0  0
   12.8300  -58.8680   36.3270 O   0  0  0  0  0  1  0  0  0  0  0  0
   17.3000  -56.2420   34.2410 C   0  0  0  0  0  0  0  0  0  0  0  0
   17.9590  -55.3400   35.0700 C   0  0  0  0  0  0  0  0  0  0  0  0
   17.4580  -55.1270   36.4250 C   0  0  0  0  0  0  0  0  0  0  0  0
   18.1530  -54.2220   37.1990 C   0  0  1  0  0  3  0  0  0  0  0  0
   19.2620  -53.5420   36.7440 C   0  0  0  0  0  0  0  0  0  0  0  0
   19.8880  -52.7140   37.4700 O   0  0  0  0  0  0  0  0  0  0  0  0
   19.7370  -53.7420   35.4630 C   0  0  0  0  0  3  0  0  0  0  0  0
   19.0630  -54.6430   34.6620 C   0  0  0  0  0  3  0  0  0  0  0  0
   17.5080  -53.8480   39.1640 I   0  0  0  0  0  0  0  0  0  0  0  0
   16.4010  -55.7880   36.8290 O   0  0  0  0  0  0  0  0  0  0  0  0
   17.7720  -56.4800   32.8810 C   0  0  0  0  0  0  0  0  0  0  0  0
   18.3720  -57.7020   32.5930 C   0  0  0  0  0  0  0  0  0  0  0  0
   18.8310  -57.9710   31.3300 C   0  0  0  0  0  3  0  0  0  0  0  0
   18.6970  -57.0220   30.3410 C   0  0  0  0  0  3  0  0  0  0  0  0
   18.1060  -55.8050   30.6000 C   0  0  0  0  0  3  0  0  0  0  0  0
   17.6520  -55.5560   31.8760 C   0  0  0  0  0  3  0  0  0  0  0  0
   18.5200  -58.7150   33.6340 C   0  0  0  0  0  0  0  0  0  0  0  0
   19.2890  -58.5780   34.6110 O   0  0  0  0  0  1  0  0  0  0  0  0
   17.7960  -59.8970   33.5740 O   0  0  0  0  0  0  0  0  0  0  0  0
  2  1  1  0  0  0  0
  3  2  2  0  0  0  0
  3 18  1  0  0  0  0
  4  3  1  0  0  0  0
  5  6  1  0  0  0  0
  5  4  1  0  0  0  0
  6  7  2  0  0  0  0
  7  8  1  0  0  0  0
  7  2  1  0  0  0  0
  9  4  2  0  0  0  0
  9 10  1  0  0  0  0
 10 11  2  0  0  0  0
 11 18  1  0  0  0  0
 11 12  1  0  0  0  0
 12 17  1  6  0  0  0
 13 12  1  0  0  0  0
 13 14  2  0  0  0  0
 15 13  1  0  0  0  0
 16 10  1  0  0  0  0
 16 15  2  0  0  0  0
 19  9  1  0  0  0  0
 20 19  1  0  0  0  0
 20 25  1  0  0  0  0
 21 20  2  0  0  0  0
 22 23  2  0  0  0  0
 22 21  1  0  0  0  0
 23 24  1  0  0  0  0
 24 19  2  0  0  0  0
 25 26  1  0  0  0  0
 27 25  2  0  0  0  0
M  END
>  <Pose>
1

>  <Score>
-9.025

$$$$
