MODEL 1
REMARK VINA RESULT:    -8.410      0.000      0.000
REMARK INTER + INTRA:          -9.638
REMARK INTER:                  -9.639
REMARK INTRA:                   0.001
REMARK UNBOUND:                 0.001
REMARK  4 active torsions:
REMARK  status: ('A' for Active; 'I' for Inactive)
REMARK    1  A    between atoms: C_7  and  N_10 
REMARK    2  A    between atoms: C_8  and  O_9 
REMARK    3  A    between atoms: C_13  and  N_21 
REMARK    4  A    between atoms: C_15  and  O_20 
ROOT
ATOM      1  N   UNK d   1      16.888 -55.627  36.461  0.00  0.00    -0.277 N 
ATOM      2  C   UNK d   1      16.986 -54.473  37.132  0.00  0.00     0.186 A 
ATOM      3  N   UNK d   1      17.642 -53.313  36.851  0.00  0.00    -0.042 NA
ATOM      4  C   UNK d   1      17.623 -52.252  37.654  0.00  0.00     0.724 A 
ATOM      5  N   UNK d   1      16.923 -52.328  38.800  0.00  0.00    -0.036 NA
ATOM      6  C   UNK d   1      16.250 -53.447  39.139  0.00  0.00     0.214 A 
ATOM      7  C   UNK d   1      16.268 -54.548  38.309  0.00  0.00     0.159 A 
ATOM      8  N   UNK d   1      15.731 -55.777  38.335  0.00  0.00    -0.216 NA
ATOM      9  C   UNK d   1      16.111 -56.429  37.210  0.00  0.00     0.182 A 
ATOM     10 Br   UNK d   1      15.631 -58.220  36.731  0.00  0.00    -0.008 Br
ENDROOT
BRANCH   1  11
ATOM     11  C   UNK d   1      17.529 -55.864  35.191  0.00  0.00     0.263 C 
ATOM     12  O   UNK d   1      18.585 -54.982  34.963  0.00  0.00    -0.353 OA
ATOM     13  C   UNK d   1      18.955 -55.329  33.687  0.00  0.00     0.180 C 
ATOM     14  C   UNK d   1      17.623 -55.217  32.935  0.00  0.00     0.198 C 
ATOM     15  C   UNK d   1      19.930 -54.420  33.037  0.00  0.00     0.216 C 
ATOM     16  O   UNK d   1      17.656 -56.204  31.954  0.00  0.00    -0.279 OA
ATOM     17  C   UNK d   1      16.611 -55.519  34.020  0.00  0.00     0.199 C 
ATOM     18  P   UNK d   1      19.247 -56.211  31.335  0.00  0.00     0.408 P 
ATOM     19  O   UNK d   1      19.984 -57.466  31.748  0.00  0.00    -0.624 OA
ATOM     20  O   UNK d   1      20.075 -54.811  31.702  0.00  0.00    -0.287 OA
ATOM     21  O   UNK d   1      19.079 -56.301  29.635  0.00  0.00    -0.624 OA
BRANCH  17  22
ATOM     22  O   UNK d   1      15.757 -56.544  33.698  0.00  0.00    -0.388 OA
ATOM     23  H   UNK d   1      15.814 -57.270  34.396  0.00  0.00     0.210 HD
ENDBRANCH  17  22
ENDBRANCH   1  11
BRANCH   4  24
ATOM     24  N   UNK d   1      18.327 -51.060  37.317  0.00  0.00    -0.231 N 
ATOM     25  H   UNK d   1      17.746 -50.233  37.061  0.00  0.00     0.174 HD
ATOM     26  H   UNK d   1      19.376 -51.004  37.321  0.00  0.00     0.174 HD
ENDBRANCH   4  24
BRANCH   6  27
ATOM     27  O   UNK d   1      15.524 -53.529  40.324  0.00  0.00    -0.343 OA
ATOM     28  H   UNK d   1      15.002 -54.406  40.471  0.00  0.00     0.219 HD
ENDBRANCH   6  27
TORSDOF 4
ENDMDL
