/Users/jonathanwahrer/Desktop/Msc/3_Semester/Drug_Design_Praktikum/waehrer_HTS_screening/HTS_experiment/out/docking_results/vina_output/6s1j/0991_docked.pdbqt
 OpenBabel03222221443D

 34 39  0  0  1  0  0  0  0  0999 V2000
   18.5290  -58.2230   29.7940 N   0  0  0  0  0  0  0  0  0  0  0  0
   18.2010  -57.5710   30.9370 C   0  0  0  0  0  0  0  0  0  0  0  0
   17.0410  -58.0870   31.4760 C   0  0  0  0  0  0  0  0  0  0  0  0
   16.6690  -59.0720   30.6330 N   0  0  0  0  0  0  0  0  0  0  0  0
   17.5650  -59.1460   29.6280 C   0  0  0  0  0  0  0  0  0  0  0  0
   17.5420  -60.3580   28.1480 Br  0  0  0  0  0  0  0  0  0  0  0  0
   16.5390  -57.5540   32.6470 C   0  0  0  0  0  0  0  0  0  0  0  0
   15.4880  -58.0150   33.1450 O   0  0  0  0  0  0  0  0  0  0  0  0
   17.1470  -56.5340   33.2940 N   0  0  0  0  0  0  0  0  0  0  0  0
   18.2770  -56.0460   32.7510 C   0  0  0  0  0  0  0  0  0  0  0  0
   18.6780  -55.0570   33.5690 N   0  0  0  0  0  0  0  0  0  0  0  0
   17.8420  -54.9020   34.6120 C   0  0  0  0  0  0  0  0  0  0  0  0
   16.8570  -55.8510   34.4360 C   0  0  0  0  0  3  0  0  0  0  0  0
   18.7890  -56.5580   31.5950 N   0  0  0  0  0  0  0  0  0  0  0  0
   19.6670  -56.1750   31.1780 H   0  0  0  0  0  0  0  0  0  0  0  0
   19.6770  -57.9840   28.9240 C   0  0  2  0  0  3  0  0  0  0  0  0
   20.8680  -58.0250   29.6460 O   0  0  0  0  0  0  0  0  0  0  0  0
   21.7950  -57.2740   28.9780 C   0  0  1  0  0  3  0  0  0  0  0  0
   20.9870  -56.1070   28.4050 C   0  0  1  0  0  3  0  0  0  0  0  0
   22.8480  -56.6620   29.8700 C   0  0  0  0  0  2  0  0  0  0  0  0
   21.6040  -55.7650   27.2060 O   0  0  0  0  0  0  0  0  0  0  0  0
   19.6100  -56.6710   28.2230 C   0  0  1  0  0  3  0  0  0  0  0  0
   23.2770  -55.7780   27.5010 P   0  0  1  0  0  0  0  0  0  0  0  0
   23.9480  -54.3190   26.8380 S   0  0  0  0  0  1  0  0  0  0  0  0
   23.6130  -55.7670   29.1560 O   0  0  0  0  0  0  0  0  0  0  0  0
   24.0120  -57.1480   26.8400 O   0  0  0  0  0  0  0  0  0  0  0  0
   19.3240  -56.8360   26.8620 O   0  0  0  0  0  0  0  0  0  0  0  0
   20.0850  -56.6010   26.2940 H   0  0  0  0  0  0  0  0  0  0  0  0
   17.9490  -53.9310   35.7080 C   0  0  0  0  0  0  0  0  0  0  0  0
   16.9760  -53.8710   36.6800 C   0  0  0  0  0  3  0  0  0  0  0  0
   17.0490  -52.9630   37.7290 C   0  0  0  0  0  3  0  0  0  0  0  0
   18.1240  -52.1070   37.7900 C   0  0  0  0  0  3  0  0  0  0  0  0
   19.1250  -52.1340   36.8310 C   0  0  0  0  0  3  0  0  0  0  0  0
   19.0010  -53.0550   35.8140 C   0  0  0  0  0  3  0  0  0  0  0  0
  1  2  1  0  0  0  0
  2  3  2  0  0  0  0
  2 14  1  0  0  0  0
  3  7  1  0  0  0  0
  4  3  1  0  0  0  0
  5  1  1  0  0  0  0
  5  4  2  0  0  0  0
  6  5  1  0  0  0  0
  7  8  2  0  0  0  0
  7  9  1  0  0  0  0
  9 13  1  0  0  0  0
 10  9  1  0  0  0  0
 10 11  2  0  0  0  0
 11 12  1  0  0  0  0
 12 29  1  0  0  0  0
 13 12  2  0  0  0  0
 14 10  1  0  0  0  0
 15 14  1  0  0  0  0
 16 17  1  0  0  0  0
 16  1  1  1  0  0  0
 18 17  1  0  0  0  0
 18 20  1  1  0  0  0
 19 21  1  6  0  0  0
 19 18  1  0  0  0  0
 21 23  1  0  0  0  0
 22 27  1  6  0  0  0
 22 19  1  0  0  0  0
 22 16  1  0  0  0  0
 23 24  1  6  0  0  0
 23 25  1  0  0  0  0
 25 20  1  0  0  0  0
 26 23  2  0  0  0  0
 28 27  1  0  0  0  0
 29 34  2  0  0  0  0
 29 30  1  0  0  0  0
 30 31  2  0  0  0  0
 31 32  1  0  0  0  0
 33 32  2  0  0  0  0
 34 33  1  0  0  0  0
M  END
>  <Pose>
1

>  <Score>
-10.184

$$$$
