MODEL 1
REMARK VINA RESULT:   -10.184      0.000      0.000
REMARK INTER + INTRA:         -12.629
REMARK INTER:                 -11.672
REMARK INTRA:                  -0.957
REMARK UNBOUND:                -0.957
REMARK  3 active torsions:
REMARK  status: ('A' for Active; 'I' for Inactive)
REMARK    1  A    between atoms: C_7  and  N_10 
REMARK    2  A    between atoms: C_8  and  O_9 
REMARK    3  A    between atoms: C_21  and  C_23 
ROOT
ATOM      1  N   UNK d   1      18.529 -58.223  29.794  0.00  0.00    -0.279 N 
ATOM      2  C   UNK d   1      18.201 -57.571  30.937  0.00  0.00     0.162 A 
ATOM      3  C   UNK d   1      17.041 -58.087  31.476  0.00  0.00     0.173 A 
ATOM      4  N   UNK d   1      16.669 -59.072  30.633  0.00  0.00    -0.214 NA
ATOM      5  C   UNK d   1      17.565 -59.146  29.628  0.00  0.00     0.182 A 
ATOM      6 Br   UNK d   1      17.542 -60.358  28.148  0.00  0.00    -0.008 Br
ATOM      7  C   UNK d   1      16.539 -57.554  32.647  0.00  0.00     0.298 A 
ATOM      8  O   UNK d   1      15.488 -58.015  33.145  0.00  0.00    -0.264 OA
ATOM      9  N   UNK d   1      17.147 -56.534  33.294  0.00  0.00    -0.115 N 
ATOM     10  C   UNK d   1      18.277 -56.046  32.751  0.00  0.00     0.716 A 
ATOM     11  N   UNK d   1      18.678 -55.057  33.569  0.00  0.00    -0.062 NA
ATOM     12  C   UNK d   1      17.842 -54.902  34.612  0.00  0.00     0.102 A 
ATOM     13  C   UNK d   1      16.857 -55.851  34.436  0.00  0.00     0.152 A 
ATOM     14  N   UNK d   1      18.789 -56.558  31.595  0.00  0.00    -0.171 N 
ATOM     15  H   UNK d   1      19.667 -56.175  31.178  0.00  0.00     0.186 HD
ENDROOT
BRANCH   1  16
ATOM     16  C   UNK d   1      19.677 -57.984  28.924  0.00  0.00     0.263 C 
ATOM     17  O   UNK d   1      20.868 -58.025  29.646  0.00  0.00    -0.353 OA
ATOM     18  C   UNK d   1      21.795 -57.274  28.978  0.00  0.00     0.180 C 
ATOM     19  C   UNK d   1      20.987 -56.107  28.405  0.00  0.00     0.197 C 
ATOM     20  C   UNK d   1      22.848 -56.662  29.870  0.00  0.00     0.214 C 
ATOM     21  O   UNK d   1      21.604 -55.765  27.206  0.00  0.00    -0.292 OA
ATOM     22  C   UNK d   1      19.610 -56.671  28.223  0.00  0.00     0.199 C 
ATOM     23  P   UNK d   1      23.277 -55.778  27.501  0.00  0.00     0.422 P 
ATOM     24  S   UNK d   1      23.948 -54.319  26.838  0.00  0.00     0.009 SA
ATOM     25  O   UNK d   1      23.613 -55.767  29.156  0.00  0.00    -0.300 OA
ATOM     26  O   UNK d   1      24.012 -57.148  26.840  0.00  0.00    -0.240 OA
BRANCH  22  27
ATOM     27  O   UNK d   1      19.324 -56.836  26.862  0.00  0.00    -0.388 OA
ATOM     28  H   UNK d   1      20.085 -56.601  26.294  0.00  0.00     0.210 HD
ENDBRANCH  22  27
ENDBRANCH   1  16
BRANCH  12  29
ATOM     29  C   UNK d   1      17.949 -53.931  35.708  0.00  0.00    -0.005 A 
ATOM     30  C   UNK d   1      16.976 -53.871  36.680  0.00  0.00     0.014 A 
ATOM     31  C   UNK d   1      17.049 -52.963  37.729  0.00  0.00     0.001 A 
ATOM     32  C   UNK d   1      18.124 -52.107  37.790  0.00  0.00     0.000 A 
ATOM     33  C   UNK d   1      19.125 -52.134  36.831  0.00  0.00     0.001 A 
ATOM     34  C   UNK d   1      19.001 -53.055  35.814  0.00  0.00     0.014 A 
ENDBRANCH  12  29
TORSDOF 3
ENDMDL
