MODEL 1
REMARK VINA RESULT:    -7.863      0.000      0.000
REMARK INTER + INTRA:          -9.062
REMARK INTER:                  -8.783
REMARK INTRA:                  -0.279
REMARK UNBOUND:                -0.279
REMARK  3 active torsions:
REMARK  status: ('A' for Active; 'I' for Inactive)
REMARK    1  A    between atoms: C_7  and  N_10 
REMARK    2  A    between atoms: C_8  and  O_9 
REMARK    3  A    between atoms: C_15  and  N_20 
ROOT
ATOM      1  P   UNK d   1      17.270 -57.819  31.960  0.00  0.00     0.422 P 
ATOM      2  S   UNK d   1      17.771 -56.176  31.651  0.00  0.00     0.009 SA
ATOM      3  O   UNK d   1      15.804 -57.818  32.835  0.00  0.00    -0.292 OA
ATOM      4  C   UNK d   1      16.104 -57.414  34.113  0.00  0.00     0.197 C 
ATOM      5  C   UNK d   1      17.059 -58.439  34.739  0.00  0.00     0.180 C 
ATOM      6  O   UNK d   1      16.964 -58.072  36.081  0.00  0.00    -0.353 OA
ATOM      7  C   UNK d   1      15.620 -57.957  36.342  0.00  0.00     0.263 C 
ATOM      8  C   UNK d   1      14.932 -57.538  35.067  0.00  0.00     0.199 C 
ATOM      9  C   UNK d   1      18.444 -58.299  34.190  0.00  0.00     0.214 C 
ATOM     10  O   UNK d   1      18.420 -58.642  32.850  0.00  0.00    -0.300 OA
ATOM     11  O   UNK d   1      16.997 -58.563  30.490  0.00  0.00    -0.240 OA
ENDROOT
BRANCH   7  12
ATOM     12  N   UNK d   1      15.323 -56.953  37.346  0.00  0.00    -0.278 N 
ATOM     13  C   UNK d   1      16.032 -55.807  37.509  0.00  0.00     0.168 A 
ATOM     14  N   UNK d   1      17.113 -55.306  36.857  0.00  0.00    -0.221 NA
ATOM     15  C   UNK d   1      15.476 -55.090  38.548  0.00  0.00     0.151 A 
ATOM     16  C   UNK d   1      17.650 -54.122  37.208  0.00  0.00     0.237 A 
ATOM     17  N   UNK d   1      17.108 -53.413  38.229  0.00  0.00    -0.222 NA
ATOM     18  C   UNK d   1      16.038 -53.876  38.899  0.00  0.00     0.155 A 
ATOM     19  N   UNK d   1      14.433 -55.800  39.013  0.00  0.00    -0.216 NA
ATOM     20  C   UNK d   1      14.352 -56.929  38.274  0.00  0.00     0.182 A 
ATOM     21 Br   UNK d   1      13.067 -58.344  38.457  0.00  0.00    -0.008 Br
BRANCH  18  22
ATOM     22  N   UNK d   1      15.477 -53.116  39.974  0.00  0.00    -0.382 N 
ATOM     23  H   UNK d   1      15.244 -52.099  39.802  0.00  0.00     0.157 HD
ATOM     24  H   UNK d   1      15.291 -53.525  40.911  0.00  0.00     0.157 HD
ENDBRANCH  18  22
ENDBRANCH   7  12
BRANCH   8  25
ATOM     25  O   UNK d   1      14.177 -58.634  34.630  0.00  0.00    -0.388 OA
ATOM     26  H   UNK d   1      14.600 -59.126  33.902  0.00  0.00     0.210 HD
ENDBRANCH   8  25
TORSDOF 3
ENDMDL
