MODEL 1
REMARK VINA RESULT:    -8.073      0.000      0.000
REMARK INTER + INTRA:         -13.288
REMARK INTER:                 -12.320
REMARK INTRA:                  -0.968
REMARK UNBOUND:                -0.968
REMARK  9 active torsions:
REMARK  status: ('A' for Active; 'I' for Inactive)
REMARK    1  A    between atoms: C_4  and  C_12 
REMARK    2  A    between atoms: C_5  and  C_7 
REMARK    3  A    between atoms: C_7  and  O_8 
REMARK    4  A    between atoms: O_8  and  C_9 
REMARK    5  A    between atoms: C_17  and  N_18 
REMARK       I    between atoms: N_18  and  C_19 
REMARK    6  A    between atoms: C_19  and  C_21 
REMARK    7  A    between atoms: C_23  and  C_26 
REMARK    8  A    between atoms: C_26  and  O_27 
REMARK    9  A    between atoms: O_27  and  C_28 
ROOT
ATOM      1  N   UNK d   1      11.769 -60.159  39.814  0.00  0.00    -0.339 N 
ATOM      2  C   UNK d   1      12.477 -60.002  38.598  0.00  0.00     0.276 C 
ATOM      3  O   UNK d   1      12.486 -60.965  37.785  0.00  0.00    -0.265 OA
ATOM      4  H   UNK d   1      11.775 -59.342  40.477  0.00  0.00     0.163 HD
ENDROOT
BRANCH   1   5
ATOM      5  C   UNK d   1      11.094 -61.389  40.078  0.00  0.00     0.211 C 
ATOM      6  C   UNK d   1      10.373 -61.538  41.351  0.00  0.00     0.187 C 
ATOM      7  S   UNK d   1      11.053 -60.923  42.890  0.00  0.00    -0.136 SA
ATOM      8  N   UNK d   1       9.465 -60.562  40.839  0.00  0.00    -0.293 N 
ATOM      9  C   UNK d   1       9.466 -60.507  43.702  0.00  0.00     0.115 C 
ATOM     10  C   UNK d   1       8.814 -59.441  42.810  0.00  0.00    -0.013 C 
ATOM     11  C   UNK d   1       8.820 -59.478  41.515  0.00  0.00     0.121 C 
ATOM     12  C   UNK d   1       9.658 -61.233  39.606  0.00  0.00     0.251 C 
ATOM     13  O   UNK d   1       9.105 -61.603  38.564  0.00  0.00    -0.271 OA
BRANCH  10  14
ATOM     14  C   UNK d   1       8.214 -58.416  43.625  0.00  0.00     0.216 C 
BRANCH  14  15
ATOM     15  O   UNK d   1       8.205 -58.448  44.979  0.00  0.00    -0.317 OA
BRANCH  15  16
ATOM     16  C   UNK d   1       8.882 -57.518  45.777  0.00  0.00     0.255 C 
ATOM     17  O   UNK d   1       8.258 -56.492  46.105  0.00  0.00    -0.266 OA
ATOM     18  C   UNK d   1      10.279 -57.825  46.166  0.00  0.00     0.126 C 
ENDBRANCH  15  16
ENDBRANCH  14  15
ENDBRANCH  10  14
BRANCH  11  19
ATOM     19  C   UNK d   1       8.185 -58.453  40.637  0.00  0.00     0.227 C 
ATOM     20  O   UNK d   1       8.326 -57.251  40.707  0.00  0.00    -0.643 OA
ATOM     21  O   UNK d   1       7.326 -58.887  39.610  0.00  0.00    -0.643 OA
ENDBRANCH  11  19
ENDBRANCH   1   5
BRANCH   2  22
ATOM     22  C   UNK d   1      13.191 -58.766  38.264  0.00  0.00     0.143 A 
ATOM     23  O   UNK d   1      13.366 -57.697  38.978  0.00  0.00    -0.307 OA
ATOM     24  C   UNK d   1      14.053 -56.795  38.356  0.00  0.00     0.078 A 
ATOM     25  C   UNK d   1      14.371 -57.310  37.094  0.00  0.00     0.038 A 
ATOM     26  C   UNK d   1      13.815 -58.561  37.055  0.00  0.00     0.045 A 
BRANCH  24  27
ATOM     27  C   UNK d   1      14.464 -55.429  38.847  0.00  0.00     0.240 C 
BRANCH  27  28
ATOM     28  O   UNK d   1      15.861 -55.336  38.953  0.00  0.00    -0.345 OA
BRANCH  28  29
ATOM     29  C   UNK d   1      16.644 -54.346  38.432  0.00  0.00     0.069 A 
ATOM     30  C   UNK d   1      16.427 -52.984  38.623  0.00  0.00     0.038 A 
ATOM     31  C   UNK d   1      17.282 -52.070  38.051  0.00  0.00     0.022 A 
ATOM     32  C   UNK d   1      18.365 -52.425  37.281  0.00  0.00     0.011 A 
ATOM     33  C   UNK d   1      18.589 -53.777  37.086  0.00  0.00     0.022 A 
ATOM     34 Br   UNK d   1      19.517 -51.113  36.514  0.00  0.00    -0.051 Br
ATOM     35  C   UNK d   1      17.730 -54.705  37.661  0.00  0.00     0.038 A 
ENDBRANCH  28  29
ENDBRANCH  27  28
ENDBRANCH  24  27
ENDBRANCH   2  22
TORSDOF 9
ENDMDL
