MODEL 1
REMARK VINA RESULT:    -8.404      0.000      0.000
REMARK INTER + INTRA:          -9.210
REMARK INTER:                  -9.387
REMARK INTRA:                   0.176
REMARK UNBOUND:                 0.176
REMARK  3 active torsions:
REMARK  status: ('A' for Active; 'I' for Inactive)
REMARK    1  A    between atoms: C_7  and  N_10 
REMARK    2  A    between atoms: C_8  and  O_9 
REMARK    3  A    between atoms: C_15  and  N_20 
ROOT
ATOM      1  P   UNK d   1      14.768 -59.916  33.356  0.00  0.00     0.408 P 
ATOM      2  O   UNK d   1      14.019 -61.168  33.816  0.00  0.00    -0.624 OA
ATOM      3  O   UNK d   1      16.120 -59.747  34.337  0.00  0.00    -0.279 OA
ATOM      4  C   UNK d   1      16.263 -58.463  34.795  0.00  0.00     0.198 C 
ATOM      5  C   UNK d   1      15.753 -57.541  33.679  0.00  0.00     0.180 C 
ATOM      6  O   UNK d   1      16.432 -56.366  33.814  0.00  0.00    -0.353 OA
ATOM      7  C   UNK d   1      17.626 -56.586  34.442  0.00  0.00     0.263 C 
ATOM      8  C   UNK d   1      17.692 -58.001  34.901  0.00  0.00     0.199 C 
ATOM      9  C   UNK d   1      14.272 -57.450  33.860  0.00  0.00     0.216 C 
ATOM     10  O   UNK d   1      13.705 -58.634  33.454  0.00  0.00    -0.287 OA
ATOM     11  O   UNK d   1      15.247 -60.229  31.744  0.00  0.00    -0.624 OA
ENDROOT
BRANCH   7  12
ATOM     12  N   UNK d   1      17.734 -55.632  35.538  0.00  0.00    -0.278 N 
ATOM     13  C   UNK d   1      16.994 -55.641  36.672  0.00  0.00     0.168 A 
ATOM     14  N   UNK d   1      16.021 -56.471  37.082  0.00  0.00    -0.221 NA
ATOM     15  C   UNK d   1      17.392 -54.581  37.459  0.00  0.00     0.151 A 
ATOM     16  C   UNK d   1      15.432 -56.261  38.270  0.00  0.00     0.237 A 
ATOM     17  N   UNK d   1      15.822 -55.226  39.036  0.00  0.00    -0.222 NA
ATOM     18  C   UNK d   1      16.786 -54.358  38.693  0.00  0.00     0.155 A 
ATOM     19  N   UNK d   1      18.360 -53.934  36.815  0.00  0.00    -0.216 NA
ATOM     20  C   UNK d   1      18.560 -54.579  35.651  0.00  0.00     0.182 A 
ATOM     21 Br   UNK d   1      19.838 -54.119  34.282  0.00  0.00    -0.008 Br
BRANCH  18  22
ATOM     22  N   UNK d   1      17.206 -53.262  39.492  0.00  0.00    -0.382 N 
ATOM     23  H   UNK d   1      17.791 -53.473  40.354  0.00  0.00     0.157 HD
ATOM     24  H   UNK d   1      16.986 -52.281  39.296  0.00  0.00     0.157 HD
ENDBRANCH  18  22
ENDBRANCH   7  12
BRANCH   8  25
ATOM     25  O   UNK d   1      18.514 -58.800  34.132  0.00  0.00    -0.388 OA
ATOM     26  H   UNK d   1      18.770 -58.402  33.284  0.00  0.00     0.210 HD
ENDBRANCH   8  25
TORSDOF 3
ENDMDL
