/Users/jonathanwahrer/Desktop/Msc/3_Semester/Drug_Design_Praktikum/waehrer_HTS_screening/HTS_experiment/out/docking_results/vina_output/6s1j/1001_docked.pdbqt
 OpenBabel03222221453D

 26 29  0  0  1  0  0  0  0  0999 V2000
   14.7680  -59.9160   33.3560 P   0  0  2  0  0  0  0  0  0  0  0  0
   14.0190  -61.1680   33.8160 O   0  0  0  0  0  1  0  0  0  0  0  0
   16.1200  -59.7470   34.3370 O   0  0  0  0  0  0  0  0  0  0  0  0
   16.2630  -58.4630   34.7950 C   0  0  2  0  0  3  0  0  0  0  0  0
   15.7530  -57.5410   33.6790 C   0  0  2  0  0  3  0  0  0  0  0  0
   16.4320  -56.3660   33.8140 O   0  0  0  0  0  0  0  0  0  0  0  0
   17.6260  -56.5860   34.4420 C   0  0  2  0  0  3  0  0  0  0  0  0
   17.6920  -58.0010   34.9010 C   0  0  2  0  0  3  0  0  0  0  0  0
   14.2720  -57.4500   33.8600 C   0  0  0  0  0  2  0  0  0  0  0  0
   13.7050  -58.6340   33.4540 O   0  0  0  0  0  0  0  0  0  0  0  0
   15.2470  -60.2290   31.7440 O   0  0  0  0  0  0  0  0  0  0  0  0
   17.7340  -55.6320   35.5380 N   0  0  0  0  0  0  0  0  0  0  0  0
   16.9940  -55.6410   36.6720 C   0  0  0  0  0  0  0  0  0  0  0  0
   16.0210  -56.4710   37.0820 N   0  0  0  0  0  0  0  0  0  0  0  0
   17.3920  -54.5810   37.4590 C   0  0  0  0  0  0  0  0  0  0  0  0
   15.4320  -56.2610   38.2700 C   0  0  0  0  0  3  0  0  0  0  0  0
   15.8220  -55.2260   39.0360 N   0  0  0  0  0  0  0  0  0  0  0  0
   16.7860  -54.3580   38.6930 C   0  0  0  0  0  0  0  0  0  0  0  0
   18.3600  -53.9340   36.8150 N   0  0  0  0  0  0  0  0  0  0  0  0
   18.5600  -54.5790   35.6510 C   0  0  0  0  0  0  0  0  0  0  0  0
   19.8380  -54.1190   34.2820 Br  0  0  0  0  0  0  0  0  0  0  0  0
   17.2060  -53.2620   39.4920 N   0  0  0  0  0  0  0  0  0  0  0  0
   17.7910  -53.4730   40.3540 H   0  0  0  0  0  0  0  0  0  0  0  0
   16.9860  -52.2810   39.2960 H   0  0  0  0  0  0  0  0  0  0  0  0
   18.5140  -58.8000   34.1320 O   0  0  0  0  0  0  0  0  0  0  0  0
   18.7700  -58.4020   33.2840 H   0  0  0  0  0  0  0  0  0  0  0  0
  1 11  2  6  0  0  0
  1 10  1  0  0  0  0
  1  2  1  0  0  0  0
  1  3  1  0  0  0  0
  4  3  1  6  0  0  0
  4  8  1  0  0  0  0
  5  6  1  0  0  0  0
  5  9  1  1  0  0  0
  5  4  1  0  0  0  0
  6  7  1  0  0  0  0
  7  8  1  0  0  0  0
  7 12  1  1  0  0  0
  8 25  1  6  0  0  0
 10  9  1  0  0  0  0
 12 20  1  0  0  0  0
 12 13  1  0  0  0  0
 13 14  2  0  0  0  0
 13 15  1  0  0  0  0
 14 16  1  0  0  0  0
 15 18  2  0  0  0  0
 16 17  2  0  0  0  0
 18 17  1  0  0  0  0
 18 22  1  0  0  0  0
 19 15  1  0  0  0  0
 20 19  2  0  0  0  0
 21 20  1  0  0  0  0
 22 23  1  0  0  0  0
 24 22  1  0  0  0  0
 26 25  1  0  0  0  0
M  END
>  <Pose>
1

>  <Score>
-8.404

$$$$
