MODEL 1
REMARK VINA RESULT:    -8.588      0.000      0.000
REMARK INTER + INTRA:         -11.062
REMARK INTER:                 -10.346
REMARK INTRA:                  -0.716
REMARK UNBOUND:                -0.716
REMARK  4 active torsions:
REMARK  status: ('A' for Active; 'I' for Inactive)
REMARK    1  A    between atoms: S_1  and  N_4 
REMARK    2  A    between atoms: S_1  and  C_5 
REMARK    3  A    between atoms: C_7  and  C_12 
REMARK       I    between atoms: C_12  and  N_14 
REMARK    4  A    between atoms: C_16  and  C_20 
ROOT
ATOM      1  C   UNK d   1      17.568 -55.568  33.192  0.00  0.00     0.255 C 
ATOM      2  O   UNK d   1      16.327 -55.760  33.185  0.00  0.00    -0.267 OA
ATOM      3  N   UNK d   1      18.135 -54.609  34.082  0.00  0.00    -0.347 N 
ATOM      4  C   UNK d   1      17.292 -53.849  34.980  0.00  0.00     0.138 C 
ATOM      5  C   UNK d   1      17.889 -53.672  36.341  0.00  0.00     0.075 C 
ATOM      6  C   UNK d   1      19.024 -54.692  36.464  0.00  0.00     0.015 C 
ATOM      7  C   UNK d   1      20.095 -54.225  35.503  0.00  0.00     0.021 C 
ATOM      8  C   UNK d   1      19.555 -54.375  34.104  0.00  0.00     0.126 C 
ENDROOT
BRANCH   1   9
ATOM      9  C   UNK d   1      18.408 -56.332  32.291  0.00  0.00     0.051 A 
ATOM     10  C   UNK d   1      18.747 -55.845  31.033  0.00  0.00     0.043 A 
ATOM     11  C   UNK d   1      19.545 -56.558  30.168  0.00  0.00     0.075 A 
ATOM     12  C   UNK d   1      20.033 -57.798  30.539  0.00  0.00     0.026 A 
ATOM     13  C   UNK d   1      19.707 -58.296  31.780  0.00  0.00     0.021 A 
ATOM     14  C   UNK d   1      18.898 -57.567  32.652  0.00  0.00     0.026 A 
ATOM     15 Br   UNK d   1      18.479 -58.299  34.348  0.00  0.00    -0.050 Br
BRANCH  11  16
ATOM     16  S   UNK d   1      19.932 -55.893  28.609  0.00  0.00     0.239 S 
ATOM     17  O   UNK d   1      18.660 -55.379  27.967  0.00  0.00    -0.206 OA
ATOM     18  O   UNK d   1      20.525 -56.949  27.709  0.00  0.00    -0.206 OA
BRANCH  16  19
ATOM     19  N   UNK d   1      20.989 -54.553  28.778  0.00  0.00    -0.225 NA
ATOM     20  H   UNK d   1      20.739 -53.774  28.121  0.00  0.00     0.136 HD
ATOM     21  H   UNK d   1      21.983 -54.852  28.619  0.00  0.00     0.136 HD
ENDBRANCH  16  19
ENDBRANCH  11  16
ENDBRANCH   1   9
BRANCH   5  22
ATOM     22  C   UNK d   1      16.895 -53.846  37.448  0.00  0.00     0.136 A 
ATOM     23  N   UNK d   1      16.206 -54.979  37.744  0.00  0.00    -0.320 N 
ATOM     24  C   UNK d   1      15.407 -54.773  38.796  0.00  0.00     0.130 A 
ATOM     25  C   UNK d   1      16.070 -56.343  37.266  0.00  0.00     0.132 C 
ATOM     26  N   UNK d   1      15.621 -53.470  39.150  0.00  0.00    -0.135 NA
ATOM     27  C   UNK d   1      14.626 -55.991  39.160  0.00  0.00     0.082 C 
ATOM     28  N   UNK d   1      16.509 -52.923  38.343  0.00  0.00    -0.134 NA
ATOM     29  C   UNK d   1      15.331 -57.056  38.379  0.00  0.00     0.028 C 
ENDBRANCH   5  22
TORSDOF 4
ENDMDL
