/Users/jonathanwahrer/Desktop/Msc/3_Semester/Drug_Design_Praktikum/waehrer_HTS_screening/HTS_experiment/out/docking_results/vina_output/6s1j/1008_docked.pdbqt
 OpenBabel03222221453D

 29 32  0  0  1  0  0  0  0  0999 V2000
   17.5680  -55.5680   33.1920 C   0  0  0  0  0  0  0  0  0  0  0  0
   16.3270  -55.7600   33.1850 O   0  0  0  0  0  0  0  0  0  0  0  0
   18.1350  -54.6090   34.0820 N   0  0  0  0  0  0  0  0  0  0  0  0
   17.2920  -53.8490   34.9800 C   0  0  0  0  0  2  0  0  0  0  0  0
   17.8890  -53.6720   36.3410 C   0  0  2  0  0  3  0  0  0  0  0  0
   19.0240  -54.6920   36.4640 C   0  0  0  0  0  2  0  0  0  0  0  0
   20.0950  -54.2250   35.5030 C   0  0  0  0  0  2  0  0  0  0  0  0
   19.5550  -54.3750   34.1040 C   0  0  0  0  0  2  0  0  0  0  0  0
   18.4080  -56.3320   32.2910 C   0  0  0  0  0  0  0  0  0  0  0  0
   18.7470  -55.8450   31.0330 C   0  0  0  0  0  3  0  0  0  0  0  0
   19.5450  -56.5580   30.1680 C   0  0  0  0  0  0  0  0  0  0  0  0
   20.0330  -57.7980   30.5390 C   0  0  0  0  0  3  0  0  0  0  0  0
   19.7070  -58.2960   31.7800 C   0  0  0  0  0  3  0  0  0  0  0  0
   18.8980  -57.5670   32.6520 C   0  0  0  0  0  0  0  0  0  0  0  0
   18.4790  -58.2990   34.3480 Br  0  0  0  0  0  0  0  0  0  0  0  0
   19.9320  -55.8930   28.6090 S   0  0  0  0  0  0  0  0  0  0  0  0
   18.6600  -55.3790   27.9670 O   0  0  0  0  0  0  0  0  0  0  0  0
   20.5250  -56.9490   27.7090 O   0  0  0  0  0  0  0  0  0  0  0  0
   20.9890  -54.5530   28.7780 N   0  0  0  0  0  0  0  0  0  0  0  0
   20.7390  -53.7740   28.1210 H   0  0  0  0  0  0  0  0  0  0  0  0
   21.9830  -54.8520   28.6190 H   0  0  0  0  0  0  0  0  0  0  0  0
   16.8950  -53.8460   37.4480 C   0  0  0  0  0  0  0  0  0  0  0  0
   16.2060  -54.9790   37.7440 N   0  0  0  0  0  0  0  0  0  0  0  0
   15.4070  -54.7730   38.7960 C   0  0  0  0  0  0  0  0  0  0  0  0
   16.0700  -56.3430   37.2660 C   0  0  0  0  0  2  0  0  0  0  0  0
   15.6210  -53.4700   39.1500 N   0  0  0  0  0  0  0  0  0  0  0  0
   14.6260  -55.9910   39.1600 C   0  0  0  0  0  2  0  0  0  0  0  0
   16.5090  -52.9230   38.3430 N   0  0  0  0  0  0  0  0  0  0  0  0
   15.3310  -57.0560   38.3790 C   0  0  0  0  0  2  0  0  0  0  0  0
  1  3  1  0  0  0  0
  2  1  2  0  0  0  0
  3  8  1  0  0  0  0
  3  4  1  0  0  0  0
  4  5  1  0  0  0  0
  5  6  1  0  0  0  0
  5 22  1  1  0  0  0
  7  6  1  0  0  0  0
  8  7  1  0  0  0  0
  9 14  1  0  0  0  0
  9  1  1  0  0  0  0
 10  9  2  0  0  0  0
 11 12  2  0  0  0  0
 11 10  1  0  0  0  0
 12 13  1  0  0  0  0
 13 14  2  0  0  0  0
 14 15  1  0  0  0  0
 16 19  1  0  0  0  0
 16 11  1  0  0  0  0
 17 16  2  0  0  0  0
 18 16  2  0  0  0  0
 20 19  1  0  0  0  0
 21 19  1  0  0  0  0
 22 23  1  0  0  0  0
 22 28  2  0  0  0  0
 23 24  1  0  0  0  0
 24 26  2  0  0  0  0
 24 27  1  0  0  0  0
 25 23  1  0  0  0  0
 25 29  1  0  0  0  0
 28 26  1  0  0  0  0
 29 27  1  0  0  0  0
M  END
>  <Pose>
1

>  <Score>
-8.588

$$$$
