/Users/jonathanwahrer/Desktop/Msc/3_Semester/Drug_Design_Praktikum/waehrer_HTS_screening/HTS_experiment/out/docking_results/vina_output/6s1j/1027_docked.pdbqt
 OpenBabel03222221463D

 32 35  0  0  0  0  0  0  0  0999 V2000
   14.9980  -58.2480   35.4650 N   0  0  0  0  0  0  0  0  0  0  0  0
   14.9030  -59.5080   34.8810 C   0  0  0  0  0  2  0  0  0  0  0  0
   15.8220  -59.7590   33.7480 C   0  0  0  0  0  0  0  0  0  0  0  0
   16.2010  -60.9210   33.4680 O   0  0  0  0  0  0  0  0  0  0  0  0
   16.2390  -58.6150   33.0100 N   0  0  0  0  0  0  0  0  0  0  0  0
   15.5260  -57.4130   33.2450 C   0  0  0  0  0  0  0  0  0  0  0  0
   15.4870  -56.5530   32.3210 O   0  0  0  0  0  0  0  0  0  0  0  0
   14.8380  -57.1470   34.5260 C   0  0  0  0  0  2  0  0  0  0  0  0
   16.1060  -57.9260   36.6810 S   0  0  0  0  0  0  0  0  0  0  0  0
   17.5030  -58.0020   36.0630 O   0  0  0  0  0  0  0  0  0  0  0  0
   16.0970  -59.0300   37.7120 O   0  0  0  0  0  0  0  0  0  0  0  0
   16.0000  -56.3690   37.4550 C   0  0  0  0  0  0  0  0  0  0  0  0
   16.9740  -55.4090   37.1520 C   0  0  0  0  0  3  0  0  0  0  0  0
   17.0380  -54.1680   37.7440 C   0  0  0  0  0  0  0  0  0  0  0  0
   16.1080  -53.8130   38.6960 C   0  0  0  0  0  0  0  0  0  0  0  0
   17.9390  -53.0710   37.5750 N   0  0  0  0  0  0  0  0  0  0  0  0
   15.1450  -54.7410   39.0060 C   0  0  0  0  0  3  0  0  0  0  0  0
   16.3670  -52.4380   39.1910 C   0  0  0  0  0  2  0  0  0  0  0  0
   15.0830  -56.0050   38.3970 C   0  0  0  0  0  0  0  0  0  0  0  0
   13.6300  -57.1760   38.8390 Br  0  0  0  0  0  0  0  0  0  0  0  0
   17.2710  -51.8810   38.0910 C   0  0  0  0  0  2  0  0  0  0  0  0
   19.2350  -53.0900   37.0320 C   0  0  0  0  0  0  0  0  0  0  0  0
   19.8770  -51.9860   36.9440 O   0  0  0  0  0  0  0  0  0  0  0  0
   19.9530  -54.2910   36.5420 C   0  0  0  0  0  1  0  0  0  0  0  0
   17.3350  -58.7090   32.0700 C   0  0  0  0  0  2  0  0  0  0  0  0
   18.6650  -58.3310   32.6230 C   0  0  0  0  0  2  0  0  0  0  0  0
   19.0890  -56.9520   32.3850 C   0  0  0  0  0  0  0  0  0  0  0  0
   19.6740  -56.5610   31.2130 C   0  0  0  0  0  3  0  0  0  0  0  0
   20.0510  -55.2570   31.0570 C   0  0  0  0  0  3  0  0  0  0  0  0
   19.8570  -54.3090   32.0560 C   0  0  0  0  0  3  0  0  0  0  0  0
   19.2690  -54.7250   33.2190 C   0  0  0  0  0  3  0  0  0  0  0  0
   18.8780  -56.0280   33.4090 C   0  0  0  0  0  3  0  0  0  0  0  0
  1  9  1  0  0  0  0
  2  1  1  0  0  0  0
  3  2  1  0  0  0  0
  4  3  2  0  0  0  0
  5  6  1  0  0  0  0
  5  3  1  0  0  0  0
  6  8  1  0  0  0  0
  7  6  2  0  0  0  0
  8  1  1  0  0  0  0
  9 12  1  0  0  0  0
  9 11  2  0  0  0  0
 10  9  2  0  0  0  0
 12 19  1  0  0  0  0
 13 12  2  0  0  0  0
 13 14  1  0  0  0  0
 14 15  2  0  0  0  0
 15 17  1  0  0  0  0
 15 18  1  0  0  0  0
 16 14  1  0  0  0  0
 16 21  1  0  0  0  0
 19 20  1  0  0  0  0
 19 17  2  0  0  0  0
 21 18  1  0  0  0  0
 22 16  1  0  0  0  0
 23 22  2  0  0  0  0
 24 22  1  0  0  0  0
 25 26  1  0  0  0  0
 25  5  1  0  0  0  0
 27 26  1  0  0  0  0
 27 32  1  0  0  0  0
 28 27  2  0  0  0  0
 29 28  1  0  0  0  0
 29 30  2  0  0  0  0
 30 31  1  0  0  0  0
 31 32  2  0  0  0  0
M  END
>  <Pose>
1

>  <Score>
-10.229

$$$$
