/Users/jonathanwahrer/Desktop/Msc/3_Semester/Drug_Design_Praktikum/waehrer_HTS_screening/HTS_experiment/out/docking_results/vina_output/6s1j/1040_docked.pdbqt
 OpenBabel03222221463D

 34 38  0  0  0  0  0  0  0  0999 V2000
   16.8890  -56.5650   34.4770 S   0  0  0  0  0  0  0  0  0  0  0  0
   15.7440  -56.9330   35.3400 O   0  0  0  0  0  0  0  0  0  0  0  0
   16.2540  -55.9870   33.2070 O   0  0  0  0  0  0  0  0  0  0  0  0
   17.8020  -57.9150   33.9240 N   0  0  0  0  0  0  0  0  0  0  0  0
   18.5190  -57.6800   32.7190 C   0  0  0  0  0  2  0  0  0  0  0  0
   17.7210  -57.9620   31.4520 C   0  0  0  0  0  2  0  0  0  0  0  0
   17.1610  -59.2680   31.5430 N   0  0  0  0  0  0  0  0  0  0  0  0
   16.2450  -59.4050   32.7210 C   0  0  0  0  0  2  0  0  0  0  0  0
   17.3150  -60.3910   30.7550 C   0  0  0  0  0  0  0  0  0  0  0  0
   17.0740  -59.1380   33.9310 C   0  0  0  0  0  2  0  0  0  0  0  0
   16.6300  -61.4450   31.1530 O   0  0  0  0  0  0  0  0  0  0  0  0
   18.0910  -60.6210   29.5720 C   0  0  0  0  0  2  0  0  0  0  0  0
   18.8590  -59.5680   29.0140 N   0  0  0  0  0  0  0  0  0  0  0  0
   18.4780  -58.6740   28.1030 N   0  0  0  0  0  0  0  0  0  0  0  0
   19.4630  -57.8040   27.8470 C   0  0  0  0  0  3  0  0  0  0  0  0
   20.5160  -58.1800   28.6440 C   0  0  0  0  0  0  0  0  0  0  0  0
   20.1390  -59.2730   29.3650 C   0  0  0  0  0  3  0  0  0  0  0  0
   22.2330  -57.3160   28.7300 Br  0  0  0  0  0  0  0  0  0  0  0  0
   17.9010  -55.3010   35.1020 C   0  0  0  0  0  0  0  0  0  0  0  0
   18.8140  -54.6090   34.2940 C   0  0  0  0  0  0  0  0  0  0  0  0
   19.6170  -53.6060   34.7980 C   0  0  0  0  0  0  0  0  0  0  0  0
   19.0740  -54.7780   32.9370 O   0  0  0  0  0  0  0  0  0  0  0  0
   19.5520  -53.2420   36.1270 C   0  0  0  0  0  0  0  0  0  0  0  0
   20.3910  -53.1350   33.7610 O   0  0  0  0  0  0  0  0  0  0  0  0
   18.6640  -53.9130   36.9220 C   0  0  0  0  0  0  0  0  0  0  0  0
   17.8600  -54.9210   36.4000 C   0  0  0  0  0  0  0  0  0  0  0  0
   18.4740  -53.6360   38.3640 C   0  0  0  0  0  2  0  0  0  0  0  0
   16.9640  -55.5590   37.3790 C   0  0  0  0  0  2  0  0  0  0  0  0
   16.2150  -54.5190   38.1830 C   0  0  0  0  0  2  0  0  0  0  0  0
   17.0720  -53.4670   38.5800 N   0  0  0  0  0  0  0  0  0  0  0  0
   16.5810  -52.1430   38.4220 C   0  0  0  0  0  1  0  0  0  0  0  0
   20.1730  -53.9330   32.6320 C   0  0  0  0  0  2  0  0  0  0  0  0
   20.3700  -52.2180   36.6500 O   0  0  0  0  0  0  0  0  0  0  0  0
   20.0540  -50.8570   36.3270 C   0  0  0  0  0  1  0  0  0  0  0  0
  1 19  1  0  0  0  0
  1  2  2  0  0  0  0
  3  1  2  0  0  0  0
  4 10  1  0  0  0  0
  4  1  1  0  0  0  0
  5  4  1  0  0  0  0
  6  7  1  0  0  0  0
  6  5  1  0  0  0  0
  7  8  1  0  0  0  0
  8 10  1  0  0  0  0
  9 11  2  0  0  0  0
  9  7  1  0  0  0  0
 12  9  1  0  0  0  0
 13 17  1  0  0  0  0
 13 12  1  0  0  0  0
 14 13  1  0  0  0  0
 15 14  2  0  0  0  0
 15 16  1  0  0  0  0
 16 18  1  0  0  0  0
 16 17  2  0  0  0  0
 19 26  1  0  0  0  0
 20 21  1  0  0  0  0
 20 19  2  0  0  0  0
 21 23  2  0  0  0  0
 22 20  1  0  0  0  0
 23 33  1  0  0  0  0
 23 25  1  0  0  0  0
 24 21  1  0  0  0  0
 25 27  1  0  0  0  0
 26 25  2  0  0  0  0
 26 28  1  0  0  0  0
 27 30  1  0  0  0  0
 28 29  1  0  0  0  0
 29 30  1  0  0  0  0
 31 30  1  0  0  0  0
 32 22  1  0  0  0  0
 32 24  1  0  0  0  0
 34 33  1  0  0  0  0
M  END
>  <Pose>
1

>  <Score>
-9.464

$$$$
