/Users/jonathanwahrer/Desktop/Msc/3_Semester/Drug_Design_Praktikum/waehrer_HTS_screening/HTS_experiment/out/docking_results/vina_output/6s1j/1043_docked.pdbqt
 OpenBabel03222221473D

 31 34  0  0  0  0  0  0  0  0999 V2000
   14.5850  -57.3050   36.8730 N   0  0  0  0  0  0  0  0  0  0  0  0
   13.6250  -56.5990   37.6940 C   0  0  0  0  0  2  0  0  0  0  0  0
   14.2320  -56.1920   39.0140 C   0  0  0  0  0  2  0  0  0  0  0  0
   15.4870  -55.4770   38.7070 N   0  0  0  0  0  0  0  0  0  0  0  0
   16.4290  -56.2060   37.9140 C   0  0  0  0  0  2  0  0  0  0  0  0
   15.7860  -57.5730   37.5840 C   0  0  0  0  0  2  0  0  0  0  0  0
   15.6990  -54.1720   39.1750 C   0  0  0  0  0  0  0  0  0  0  0  0
   14.7000  -53.6750   39.8770 O   0  0  0  0  0  0  0  0  0  0  0  0
   16.7990  -53.2520   39.0430 C   0  0  0  0  0  2  0  0  0  0  0  0
   17.9740  -53.6250   38.3200 N   0  0  0  0  0  0  0  0  0  0  0  0
   19.2030  -54.1780   38.8560 C   0  0  0  0  0  0  0  0  0  0  0  0
   19.3640  -54.4150   40.0860 O   0  0  0  0  0  0  0  0  0  0  0  0
   20.0990  -54.3720   37.7740 N   0  0  0  0  0  0  0  0  0  0  0  0
   19.6360  -53.5720   36.6910 C   0  0  0  0  0  0  0  0  0  0  0  0
   20.9370  -55.0120   37.8400 H   0  0  0  0  0  0  0  0  0  0  0  0
   20.2880  -52.2120   36.6280 C   0  0  0  0  0  2  0  0  0  0  0  0
   20.0010  -54.1510   35.3350 C   0  0  0  0  0  2  0  0  0  0  0  0
   18.1910  -53.5080   36.8980 C   0  0  0  0  0  0  0  0  0  0  0  0
   19.8730  -51.7420   35.2470 C   0  0  0  0  0  2  0  0  0  0  0  0
   19.6950  -52.9910   34.4180 C   0  0  0  0  0  2  0  0  0  0  0  0
   17.2830  -53.3770   36.0380 O   0  0  0  0  0  0  0  0  0  0  0  0
   13.9180  -58.6550   36.0700 S   0  0  0  0  0  0  0  0  0  0  0  0
   15.0770  -59.5460   35.6600 O   0  0  0  0  0  0  0  0  0  0  0  0
   13.2770  -58.2020   34.7820 O   0  0  0  0  0  0  0  0  0  0  0  0
   12.7650  -59.5350   37.0440 C   0  0  0  0  0  0  0  0  0  0  0  0
   13.0180  -59.8710   38.3580 C   0  0  0  0  0  3  0  0  0  0  0  0
   12.0940  -60.5710   39.1250 C   0  0  0  0  0  3  0  0  0  0  0  0
   10.8890  -60.9540   38.5940 C   0  0  0  0  0  0  0  0  0  0  0  0
   10.6240  -60.6240   37.2820 C   0  0  0  0  0  3  0  0  0  0  0  0
    9.6030  -61.9240   39.6500 Br  0  0  0  0  0  0  0  0  0  0  0  0
   11.5500  -59.9250   36.5220 C   0  0  0  0  0  3  0  0  0  0  0  0
  1  6  1  0  0  0  0
  1  2  1  0  0  0  0
  2  3  1  0  0  0  0
  4  3  1  0  0  0  0
  4  7  1  0  0  0  0
  5  4  1  0  0  0  0
  6  5  1  0  0  0  0
  7  8  2  0  0  0  0
  9  7  1  0  0  0  0
 10 11  1  0  0  0  0
 10  9  1  0  0  0  0
 11 12  2  0  0  0  0
 13 15  1  0  0  0  0
 13 11  1  0  0  0  0
 14 18  1  0  0  0  0
 14 13  1  0  0  0  0
 16 14  1  0  0  0  0
 17 14  1  0  0  0  0
 18 10  1  0  0  0  0
 19 16  1  0  0  0  0
 20 19  1  0  0  0  0
 20 17  1  0  0  0  0
 21 18  2  0  0  0  0
 22  1  1  0  0  0  0
 22 25  1  0  0  0  0
 23 22  2  0  0  0  0
 24 22  2  0  0  0  0
 25 26  1  0  0  0  0
 26 27  2  0  0  0  0
 28 27  1  0  0  0  0
 28 30  1  0  0  0  0
 29 28  2  0  0  0  0
 31 25  2  0  0  0  0
 31 29  1  0  0  0  0
M  END
>  <Pose>
1

>  <Score>
-8.934

$$$$
