MODEL 1
REMARK VINA RESULT:    -8.934      0.000      0.000
REMARK INTER + INTRA:         -11.157
REMARK INTER:                 -10.501
REMARK INTRA:                  -0.656
REMARK UNBOUND:                -0.656
REMARK  3 active torsions:
REMARK  status: ('A' for Active; 'I' for Inactive)
REMARK    1  A    between atoms: S_1  and  N_4 
REMARK    2  A    between atoms: S_1  and  C_24 
REMARK       I    between atoms: N_7  and  C_10 
REMARK    3  A    between atoms: C_12  and  N_13 
ROOT
ATOM      1  N   UNK d   1      14.585 -57.305  36.873  0.00  0.00    -0.203 NA
ATOM      2  C   UNK d   1      13.625 -56.599  37.694  0.00  0.00     0.127 C 
ATOM      3  C   UNK d   1      14.232 -56.192  39.014  0.00  0.00     0.140 C 
ATOM      4  N   UNK d   1      15.487 -55.477  38.707  0.00  0.00    -0.359 N 
ATOM      5  C   UNK d   1      16.429 -56.206  37.914  0.00  0.00     0.140 C 
ATOM      6  C   UNK d   1      15.786 -57.573  37.584  0.00  0.00     0.127 C 
ATOM      7  C   UNK d   1      15.699 -54.172  39.175  0.00  0.00     0.172 C 
ATOM      8  O   UNK d   1      14.700 -53.675  39.877  0.00  0.00    -0.175 OA
ATOM      9  C   UNK d   1      16.799 -53.252  39.043  0.00  0.00     0.224 C 
ENDROOT
BRANCH   9  10
ATOM     10  N   UNK d   1      17.974 -53.625  38.320  0.00  0.00    -0.260 N 
ATOM     11  C   UNK d   1      19.203 -54.178  38.856  0.00  0.00     0.326 C 
ATOM     12  O   UNK d   1      19.364 -54.415  40.086  0.00  0.00    -0.247 OA
ATOM     13  N   UNK d   1      20.099 -54.372  37.774  0.00  0.00    -0.324 N 
ATOM     14  C   UNK d   1      19.636 -53.572  36.691  0.00  0.00     0.116 C 
ATOM     15  H   UNK d   1      20.937 -55.012  37.840  0.00  0.00     0.165 HD
ATOM     16  C   UNK d   1      20.288 -52.212  36.628  0.00  0.00     0.041 C 
ATOM     17  C   UNK d   1      20.001 -54.151  35.335  0.00  0.00     0.041 C 
ATOM     18  C   UNK d   1      18.191 -53.508  36.898  0.00  0.00     0.256 C 
ATOM     19  C   UNK d   1      19.873 -51.742  35.247  0.00  0.00     0.003 C 
ATOM     20  C   UNK d   1      19.695 -52.991  34.418  0.00  0.00     0.003 C 
ATOM     21  O   UNK d   1      17.283 -53.377  36.038  0.00  0.00    -0.270 OA
ENDBRANCH   9  10
BRANCH   1  22
ATOM     22  S   UNK d   1      13.918 -58.655  36.070  0.00  0.00     0.243 S 
ATOM     23  O   UNK d   1      15.077 -59.546  35.660  0.00  0.00    -0.206 OA
ATOM     24  O   UNK d   1      13.277 -58.202  34.782  0.00  0.00    -0.206 OA
BRANCH  22  25
ATOM     25  C   UNK d   1      12.765 -59.535  37.044  0.00  0.00     0.074 A 
ATOM     26  C   UNK d   1      13.018 -59.871  38.358  0.00  0.00     0.026 A 
ATOM     27  C   UNK d   1      12.094 -60.571  39.125  0.00  0.00     0.020 A 
ATOM     28  C   UNK d   1      10.889 -60.954  38.594  0.00  0.00     0.011 A 
ATOM     29  C   UNK d   1      10.624 -60.624  37.282  0.00  0.00     0.020 A 
ATOM     30 Br   UNK d   1       9.603 -61.924  39.650  0.00  0.00    -0.051 Br
ATOM     31  C   UNK d   1      11.550 -59.925  36.522  0.00  0.00     0.026 A 
ENDBRANCH  22  25
ENDBRANCH   1  22
TORSDOF 3
ENDMDL
