MODEL 1
REMARK VINA RESULT:   -10.067      0.000      0.000
REMARK INTER + INTRA:         -11.601
REMARK INTER:                 -11.832
REMARK INTRA:                   0.231
REMARK UNBOUND:                 0.231
REMARK  3 active torsions:
REMARK  status: ('A' for Active; 'I' for Inactive)
REMARK    1  A    between atoms: S_1  and  N_4 
REMARK    2  A    between atoms: S_1  and  C_19 
REMARK       I    between atoms: N_7  and  C_10 
REMARK    3  A    between atoms: C_10  and  C_12 
ROOT
ATOM      1  N   UNK d   1      16.777 -57.382  34.594  0.00  0.00    -0.304 N 
ATOM      2  C   UNK d   1      16.123 -57.572  35.812  0.00  0.00     0.155 C 
ATOM      3  C   UNK d   1      16.591 -56.755  36.964  0.00  0.00     0.146 C 
ATOM      4  N   UNK d   1      17.200 -55.513  36.607  0.00  0.00    -0.345 N 
ATOM      5  C   UNK d   1      17.301 -55.156  35.209  0.00  0.00     0.146 C 
ATOM      6  C   UNK d   1      17.793 -56.415  34.498  0.00  0.00     0.155 C 
ATOM      7  C   UNK d   1      17.712 -54.614  37.573  0.00  0.00     0.255 C 
ATOM      8  O   UNK d   1      17.645 -54.885  38.815  0.00  0.00    -0.267 OA
ENDROOT
BRANCH   1   9
ATOM      9  S   UNK d   1      15.927 -57.752  33.179  0.00  0.00     0.261 S 
ATOM     10  O   UNK d   1      15.026 -58.919  33.292  0.00  0.00    -0.200 OA
ATOM     11  O   UNK d   1      15.056 -56.550  32.838  0.00  0.00    -0.200 OA
BRANCH   9  12
ATOM     12  C   UNK d   1      17.041 -57.924  31.827  0.00  0.00     0.082 A 
ATOM     13  C   UNK d   1      17.637 -56.827  31.241  0.00  0.00     0.057 A 
ATOM     14  C   UNK d   1      18.514 -56.929  30.181  0.00  0.00     0.070 A 
ATOM     15  C   UNK d   1      18.834 -58.164  29.657  0.00  0.00     0.096 A 
ATOM     16  N   UNK d   1      19.129 -55.800  29.572  0.00  0.00    -0.323 N 
ATOM     17  C   UNK d   1      18.238 -59.270  30.245  0.00  0.00     0.040 A 
ATOM     18  O   UNK d   1      19.716 -58.300  28.587  0.00  0.00    -0.340 OA
ATOM     19  C   UNK d   1      17.362 -59.161  31.304  0.00  0.00     0.028 A 
ATOM     20  C   UNK d   1      20.162 -57.223  27.784  0.00  0.00     0.278 C 
ATOM     21  C   UNK d   1      20.032 -55.917  28.479  0.00  0.00     0.246 C 
ATOM     22  O   UNK d   1      20.739 -54.968  28.055  0.00  0.00    -0.271 OA
ATOM     23  H   UNK d   1      18.898 -54.859  29.956  0.00  0.00     0.169 HD
ENDBRANCH   9  12
ENDBRANCH   1   9
BRANCH   7  24
ATOM     24  C   UNK d   1      18.337 -53.343  37.228  0.00  0.00     0.049 A 
ATOM     25  C   UNK d   1      17.832 -52.130  37.657  0.00  0.00     0.026 A 
ATOM     26  C   UNK d   1      18.414 -50.925  37.338  0.00  0.00     0.020 A 
ATOM     27 Br   UNK d   1      16.258 -52.183  38.737  0.00  0.00    -0.050 Br
ATOM     28  C   UNK d   1      19.556 -50.942  36.552  0.00  0.00     0.001 A 
ATOM     29  C   UNK d   1      20.102 -52.119  36.097  0.00  0.00     0.001 A 
ATOM     30  C   UNK d   1      19.482 -53.299  36.444  0.00  0.00     0.018 A 
ENDBRANCH   7  24
TORSDOF 3
ENDMDL
