/Users/jonathanwahrer/Desktop/Msc/3_Semester/Drug_Design_Praktikum/waehrer_HTS_screening/HTS_experiment/out/docking_results/vina_output/6s1j/1044_docked.pdbqt
 OpenBabel03222221473D

 30 33  0  0  0  0  0  0  0  0999 V2000
   16.7770  -57.3820   34.5940 N   0  0  0  0  0  0  0  0  0  0  0  0
   16.1230  -57.5720   35.8120 C   0  0  0  0  0  2  0  0  0  0  0  0
   16.5910  -56.7550   36.9640 C   0  0  0  0  0  2  0  0  0  0  0  0
   17.2000  -55.5130   36.6070 N   0  0  0  0  0  0  0  0  0  0  0  0
   17.3010  -55.1560   35.2090 C   0  0  0  0  0  2  0  0  0  0  0  0
   17.7930  -56.4150   34.4980 C   0  0  0  0  0  2  0  0  0  0  0  0
   17.7120  -54.6140   37.5730 C   0  0  0  0  0  0  0  0  0  0  0  0
   17.6450  -54.8850   38.8150 O   0  0  0  0  0  0  0  0  0  0  0  0
   15.9270  -57.7520   33.1790 S   0  0  0  0  0  0  0  0  0  0  0  0
   15.0260  -58.9190   33.2920 O   0  0  0  0  0  0  0  0  0  0  0  0
   15.0560  -56.5500   32.8380 O   0  0  0  0  0  0  0  0  0  0  0  0
   17.0410  -57.9240   31.8270 C   0  0  0  0  0  0  0  0  0  0  0  0
   17.6370  -56.8270   31.2410 C   0  0  0  0  0  3  0  0  0  0  0  0
   18.5140  -56.9290   30.1810 C   0  0  0  0  0  0  0  0  0  0  0  0
   18.8340  -58.1640   29.6570 C   0  0  0  0  0  0  0  0  0  0  0  0
   19.1290  -55.8000   29.5720 N   0  0  0  0  0  0  0  0  0  0  0  0
   18.2380  -59.2700   30.2450 C   0  0  0  0  0  3  0  0  0  0  0  0
   19.7160  -58.3000   28.5870 O   0  0  0  0  0  0  0  0  0  0  0  0
   17.3620  -59.1610   31.3040 C   0  0  0  0  0  3  0  0  0  0  0  0
   20.1620  -57.2230   27.7840 C   0  0  0  0  0  2  0  0  0  0  0  0
   20.0320  -55.9170   28.4790 C   0  0  0  0  0  0  0  0  0  0  0  0
   20.7390  -54.9680   28.0550 O   0  0  0  0  0  0  0  0  0  0  0  0
   18.8980  -54.8590   29.9560 H   0  0  0  0  0  0  0  0  0  0  0  0
   18.3370  -53.3430   37.2280 C   0  0  0  0  0  0  0  0  0  0  0  0
   17.8320  -52.1300   37.6570 C   0  0  0  0  0  0  0  0  0  0  0  0
   18.4140  -50.9250   37.3380 C   0  0  0  0  0  3  0  0  0  0  0  0
   16.2580  -52.1830   38.7370 Br  0  0  0  0  0  0  0  0  0  0  0  0
   19.5560  -50.9420   36.5520 C   0  0  0  0  0  3  0  0  0  0  0  0
   20.1020  -52.1190   36.0970 C   0  0  0  0  0  3  0  0  0  0  0  0
   19.4820  -53.2990   36.4440 C   0  0  0  0  0  3  0  0  0  0  0  0
  1  2  1  0  0  0  0
  2  3  1  0  0  0  0
  4  3  1  0  0  0  0
  4  7  1  0  0  0  0
  5  4  1  0  0  0  0
  6  1  1  0  0  0  0
  6  5  1  0  0  0  0
  7  8  2  0  0  0  0
  9 10  2  0  0  0  0
  9  1  1  0  0  0  0
 11  9  2  0  0  0  0
 12  9  1  0  0  0  0
 13 12  2  0  0  0  0
 14 13  1  0  0  0  0
 15 14  2  0  0  0  0
 15 17  1  0  0  0  0
 16 23  1  0  0  0  0
 16 14  1  0  0  0  0
 17 19  2  0  0  0  0
 18 15  1  0  0  0  0
 19 12  1  0  0  0  0
 20 21  1  0  0  0  0
 20 18  1  0  0  0  0
 21 16  1  0  0  0  0
 22 21  2  0  0  0  0
 24  7  1  0  0  0  0
 24 25  1  0  0  0  0
 25 27  1  0  0  0  0
 26 25  2  0  0  0  0
 28 26  1  0  0  0  0
 29 30  1  0  0  0  0
 29 28  2  0  0  0  0
 30 24  2  0  0  0  0
M  END
>  <Pose>
1

>  <Score>
-10.067

$$$$
