MODEL 1
REMARK VINA RESULT:    -8.578      0.000      0.000
REMARK INTER + INTRA:         -10.427
REMARK INTER:                 -10.082
REMARK INTRA:                  -0.345
REMARK UNBOUND:                -0.345
REMARK  3 active torsions:
REMARK  status: ('A' for Active; 'I' for Inactive)
REMARK    1  A    between atoms: S_1  and  N_4 
REMARK    2  A    between atoms: S_1  and  C_22 
REMARK       I    between atoms: N_7  and  C_10 
REMARK    3  A    between atoms: C_10  and  C_12 
ROOT
ATOM      1  N   UNK d   1      14.282 -59.910  33.505  0.00  0.00    -0.203 NA
ATOM      2  C   UNK d   1      14.039 -58.518  33.610  0.00  0.00     0.127 C 
ATOM      3  C   UNK d   1      14.301 -57.891  34.936  0.00  0.00     0.141 C 
ATOM      4  N   UNK d   1      14.014 -58.747  36.056  0.00  0.00    -0.344 N 
ATOM      5  C   UNK d   1      13.497 -60.062  35.748  0.00  0.00     0.141 C 
ATOM      6  C   UNK d   1      14.460 -60.625  34.723  0.00  0.00     0.127 C 
ATOM      7  C   UNK d   1      14.200 -58.385  37.403  0.00  0.00     0.274 C 
ATOM      8  O   UNK d   1      13.922 -59.199  38.311  0.00  0.00    -0.266 OA
ENDROOT
BRANCH   7   9
ATOM      9  C   UNK d   1      14.717 -57.066  37.752  0.00  0.00     0.148 A 
ATOM     10  N   UNK d   1      15.694 -56.421  37.122  0.00  0.00    -0.161 NA
ATOM     11  N   UNK d   1      15.918 -55.238  37.699  0.00  0.00    -0.225 N 
ATOM     12  C   UNK d   1      15.072 -55.081  38.743  0.00  0.00     0.152 A 
ATOM     13  C   UNK d   1      16.793 -54.248  37.423  0.00  0.00     0.141 A 
ATOM     14  C   UNK d   1      14.305 -56.251  38.775  0.00  0.00     0.091 A 
ATOM     15  N   UNK d   1      15.081 -53.964  39.513  0.00  0.00    -0.240 NA
ATOM     16  C   UNK d   1      15.967 -52.965  39.231  0.00  0.00     0.139 A 
ATOM     17  C   UNK d   1      16.841 -53.095  38.173  0.00  0.00     0.046 A 
ATOM     18 Br   UNK d   1      18.088 -51.685  37.779  0.00  0.00    -0.048 Br
ENDBRANCH   7   9
BRANCH   1  19
ATOM     19  S   UNK d   1      15.569 -60.318  32.436  0.00  0.00     0.246 S 
ATOM     20  O   UNK d   1      15.079 -60.341  31.025  0.00  0.00    -0.206 OA
ATOM     21  O   UNK d   1      16.011 -61.726  32.812  0.00  0.00    -0.206 OA
BRANCH  19  22
ATOM     22  C   UNK d   1      16.902 -59.198  32.560  0.00  0.00     0.111 A 
ATOM     23  C   UNK d   1      17.409 -58.390  31.568  0.00  0.00     0.138 A 
ATOM     24  N   UNK d   1      18.428 -57.675  32.046  0.00  0.00    -0.284 N 
ATOM     25  N   UNK d   1      18.600 -57.991  33.315  0.00  0.00    -0.184 NA
ATOM     26  C   UNK d   1      19.228 -56.713  31.337  0.00  0.00     0.179 C 
ATOM     27  C   UNK d   1      17.686 -58.925  33.681  0.00  0.00     0.165 A 
ENDBRANCH  19  22
ENDBRANCH   1  19
TORSDOF 3
ENDMDL
