MODEL 1
REMARK VINA RESULT:    -9.957      0.000      0.000
REMARK INTER + INTRA:         -12.001
REMARK INTER:                 -11.703
REMARK INTRA:                  -0.298
REMARK UNBOUND:                -0.298
REMARK  3 active torsions:
REMARK  status: ('A' for Active; 'I' for Inactive)
REMARK    1  A    between atoms: S_1  and  N_4 
REMARK    2  A    between atoms: S_1  and  C_24 
REMARK       I    between atoms: N_7  and  C_10 
REMARK    3  A    between atoms: C_10  and  C_12 
ROOT
ATOM      1  N   UNK d   1      13.617 -59.523  33.715  0.00  0.00    -0.304 N 
ATOM      2  C   UNK d   1      14.713 -60.076  33.015  0.00  0.00     0.155 C 
ATOM      3  C   UNK d   1      16.061 -59.786  33.531  0.00  0.00     0.146 C 
ATOM      4  N   UNK d   1      16.180 -58.439  34.003  0.00  0.00    -0.345 N 
ATOM      5  C   UNK d   1      15.066 -57.545  33.868  0.00  0.00     0.146 C 
ATOM      6  C   UNK d   1      13.745 -58.184  34.164  0.00  0.00     0.155 C 
ATOM      7  C   UNK d   1      17.375 -57.985  34.596  0.00  0.00     0.260 C 
ATOM      8  O   UNK d   1      18.337 -58.780  34.707  0.00  0.00    -0.267 OA
ENDROOT
BRANCH   7   9
ATOM      9  C   UNK d   1      17.567 -56.631  35.098  0.00  0.00     0.118 A 
ATOM     10  C   UNK d   1      18.348 -55.738  34.388  0.00  0.00     0.141 A 
ATOM     11  N   UNK d   1      18.525 -54.490  34.848  0.00  0.00    -0.242 NA
ATOM     12  C   UNK d   1      17.963 -54.054  35.996  0.00  0.00     0.136 A 
ATOM     13  N   UNK d   1      17.197 -54.896  36.710  0.00  0.00    -0.272 N 
ATOM     14  C   UNK d   1      18.163 -52.754  36.449  0.00  0.00     0.051 A 
ATOM     15  C   UNK d   1      16.628 -54.461  37.870  0.00  0.00     0.108 A 
ATOM     16  C   UNK d   1      17.001 -56.167  36.268  0.00  0.00     0.270 A 
ATOM     17  C   UNK d   1      16.815 -53.176  38.336  0.00  0.00    -0.046 A 
ATOM     18  C   UNK d   1      17.600 -52.290  37.616  0.00  0.00     0.012 A 
ATOM     19  C   UNK d   1      16.212 -52.666  39.592  0.00  0.00     0.049 C 
ATOM     20  O   UNK d   1      16.294 -56.943  36.928  0.00  0.00    -0.266 OA
ENDBRANCH   7   9
BRANCH   1  21
ATOM     21  S   UNK d   1      12.757 -60.575  34.723  0.00  0.00     0.261 S 
ATOM     22  O   UNK d   1      11.417 -60.870  34.146  0.00  0.00    -0.200 OA
ATOM     23  O   UNK d   1      13.527 -61.868  34.832  0.00  0.00    -0.200 OA
BRANCH  21  24
ATOM     24  C   UNK d   1      12.613 -59.891  36.320  0.00  0.00     0.081 A 
ATOM     25  C   UNK d   1      11.404 -59.924  36.982  0.00  0.00     0.044 A 
ATOM     26  C   UNK d   1      11.360 -59.361  38.253  0.00  0.00     0.012 A 
ATOM     27  C   UNK d   1      12.460 -58.792  38.839  0.00  0.00     0.019 A 
ATOM     28 Br   UNK d   1       9.722 -59.375  39.218  0.00  0.00    -0.051 Br
ATOM     29  C   UNK d   1      13.672 -58.764  38.164  0.00  0.00     0.003 A 
ATOM     30  C   UNK d   1      13.738 -59.325  36.884  0.00  0.00     0.025 A 
ENDBRANCH  21  24
ENDBRANCH   1  21
TORSDOF 3
ENDMDL
