/Users/jonathanwahrer/Desktop/Msc/3_Semester/Drug_Design_Praktikum/waehrer_HTS_screening/HTS_experiment/out/docking_results/vina_output/6s1j/1073_docked.pdbqt
 OpenBabel03222221483D

 28 31  0  0  0  0  0  0  0  0999 V2000
   17.3240  -57.1170   33.2310 N   0  0  0  0  0  0  0  0  0  0  0  0
   16.5890  -55.9710   33.5830 C   0  0  0  0  0  2  0  0  0  0  0  0
   17.3180  -54.6850   33.3100 C   0  0  0  0  0  2  0  0  0  0  0  0
   18.7260  -54.8230   33.1930 N   0  0  0  0  0  0  0  0  0  0  0  0
   19.0710  -55.7580   32.1830 C   0  0  0  0  0  2  0  0  0  0  0  0
   18.2730  -57.0090   32.1900 C   0  0  0  0  0  2  0  0  0  0  0  0
   19.3570  -54.9410   34.4540 C   0  0  0  0  0  2  0  0  0  0  0  0
   18.9660  -54.0180   35.4650 N   0  0  0  0  0  0  0  0  0  0  0  0
   18.0090  -54.3200   36.3180 N   0  0  0  0  0  0  0  0  0  0  0  0
   17.5770  -53.5080   37.2950 C   0  0  0  0  0  0  0  0  0  0  0  0
   18.1880  -52.2800   37.3940 C   0  0  0  0  0  3  0  0  0  0  0  0
   19.1950  -51.9040   36.5310 C   0  0  0  0  0  3  0  0  0  0  0  0
   19.5660  -52.8210   35.5560 C   0  0  0  0  0  0  0  0  0  0  0  0
   20.5030  -52.4690   34.7570 O   0  0  0  0  0  0  0  0  0  0  0  0
   16.5330  -53.8650   38.2080 N   0  0  0  0  0  0  0  0  0  0  0  0
   15.9530  -53.1130   39.1490 C   0  0  0  0  0  3  0  0  0  0  0  0
   15.0190  -53.8530   39.7750 N   0  0  0  0  0  0  0  0  0  0  0  0
   14.9970  -55.0850   39.2370 C   0  0  0  0  0  3  0  0  0  0  0  0
   15.9590  -55.0780   38.2490 C   0  0  0  0  0  3  0  0  0  0  0  0
   16.6690  -58.6150   33.5260 S   0  0  0  0  0  0  0  0  0  0  0  0
   15.6380  -59.0040   32.5210 O   0  0  0  0  0  0  0  0  0  0  0  0
   17.7370  -59.6610   33.5490 O   0  0  0  0  0  0  0  0  0  0  0  0
   15.8740  -58.6010   35.1140 C   0  0  0  0  0  0  0  0  0  0  0  0
   14.2170  -58.7420   35.4880 S   0  0  0  0  0  0  0  0  0  0  0  0
   14.3110  -58.6340   37.1850 C   0  0  0  0  0  0  0  0  0  0  0  0
   15.6560  -58.4860   37.4180 C   0  0  0  0  0  3  0  0  0  0  0  0
   12.9000  -58.6980   38.4800 Br  0  0  0  0  0  0  0  0  0  0  0  0
   16.4580  -58.4700   36.3420 C   0  0  0  0  0  3  0  0  0  0  0  0
  1 20  1  0  0  0  0
  1  2  1  0  0  0  0
  3  2  1  0  0  0  0
  4  3  1  0  0  0  0
  4  7  1  0  0  0  0
  5  6  1  0  0  0  0
  5  4  1  0  0  0  0
  6  1  1  0  0  0  0
  7  8  1  0  0  0  0
  8 13  1  0  0  0  0
  8  9  1  0  0  0  0
  9 10  2  0  0  0  0
 10 11  1  0  0  0  0
 10 15  1  0  0  0  0
 12 11  2  0  0  0  0
 13 12  1  0  0  0  0
 14 13  2  0  0  0  0
 15 19  1  0  0  0  0
 15 16  1  0  0  0  0
 16 17  2  0  0  0  0
 18 17  1  0  0  0  0
 19 18  2  0  0  0  0
 20 22  2  0  0  0  0
 20 23  1  0  0  0  0
 21 20  2  0  0  0  0
 23 24  1  0  0  0  0
 23 28  2  0  0  0  0
 24 25  1  0  0  0  0
 25 26  2  0  0  0  0
 25 27  1  0  0  0  0
 28 26  1  0  0  0  0
M  END
>  <Pose>
1

>  <Score>
-9.396

$$$$
