MODEL 1
REMARK VINA RESULT:    -9.738      0.000      0.000
REMARK INTER + INTRA:         -12.491
REMARK INTER:                 -12.016
REMARK INTRA:                  -0.476
REMARK UNBOUND:                -0.476
REMARK  4 active torsions:
REMARK  status: ('A' for Active; 'I' for Inactive)
REMARK    1  A    between atoms: S_1  and  N_4 
REMARK    2  A    between atoms: S_1  and  C_21 
REMARK    3  A    between atoms: N_7  and  C_10 
REMARK    4  A    between atoms: N_11  and  C_15 
ROOT
ATOM      1  N   UNK d   1      16.627 -57.491  34.062  0.00  0.00    -0.304 N 
ATOM      2  C   UNK d   1      16.302 -56.429  33.189  0.00  0.00     0.155 C 
ATOM      3  C   UNK d   1      16.833 -55.079  33.537  0.00  0.00     0.162 C 
ATOM      4  N   UNK d   1      17.627 -55.039  34.740  0.00  0.00    -0.209 N 
ATOM      5  C   UNK d   1      17.288 -55.895  35.831  0.00  0.00     0.162 C 
ATOM      6  C   UNK d   1      16.725 -57.218  35.446  0.00  0.00     0.155 C 
ENDROOT
BRANCH   4   7
ATOM      7  C   UNK d   1      18.726 -54.118  34.775  0.00  0.00     0.747 A 
ATOM      8  N   UNK d   1      19.039 -53.305  35.798  0.00  0.00    -0.041 N 
ATOM      9  N   UNK d   1      20.114 -52.621  35.389  0.00  0.00    -0.025 NA
ATOM     10  N   UNK d   1      20.444 -52.996  34.173  0.00  0.00    -0.007 NA
ATOM     11  N   UNK d   1      19.607 -53.923  33.757  0.00  0.00     0.065 NA
BRANCH   8  12
ATOM     12  C   UNK d   1      18.371 -53.208  37.048  0.00  0.00     0.078 A 
ATOM     13  C   UNK d   1      17.270 -52.400  37.211  0.00  0.00     0.032 A 
ATOM     14  C   UNK d   1      16.636 -52.328  38.451  0.00  0.00     0.002 A 
ATOM     15  C   UNK d   1      17.090 -53.054  39.530  0.00  0.00     0.000 A 
ATOM     16  C   UNK d   1      18.211 -53.877  39.365  0.00  0.00     0.002 A 
ATOM     17  C   UNK d   1      18.833 -53.936  38.116  0.00  0.00     0.032 A 
ENDBRANCH   8  12
ENDBRANCH   4   7
BRANCH   1  18
ATOM     18  S   UNK d   1      17.701 -58.673  33.476  0.00  0.00     0.260 S 
ATOM     19  O   UNK d   1      17.160 -60.047  33.444  0.00  0.00    -0.200 OA
ATOM     20  O   UNK d   1      18.906 -58.706  34.408  0.00  0.00    -0.200 OA
BRANCH  18  21
ATOM     21  C   UNK d   1      18.289 -58.209  31.903  0.00  0.00     0.079 A 
ATOM     22  C   UNK d   1      17.766 -58.701  30.735  0.00  0.00     0.026 A 
ATOM     23  C   UNK d   1      18.245 -58.320  29.482  0.00  0.00     0.020 A 
ATOM     24  C   UNK d   1      19.298 -57.401  29.431  0.00  0.00     0.011 A 
ATOM     25  C   UNK d   1      19.832 -56.900  30.598  0.00  0.00     0.020 A 
ATOM     26 Br   UNK d   1      20.004 -56.830  27.747  0.00  0.00    -0.051 Br
ATOM     27  C   UNK d   1      19.334 -57.300  31.807  0.00  0.00     0.026 A 
ENDBRANCH  18  21
ENDBRANCH   1  18
TORSDOF 4
ENDMDL
