MODEL 1
REMARK VINA RESULT:    -9.007      0.000      0.000
REMARK INTER + INTRA:         -12.058
REMARK INTER:                 -11.114
REMARK INTRA:                  -0.945
REMARK UNBOUND:                -0.945
REMARK  4 active torsions:
REMARK  status: ('A' for Active; 'I' for Inactive)
REMARK    1  A    between atoms: S_1  and  N_4 
REMARK    2  A    between atoms: S_1  and  C_23 
REMARK    3  A    between atoms: N_7  and  C_10 
REMARK    4  A    between atoms: C_12  and  N_17 
ROOT
ATOM      1  N   UNK d   1      15.207 -57.951  34.526  0.00  0.00    -0.203 NA
ATOM      2  C   UNK d   1      15.127 -57.016  33.454  0.00  0.00     0.128 C 
ATOM      3  C   UNK d   1      16.480 -56.590  32.924  0.00  0.00     0.157 C 
ATOM      4  N   UNK d   1      17.427 -56.734  33.990  0.00  0.00    -0.212 N 
ATOM      5  C   UNK d   1      17.665 -58.042  34.525  0.00  0.00     0.157 C 
ATOM      6  C   UNK d   1      16.368 -58.809  34.480  0.00  0.00     0.128 C 
ENDROOT
BRANCH   4   7
ATOM      7  C   UNK d   1      18.102 -55.608  34.491  0.00  0.00     0.726 A 
ATOM      8  N   UNK d   1      17.774 -55.024  35.656  0.00  0.00    -0.045 NA
ATOM      9  C   UNK d   1      18.369 -53.966  36.178  0.00  0.00     0.146 A 
ATOM     10  C   UNK d   1      19.421 -53.408  35.472  0.00  0.00     0.078 A 
ATOM     11  C   UNK d   1      19.795 -53.972  34.273  0.00  0.00     0.053 A 
ATOM     12  N   UNK d   1      19.134 -55.050  33.813  0.00  0.00    -0.068 NA
ATOM     13  C   UNK d   1      20.921 -53.402  33.484  0.00  0.00     0.071 C 
BRANCH   9  14
ATOM     14  N   UNK d   1      17.926 -53.444  37.417  0.00  0.00    -0.361 N 
ATOM     15  C   UNK d   1      17.582 -52.052  37.623  0.00  0.00     0.150 C 
ATOM     16  C   UNK d   1      16.640 -52.019  38.826  0.00  0.00     0.187 C 
ATOM     17  O   UNK d   1      15.754 -53.088  38.678  0.00  0.00    -0.388 OA
ATOM     18  C   UNK d   1      16.325 -54.310  38.952  0.00  0.00     0.187 C 
ATOM     19  C   UNK d   1      17.804 -54.335  38.549  0.00  0.00     0.150 C 
ENDBRANCH   9  14
ENDBRANCH   4   7
BRANCH   1  20
ATOM     20  S   UNK d   1      13.816 -58.975  34.451  0.00  0.00     0.243 S 
ATOM     21  O   UNK d   1      12.813 -58.327  33.511  0.00  0.00    -0.206 OA
ATOM     22  O   UNK d   1      14.212 -60.299  33.864  0.00  0.00    -0.206 OA
BRANCH  20  23
ATOM     23  C   UNK d   1      13.073 -59.159  36.014  0.00  0.00     0.074 A 
ATOM     24  C   UNK d   1      13.774 -58.740  37.137  0.00  0.00     0.026 A 
ATOM     25  C   UNK d   1      13.250 -58.854  38.406  0.00  0.00     0.020 A 
ATOM     26  C   UNK d   1      12.000 -59.397  38.579  0.00  0.00     0.011 A 
ATOM     27  C   UNK d   1      11.271 -59.826  37.486  0.00  0.00     0.020 A 
ATOM     28 Br   UNK d   1      11.289 -59.548  40.341  0.00  0.00    -0.051 Br
ATOM     29  C   UNK d   1      11.829 -59.696  36.217  0.00  0.00     0.026 A 
ENDBRANCH  20  23
ENDBRANCH   1  20
TORSDOF 4
ENDMDL
