/Users/jonathanwahrer/Desktop/Msc/3_Semester/Drug_Design_Praktikum/waehrer_HTS_screening/HTS_experiment/out/docking_results/vina_output/6s1j/1089_docked.pdbqt
 OpenBabel03222221493D

 25 28  0  0  0  0  0  0  0  0999 V2000
   16.5470  -57.7100   33.5640 N   0  0  0  0  0  0  0  0  0  0  0  0
   15.4850  -56.7900   33.4230 C   0  0  0  0  0  2  0  0  0  0  0  0
   14.1200  -57.2870   33.8310 C   0  0  0  0  0  2  0  0  0  0  0  0
   14.1200  -58.6610   34.2220 N   0  0  0  0  0  0  0  0  0  0  0  0
   15.0630  -59.6380   33.7050 C   0  0  0  0  0  2  0  0  0  0  0  0
   16.2410  -58.9840   33.0440 C   0  0  0  0  0  2  0  0  0  0  0  0
   13.1660  -59.1310   35.1650 C   0  0  0  0  0  0  0  0  0  0  0  0
   12.1890  -59.9950   34.7600 N   0  0  0  0  0  0  0  0  0  0  0  0
   11.2890  -60.4540   35.6300 C   0  0  0  0  0  3  0  0  0  0  0  0
   11.2990  -60.0990   36.9140 N   0  0  0  0  0  0  0  0  0  0  0  0
   12.2430  -59.2580   37.3290 C   0  0  0  0  0  0  0  0  0  0  0  0
   12.4940  -58.7340   38.5320 N   0  0  0  0  0  0  0  0  0  0  0  0
   13.2170  -58.7360   36.4750 C   0  0  0  0  0  0  0  0  0  0  0  0
   13.5810  -57.9190   38.4290 C   0  0  0  0  0  3  0  0  0  0  0  0
   14.0220  -57.9210   37.1710 N   0  0  0  0  0  0  0  0  0  0  0  0
   14.8360  -57.3810   36.8230 H   0  0  0  0  0  0  0  0  0  0  0  0
   17.5560  -57.5970   34.8920 S   0  0  0  0  0  0  0  0  0  0  0  0
   18.8000  -58.4390   34.6290 O   0  0  0  0  0  0  0  0  0  0  0  0
   16.9530  -58.1210   36.1440 O   0  0  0  0  0  0  0  0  0  0  0  0
   18.1630  -55.9720   35.2260 C   0  0  0  0  0  0  0  0  0  0  0  0
   17.6620  -54.8540   36.4100 S   0  0  0  0  0  0  0  0  0  0  0  0
   18.7310  -53.5760   36.0610 C   0  0  0  0  0  0  0  0  0  0  0  0
   19.4650  -54.0690   35.0080 C   0  0  0  0  0  3  0  0  0  0  0  0
   18.8920  -51.8720   36.9060 Br  0  0  0  0  0  0  0  0  0  0  0  0
   19.1670  -55.3020   34.5850 C   0  0  0  0  0  3  0  0  0  0  0  0
  1 17  1  0  0  0  0
  2  1  1  0  0  0  0
  2  3  1  0  0  0  0
  3  4  1  0  0  0  0
  4  7  1  0  0  0  0
  5  4  1  0  0  0  0
  6  1  1  0  0  0  0
  6  5  1  0  0  0  0
  7 13  2  0  0  0  0
  8  7  1  0  0  0  0
  8  9  2  0  0  0  0
  9 10  1  0  0  0  0
 10 11  2  0  0  0  0
 11 12  1  0  0  0  0
 13 15  1  0  0  0  0
 13 11  1  0  0  0  0
 14 12  2  0  0  0  0
 15 14  1  0  0  0  0
 16 15  1  0  0  0  0
 17 20  1  0  0  0  0
 17 19  2  0  0  0  0
 18 17  2  0  0  0  0
 20 21  1  0  0  0  0
 22 21  1  0  0  0  0
 22 24  1  0  0  0  0
 23 22  2  0  0  0  0
 25 23  1  0  0  0  0
 25 20  2  0  0  0  0
M  END
>  <Pose>
1

>  <Score>
-7.802

$$$$
