MODEL 1
REMARK VINA RESULT:    -7.802      0.000      0.000
REMARK INTER + INTRA:         -10.096
REMARK INTER:                  -9.170
REMARK INTRA:                  -0.926
REMARK UNBOUND:                -0.926
REMARK  3 active torsions:
REMARK  status: ('A' for Active; 'I' for Inactive)
REMARK    1  A    between atoms: S_1  and  N_4 
REMARK    2  A    between atoms: S_1  and  C_19 
REMARK    3  A    between atoms: N_7  and  C_10 
ROOT
ATOM      1  N   UNK d   1      16.547 -57.710  33.564  0.00  0.00    -0.303 N 
ATOM      2  C   UNK d   1      15.485 -56.790  33.423  0.00  0.00     0.155 C 
ATOM      3  C   UNK d   1      14.120 -57.287  33.831  0.00  0.00     0.145 C 
ATOM      4  N   UNK d   1      14.120 -58.661  34.222  0.00  0.00    -0.361 N 
ATOM      5  C   UNK d   1      15.063 -59.638  33.705  0.00  0.00     0.145 C 
ATOM      6  C   UNK d   1      16.241 -58.984  33.044  0.00  0.00     0.155 C 
ENDROOT
BRANCH   4   7
ATOM      7  C   UNK d   1      13.166 -59.131  35.165  0.00  0.00     0.158 A 
ATOM      8  N   UNK d   1      12.189 -59.995  34.760  0.00  0.00    -0.222 NA
ATOM      9  C   UNK d   1      11.289 -60.454  35.630  0.00  0.00     0.237 A 
ATOM     10  N   UNK d   1      11.299 -60.099  36.914  0.00  0.00    -0.220 NA
ATOM     11  C   UNK d   1      12.243 -59.258  37.329  0.00  0.00     0.182 A 
ATOM     12  N   UNK d   1      12.494 -58.734  38.532  0.00  0.00    -0.222 NA
ATOM     13  C   UNK d   1      13.217 -58.736  36.475  0.00  0.00     0.128 A 
ATOM     14  C   UNK d   1      13.581 -57.919  38.429  0.00  0.00     0.210 A 
ATOM     15  N   UNK d   1      14.022 -57.921  37.171  0.00  0.00    -0.345 N 
ATOM     16  H   UNK d   1      14.836 -57.381  36.823  0.00  0.00     0.167 HD
ENDBRANCH   4   7
BRANCH   1  17
ATOM     17  S   UNK d   1      17.556 -57.597  34.892  0.00  0.00     0.267 S 
ATOM     18  O   UNK d   1      18.800 -58.439  34.629  0.00  0.00    -0.200 OA
ATOM     19  O   UNK d   1      16.953 -58.121  36.144  0.00  0.00    -0.200 OA
BRANCH  17  20
ATOM     20  C   UNK d   1      18.163 -55.972  35.226  0.00  0.00     0.121 A 
ATOM     21  S   UNK d   1      17.662 -54.854  36.410  0.00  0.00    -0.069 SA
ATOM     22  C   UNK d   1      18.731 -53.576  36.061  0.00  0.00     0.052 A 
ATOM     23  C   UNK d   1      19.465 -54.069  35.008  0.00  0.00     0.028 A 
ATOM     24 Br   UNK d   1      18.892 -51.872  36.906  0.00  0.00    -0.043 Br
ATOM     25  C   UNK d   1      19.167 -55.302  34.585  0.00  0.00     0.035 A 
ENDBRANCH  17  20
ENDBRANCH   1  17
TORSDOF 3
ENDMDL
