MODEL 1
REMARK VINA RESULT:    -8.622      0.000      0.000
REMARK INTER + INTRA:         -10.926
REMARK INTER:                 -10.135
REMARK INTRA:                  -0.791
REMARK UNBOUND:                -0.791
REMARK  3 active torsions:
REMARK  status: ('A' for Active; 'I' for Inactive)
REMARK    1  A    between atoms: S_1  and  N_4 
REMARK    2  A    between atoms: S_1  and  C_20 
REMARK    3  A    between atoms: N_7  and  C_10 
ROOT
ATOM      1  N   UNK d   1      16.910 -57.200  33.908  0.00  0.00    -0.203 NA
ATOM      2  C   UNK d   1      15.653 -56.602  33.603  0.00  0.00     0.127 C 
ATOM      3  C   UNK d   1      14.481 -57.519  33.881  0.00  0.00     0.140 C 
ATOM      4  N   UNK d   1      14.820 -58.308  35.037  0.00  0.00    -0.363 N 
ATOM      5  C   UNK d   1      15.903 -59.243  34.866  0.00  0.00     0.140 C 
ATOM      6  C   UNK d   1      16.940 -58.620  34.002  0.00  0.00     0.127 C 
ENDROOT
BRANCH   4   7
ATOM      7  C   UNK d   1      14.151 -58.197  36.278  0.00  0.00     0.148 A 
ATOM      8  C   UNK d   1      13.073 -58.925  36.573  0.00  0.00     0.080 A 
ATOM      9  C   UNK d   1      12.360 -58.841  37.835  0.00  0.00     0.043 A 
ATOM     10  C   UNK d   1      11.295 -59.588  38.072  0.00  0.00     0.043 C 
ATOM     11  N   UNK d   1      12.826 -57.938  38.816  0.00  0.00    -0.189 N 
ATOM     12  C   UNK d   1      13.988 -57.173  38.465  0.00  0.00     0.730 A 
ATOM     13  H   UNK d   1      12.393 -57.804  39.740  0.00  0.00     0.184 HD
ATOM     14  N   UNK d   1      14.612 -57.288  37.282  0.00  0.00    -0.044 N 
ATOM     15  N   UNK d   1      14.683 -56.235  39.156  0.00  0.00    -0.054 NA
ATOM     16  N   UNK d   1      15.652 -56.451  37.255  0.00  0.00    -0.143 NA
ATOM     17  C   UNK d   1      15.713 -55.783  38.420  0.00  0.00     0.275 A 
ENDBRANCH   4   7
BRANCH   1  18
ATOM     18  S   UNK d   1      18.120 -56.581  32.890  0.00  0.00     0.250 S 
ATOM     19  O   UNK d   1      17.637 -56.344  31.483  0.00  0.00    -0.205 OA
ATOM     20  O   UNK d   1      19.219 -57.628  32.786  0.00  0.00    -0.205 OA
BRANCH  18  21
ATOM     21  C   UNK d   1      18.883 -55.134  33.548  0.00  0.00     0.116 A 
ATOM     22  S   UNK d   1      18.526 -54.382  35.028  0.00  0.00    -0.070 SA
ATOM     23  C   UNK d   1      19.636 -53.094  34.961  0.00  0.00     0.052 A 
ATOM     24  C   UNK d   1      20.269 -53.287  33.762  0.00  0.00     0.028 A 
ATOM     25 Br   UNK d   1      19.958 -51.683  36.239  0.00  0.00    -0.043 Br
ATOM     26  C   UNK d   1      19.875 -54.353  33.027  0.00  0.00     0.034 A 
ENDBRANCH  18  21
ENDBRANCH   1  18
TORSDOF 3
ENDMDL
