MODEL 1
REMARK VINA RESULT:    -8.613      0.000      0.000
REMARK INTER + INTRA:         -10.844
REMARK INTER:                 -10.124
REMARK INTRA:                  -0.720
REMARK UNBOUND:                -0.720
REMARK  3 active torsions:
REMARK  status: ('A' for Active; 'I' for Inactive)
REMARK    1  A    between atoms: S_1  and  N_4 
REMARK    2  A    between atoms: S_1  and  C_20 
REMARK    3  A    between atoms: N_7  and  C_10 
ROOT
ATOM      1  N   UNK d   1      16.410 -57.701  33.358  0.00  0.00    -0.203 NA
ATOM      2  C   UNK d   1      16.204 -59.098  33.284  0.00  0.00     0.127 C 
ATOM      3  C   UNK d   1      15.299 -59.684  34.309  0.00  0.00     0.138 C 
ATOM      4  N   UNK d   1      14.120 -58.833  34.536  0.00  0.00    -0.377 N 
ATOM      5  C   UNK d   1      13.970 -57.747  33.591  0.00  0.00     0.138 C 
ATOM      6  C   UNK d   1      15.242 -56.926  33.674  0.00  0.00     0.127 C 
ENDROOT
BRANCH   1   7
ATOM      7  S   UNK d   1      17.799 -57.204  34.205  0.00  0.00     0.243 S 
ATOM      8  O   UNK d   1      18.736 -56.550  33.196  0.00  0.00    -0.206 OA
ATOM      9  O   UNK d   1      18.541 -58.386  34.755  0.00  0.00    -0.206 OA
BRANCH   7  10
ATOM     10  C   UNK d   1      17.474 -56.002  35.425  0.00  0.00     0.074 A 
ATOM     11  C   UNK d   1      16.858 -56.328  36.625  0.00  0.00     0.026 A 
ATOM     12  C   UNK d   1      16.601 -55.378  37.589  0.00  0.00     0.020 A 
ATOM     13  C   UNK d   1      16.972 -54.065  37.344  0.00  0.00     0.011 A 
ATOM     14  C   UNK d   1      17.589 -53.691  36.166  0.00  0.00     0.020 A 
ATOM     15 Br   UNK d   1      16.607 -52.756  38.694  0.00  0.00    -0.051 Br
ATOM     16  C   UNK d   1      17.827 -54.671  35.230  0.00  0.00     0.026 A 
ENDBRANCH   7  10
ENDBRANCH   1   7
BRANCH   4  17
ATOM     17  C   UNK d   1      13.231 -59.094  35.604  0.00  0.00     0.053 A 
ATOM     18  C   UNK d   1      13.606 -58.724  36.890  0.00  0.00     0.085 A 
ATOM     19  C   UNK d   1      12.722 -58.986  37.935  0.00  0.00     0.176 A 
ATOM     20  N   UNK d   1      11.550 -59.572  37.725  0.00  0.00    -0.198 N 
ATOM     21  N   UNK d   1      12.854 -58.727  39.247  0.00  0.00    -0.128 NA
ATOM     22  C   UNK d   1      10.936 -59.685  38.914  0.00  0.00     0.148 A 
ATOM     23  N   UNK d   1      11.186 -59.925  36.524  0.00  0.00    -0.174 NA
ATOM     24  N   UNK d   1      11.756 -59.158  39.843  0.00  0.00    -0.133 NA
ATOM     25  C   UNK d   1       9.587 -60.286  39.168  0.00  0.00     0.095 C 
ATOM     26  C   UNK d   1      12.011 -59.692  35.470  0.00  0.00     0.168 A 
ENDBRANCH   4  17
TORSDOF 3
ENDMDL
