/Users/jonathanwahrer/Desktop/Msc/3_Semester/Drug_Design_Praktikum/waehrer_HTS_screening/HTS_experiment/out/docking_results/vina_output/6s1j/1105_docked.pdbqt
 OpenBabel03222221503D

 33 36  0  0  1  0  0  0  0  0999 V2000
   19.3210  -56.4140   32.3280 N   0  0  0  0  0  0  0  0  0  0  0  0
   19.7300  -56.5380   30.9690 C   0  0  0  0  0  2  0  0  0  0  0  0
   18.8170  -57.3820   30.1080 C   0  0  0  0  0  2  0  0  0  0  0  0
   17.4140  -57.0330   30.3420 N   0  0  0  0  0  0  0  0  0  0  0  0
   17.0800  -56.9420   31.7460 C   0  0  0  0  0  0  0  0  0  0  0  0
   15.9580  -56.6170   32.1410 O   0  0  0  0  0  0  0  0  0  0  0  0
   18.2440  -57.2830   32.6310 C   0  0  2  0  0  3  0  0  0  0  0  0
   16.7170  -56.8660   29.6170 H   0  0  0  0  0  0  0  0  0  0  0  0
   17.8620  -57.4370   34.0490 C   0  0  0  0  0  2  0  0  0  0  0  0
   17.0870  -58.6890   34.2220 C   0  0  0  0  0  0  0  0  0  0  0  0
   17.5220  -59.7080   33.6220 O   0  0  0  0  0  0  0  0  0  0  0  0
   15.9080  -58.7440   35.0260 N   0  0  0  0  0  0  0  0  0  0  0  0
   15.4220  -57.5740   35.7050 C   0  0  0  0  0  2  0  0  0  0  0  0
   15.2060  -59.9950   35.1490 C   0  0  0  0  0  2  0  0  0  0  0  0
   13.9370  -57.5480   35.8950 C   0  0  0  0  0  2  0  0  0  0  0  0
   13.3390  -58.8620   36.0520 N   0  0  0  0  0  0  0  0  0  0  0  0
   13.7080  -59.8180   35.0190 C   0  0  0  0  0  2  0  0  0  0  0  0
   12.4610  -59.2390   37.0770 C   0  0  0  0  0  0  0  0  0  0  0  0
   12.8410  -59.0700   38.3900 C   0  0  0  0  0  3  0  0  0  0  0  0
   11.9760  -59.4570   39.4020 C   0  0  0  0  0  3  0  0  0  0  0  0
   10.7430  -60.0080   39.1550 C   0  0  0  0  0  3  0  0  0  0  0  0
   10.3680  -60.1740   37.8420 C   0  0  0  0  0  3  0  0  0  0  0  0
   11.2280  -59.7900   36.8240 C   0  0  0  0  0  3  0  0  0  0  0  0
   19.0940  -54.7770   32.7200 S   0  0  0  0  0  0  0  0  0  0  0  0
   17.9500  -54.1280   32.0090 O   0  0  0  0  0  0  0  0  0  0  0  0
   20.3300  -53.9610   32.3630 O   0  0  0  0  0  0  0  0  0  0  0  0
   18.8640  -54.5500   34.4450 C   0  0  0  0  0  0  0  0  0  0  0  0
   17.6070  -54.3790   35.0140 C   0  0  0  0  0  3  0  0  0  0  0  0
   17.4040  -54.1970   36.3530 C   0  0  0  0  0  3  0  0  0  0  0  0
   18.4710  -54.1770   37.2130 C   0  0  0  0  0  0  0  0  0  0  0  0
   19.7530  -54.3470   36.6760 C   0  0  0  0  0  3  0  0  0  0  0  0
   18.2520  -53.9290   39.0870 Br  0  0  0  0  0  0  0  0  0  0  0  0
   19.9200  -54.5270   35.3250 C   0  0  0  0  0  3  0  0  0  0  0  0
  1  7  1  0  0  0  0
  1 24  1  0  0  0  0
  2  1  1  0  0  0  0
  3  4  1  0  0  0  0
  3  2  1  0  0  0  0
  4  5  1  0  0  0  0
  5  6  2  0  0  0  0
  5  7  1  0  0  0  0
  7  9  1  1  0  0  0
  8  4  1  0  0  0  0
  9 10  1  0  0  0  0
 10 12  1  0  0  0  0
 11 10  2  0  0  0  0
 12 14  1  0  0  0  0
 12 13  1  0  0  0  0
 13 15  1  0  0  0  0
 15 16  1  0  0  0  0
 16 18  1  0  0  0  0
 17 14  1  0  0  0  0
 17 16  1  0  0  0  0
 18 19  1  0  0  0  0
 19 20  2  0  0  0  0
 21 20  1  0  0  0  0
 22 21  2  0  0  0  0
 23 18  2  0  0  0  0
 23 22  1  0  0  0  0
 24 27  1  0  0  0  0
 25 24  2  0  0  0  0
 26 24  2  0  0  0  0
 27 28  2  0  0  0  0
 27 33  1  0  0  0  0
 28 29  1  0  0  0  0
 29 30  2  0  0  0  0
 30 32  1  0  0  0  0
 31 30  1  0  0  0  0
 33 31  2  0  0  0  0
M  END
>  <Pose>
1

>  <Score>
-9.467

$$$$
