MODEL 1
REMARK VINA RESULT:    -9.635      0.000      0.000
REMARK INTER + INTRA:         -15.052
REMARK INTER:                 -13.578
REMARK INTRA:                  -1.473
REMARK UNBOUND:                -1.473
REMARK  7 active torsions:
REMARK  status: ('A' for Active; 'I' for Inactive)
REMARK    1  A    between atoms: S_1  and  N_4 
REMARK    2  A    between atoms: S_1  and  C_10 
REMARK    3  A    between atoms: C_13  and  C_16 
REMARK    4  A    between atoms: C_16  and  O_17 
REMARK    5  A    between atoms: O_17  and  C_18 
REMARK    6  A    between atoms: C_18  and  C_20 
REMARK    7  A    between atoms: C_20  and  N_21 
ROOT
ATOM      1  C   UNK d   1      13.550 -58.780  34.925  0.00  0.00     0.217 C 
ENDROOT
BRANCH   1   2
ATOM      2  C   UNK d   1      14.761 -58.301  34.215  0.00  0.00    -0.034 A 
ATOM      3  C   UNK d   1      15.927 -58.998  34.109  0.00  0.00     0.011 A 
ATOM      4  C   UNK d   1      17.023 -58.477  33.427  0.00  0.00     0.025 A 
ATOM      5  C   UNK d   1      16.977 -57.248  32.836  0.00  0.00     0.074 A 
ATOM      6  C   UNK d   1      15.796 -56.538  32.940  0.00  0.00     0.025 A 
ATOM      7  C   UNK d   1      14.706 -57.053  33.617  0.00  0.00     0.011 A 
BRANCH   5   8
ATOM      8  S   UNK d   1      18.341 -56.560  31.967  0.00  0.00     0.243 S 
ATOM      9  O   UNK d   1      19.535 -57.449  32.030  0.00  0.00    -0.206 OA
ATOM     10  O   UNK d   1      17.920 -56.479  30.513  0.00  0.00    -0.206 OA
BRANCH   8  11
ATOM     11  N   UNK d   1      18.706 -54.973  32.482  0.00  0.00    -0.202 NA
ATOM     12  C   UNK d   1      20.098 -54.636  32.340  0.00  0.00     0.134 C 
ATOM     13  C   UNK d   1      20.352 -53.435  33.256  0.00  0.00     0.183 C 
ATOM     14  O   UNK d   1      20.379 -53.831  34.575  0.00  0.00    -0.389 OA
ATOM     15  C   UNK d   1      19.623 -55.009  34.713  0.00  0.00     0.183 C 
ATOM     16  C   UNK d   1      18.362 -54.819  33.884  0.00  0.00     0.134 C 
ENDBRANCH   8  11
ENDBRANCH   5   8
ENDBRANCH   1   2
BRANCH   1  17
ATOM     17  O   UNK d   1      13.840 -59.222  36.233  0.00  0.00    -0.316 OA
BRANCH  17  18
ATOM     18  C   UNK d   1      13.867 -58.422  37.348  0.00  0.00     0.277 C 
ATOM     19  O   UNK d   1      12.819 -57.855  37.717  0.00  0.00    -0.263 OA
BRANCH  18  20
ATOM     20  C   UNK d   1      15.101 -58.225  38.103  0.00  0.00     0.246 C 
BRANCH  20  21
ATOM     21  N   UNK d   1      15.495 -56.852  38.219  0.00  0.00    -0.271 N 
ATOM     22  C   UNK d   1      16.480 -56.247  37.371  0.00  0.00     0.262 A 
ATOM     23  O   UNK d   1      17.110 -56.826  36.440  0.00  0.00    -0.267 OA
ATOM     24  C   UNK d   1      16.643 -54.849  37.751  0.00  0.00     0.049 A 
ATOM     25  C   UNK d   1      15.799 -54.579  38.797  0.00  0.00     0.048 A 
ATOM     26  C   UNK d   1      17.436 -53.826  37.285  0.00  0.00     0.037 A 
ATOM     27  C   UNK d   1      15.755 -53.315  39.354  0.00  0.00     0.019 A 
ATOM     28  C   UNK d   1      15.074 -55.825  39.099  0.00  0.00     0.262 A 
ATOM     29  C   UNK d   1      16.557 -52.298  38.873  0.00  0.00     0.020 A 
ATOM     30  C   UNK d   1      17.411 -52.556  37.822  0.00  0.00     0.011 A 
ATOM     31 Br   UNK d   1      18.538 -51.186  37.124  0.00  0.00    -0.051 Br
ATOM     32  O   UNK d   1      14.211 -55.984  39.991  0.00  0.00    -0.267 OA
ENDBRANCH  20  21
ENDBRANCH  18  20
ENDBRANCH  17  18
ENDBRANCH   1  17
TORSDOF 7
ENDMDL
