MODEL 1
REMARK VINA RESULT:    -9.948      0.000      0.000
REMARK INTER + INTRA:         -13.542
REMARK INTER:                 -12.855
REMARK INTRA:                  -0.687
REMARK UNBOUND:                -0.687
REMARK  5 active torsions:
REMARK  status: ('A' for Active; 'I' for Inactive)
REMARK    1  A    between atoms: S_1  and  N_4 
REMARK    2  A    between atoms: S_1  and  C_10 
REMARK    3  A    between atoms: N_13  and  C_15 
REMARK    4  A    between atoms: C_15  and  C_16 
REMARK    5  A    between atoms: C_19  and  C_21 
ROOT
ATOM      1  C   UNK d   1      14.223 -58.208  35.940  0.00  0.00     0.188 A 
ATOM      2  N   UNK d   1      13.800 -59.167  36.783  0.00  0.00    -0.229 NA
ATOM      3  C   UNK d   1      13.923 -58.713  38.044  0.00  0.00     0.211 A 
ATOM      4  N   UNK d   1      14.423 -57.468  38.046  0.00  0.00    -0.341 N 
ATOM      5  C   UNK d   1      14.607 -57.156  36.753  0.00  0.00     0.138 A 
ENDROOT
BRANCH   4   6
ATOM      6  C   UNK d   1      14.698 -56.645  39.205  0.00  0.00     0.212 C 
BRANCH   6   7
ATOM      7  C   UNK d   1      15.368 -55.371  38.856  0.00  0.00     0.174 A 
ATOM      8  N   UNK d   1      15.001 -54.161  39.318  0.00  0.00    -0.109 NA
ATOM      9  O   UNK d   1      15.796 -53.267  38.813  0.00  0.00    -0.191 OA
ATOM     10  C   UNK d   1      16.683 -53.819  38.031  0.00  0.00     0.206 A 
ATOM     11  N   UNK d   1      16.418 -55.136  38.056  0.00  0.00    -0.203 NA
BRANCH  10  12
ATOM     12  C   UNK d   1      17.732 -53.106  37.302  0.00  0.00     0.021 A 
ATOM     13  C   UNK d   1      18.399 -53.676  36.237  0.00  0.00     0.035 A 
ATOM     14  C   UNK d   1      19.395 -52.984  35.552  0.00  0.00     0.011 A 
ATOM     15  C   UNK d   1      19.748 -51.703  35.915  0.00  0.00     0.019 A 
ATOM     16 Br   UNK d   1      20.307 -53.792  34.079  0.00  0.00    -0.051 Br
ATOM     17  C   UNK d   1      19.083 -51.131  36.979  0.00  0.00     0.002 A 
ATOM     18  C   UNK d   1      18.085 -51.828  37.664  0.00  0.00     0.016 A 
ENDBRANCH  10  12
ENDBRANCH   6   7
ENDBRANCH   4   6
BRANCH   1  19
ATOM     19  S   UNK d   1      14.274 -58.279  34.174  0.00  0.00     0.280 S 
ATOM     20  O   UNK d   1      13.933 -59.690  33.776  0.00  0.00    -0.199 OA
ATOM     21  O   UNK d   1      13.239 -57.383  33.574  0.00  0.00    -0.199 OA
BRANCH  19  22
ATOM     22  N   UNK d   1      15.838 -57.913  33.588  0.00  0.00    -0.301 N 
ATOM     23  C   UNK d   1      16.889 -58.581  34.260  0.00  0.00     0.161 C 
ATOM     24  C   UNK d   1      18.160 -57.819  34.443  0.00  0.00     0.188 C 
ATOM     25  O   UNK d   1      18.329 -57.008  33.297  0.00  0.00    -0.388 OA
ATOM     26  C   UNK d   1      17.387 -55.986  33.456  0.00  0.00     0.188 C 
ATOM     27  C   UNK d   1      16.027 -56.550  33.246  0.00  0.00     0.161 C 
ENDBRANCH  19  22
ENDBRANCH   1  19
TORSDOF 5
ENDMDL
