/Users/jonathanwahrer/Desktop/Msc/3_Semester/Drug_Design_Praktikum/waehrer_HTS_screening/HTS_experiment/out/docking_results/vina_output/6s1j/1130_docked.pdbqt
 OpenBabel03222221513D

 29 32  0  0  0  0  0  0  0  0999 V2000
   15.9200  -57.5690   36.6840 C   0  0  0  0  0  0  0  0  0  0  0  0
   16.9270  -57.2980   35.8350 N   0  0  0  0  0  0  0  0  0  0  0  0
   17.5740  -56.1450   35.8070 N   0  0  0  0  0  2  0  0  0  0  0  0
   17.2490  -55.1450   36.6530 C   0  0  0  0  0  0  0  0  0  0  0  0
   16.2170  -55.3990   37.5340 C   0  0  0  0  0  0  0  0  0  0  0  0
   16.0770  -54.2750   38.2650 N   0  0  0  0  0  0  0  0  0  0  0  0
   16.9630  -53.3390   37.8880 C   0  0  0  0  0  0  0  0  0  0  0  0
   17.7230  -53.8610   36.8630 C   0  0  0  0  0  0  0  0  0  0  0  0
   18.7370  -53.1470   36.2440 C   0  0  0  0  0  3  0  0  0  0  0  0
   18.9640  -51.8600   36.6990 C   0  0  0  0  0  0  0  0  0  0  0  0
   18.2170  -51.3130   37.7220 C   0  0  0  0  0  3  0  0  0  0  0  0
   17.2170  -52.0390   38.3230 C   0  0  0  0  0  3  0  0  0  0  0  0
   20.3630  -50.8750   35.8440 Br  0  0  0  0  0  0  0  0  0  0  0  0
   15.0860  -54.1330   39.3130 C   0  0  0  0  0  1  0  0  0  0  0  0
   15.5640  -56.5990   37.5430 N   0  0  0  0  0  2  0  0  0  0  0  0
   15.0830  -59.1680   36.6630 S   0  0  0  0  0  0  0  0  0  0  0  0
   13.7660  -59.0980   35.4200 C   0  0  0  0  0  2  0  0  0  0  0  0
   14.3540  -58.6140   34.1370 C   0  0  0  0  0  0  0  0  0  0  0  0
   13.7060  -57.8250   33.3790 O   0  0  0  0  0  0  0  0  0  0  0  0
   15.6400  -59.0110   33.7180 N   0  0  0  0  0  0  0  0  0  0  0  0
   16.1830  -59.6590   34.3280 H   0  0  0  0  0  0  0  0  0  0  0  0
   16.1970  -58.5510   32.5000 C   0  0  0  0  0  0  0  0  0  0  0  0
   16.4670  -59.2590   31.3920 N   0  0  0  0  0  0  0  0  0  0  0  0
   16.9770  -58.4880   30.4710 O   0  0  0  0  0  0  0  0  0  0  0  0
   17.0440  -57.2950   30.9560 N   0  0  0  0  0  0  0  0  0  0  0  0
   16.5800  -57.2460   32.2110 C   0  0  0  0  0  0  0  0  0  0  0  0
   16.5090  -56.1020   33.0360 N   0  0  0  0  0  0  0  0  0  0  0  0
   16.6570  -56.2020   34.0580 H   0  0  0  0  0  0  0  0  0  0  0  0
   16.3130  -55.1520   32.6630 H   0  0  0  0  0  0  0  0  0  0  0  0
  1 15  1  0  0  0  0
  2  1  2  0  0  0  0
  3  2  1  0  0  0  0
  3  4  1  0  0  0  0
  4  8  1  0  0  0  0
  4  5  2  0  0  0  0
  5 15  1  0  0  0  0
  5  6  1  0  0  0  0
  6 14  1  0  0  0  0
  7  6  1  0  0  0  0
  7 12  1  0  0  0  0
  8  7  2  0  0  0  0
  9 10  2  0  0  0  0
  9  8  1  0  0  0  0
 10 11  1  0  0  0  0
 11 12  2  0  0  0  0
 13 10  1  0  0  0  0
 16  1  1  0  0  0  0
 17 16  1  0  0  0  0
 18 17  1  0  0  0  0
 19 18  2  0  0  0  0
 20 18  1  0  0  0  0
 20 21  1  0  0  0  0
 22 20  1  0  0  0  0
 23 22  2  0  0  0  0
 24 25  1  0  0  0  0
 24 23  1  0  0  0  0
 25 26  2  0  0  0  0
 26 22  1  0  0  0  0
 26 27  1  0  0  0  0
 27 28  1  0  0  0  0
 29 27  1  0  0  0  0
M  END
>  <Pose>
1

>  <Score>
-8.763

$$$$
