MODEL 1
REMARK VINA RESULT:    -8.653      0.000      0.000
REMARK INTER + INTRA:         -13.589
REMARK INTER:                 -12.447
REMARK INTRA:                  -1.141
REMARK UNBOUND:                -1.141
REMARK  10 active torsions:
REMARK  status: ('A' for Active; 'I' for Inactive)
REMARK    1  A    between atoms: S_1  and  C_2 
REMARK    2  A    between atoms: S_1  and  C_10 
REMARK    3  A    between atoms: C_2  and  C_3 
REMARK    4  A    between atoms: N_11  and  C_21 
REMARK    5  A    between atoms: C_14  and  N_20 
REMARK    6  A    between atoms: C_16  and  O_19 
REMARK    7  A    between atoms: C_23  and  C_28 
REMARK    8  A    between atoms: C_24  and  O_27 
REMARK    9  A    between atoms: C_25  and  O_26 
REMARK   10  A    between atoms: C_28  and  O_29 
ROOT
ATOM      1  C   UNK d   1      18.006 -55.606  32.540  0.00  0.00     0.173 A 
ATOM      2  N   UNK d   1      17.641 -56.807  32.094  0.00  0.00    -0.277 N 
ATOM      3  C   UNK d   1      18.345 -57.031  30.953  0.00  0.00     0.186 A 
ATOM      4  N   UNK d   1      18.407 -57.972  29.997  0.00  0.00    -0.042 NA
ATOM      5  C   UNK d   1      19.165 -57.923  28.898  0.00  0.00     0.724 A 
ATOM      6  N   UNK d   1      19.975 -56.809  28.721  0.00  0.00    -0.036 NA
ATOM      7  C   UNK d   1      19.980 -55.839  29.601  0.00  0.00     0.214 A 
ATOM      8  C   UNK d   1      19.182 -55.906  30.726  0.00  0.00     0.159 A 
ATOM      9  N   UNK d   1      18.926 -55.070  31.725  0.00  0.00    -0.216 NA
ENDROOT
BRANCH   2  10
ATOM     10  C   UNK d   1      16.741 -57.770  32.641  0.00  0.00     0.263 C 
ATOM     11  O   UNK d   1      15.443 -57.270  32.886  0.00  0.00    -0.353 OA
ATOM     12  C   UNK d   1      14.901 -58.384  33.567  0.00  0.00     0.179 C 
ATOM     13  C   UNK d   1      15.921 -58.428  34.735  0.00  0.00     0.182 C 
ATOM     14  C   UNK d   1      17.191 -58.483  33.875  0.00  0.00     0.198 C 
BRANCH  12  15
ATOM     15  C   UNK d   1      13.517 -58.141  34.038  0.00  0.00     0.198 C 
BRANCH  15  16
ATOM     16  O   UNK d   1      13.519 -57.649  35.349  0.00  0.00    -0.398 OA
ATOM     17  H   UNK d   1      14.410 -57.204  35.494  0.00  0.00     0.209 HD
ENDBRANCH  15  16
ENDBRANCH  12  15
BRANCH  13  18
ATOM     18  O   UNK d   1      15.763 -59.530  35.530  0.00  0.00    -0.390 OA
ATOM     19  H   UNK d   1      15.832 -60.354  34.990  0.00  0.00     0.210 HD
ENDBRANCH  13  18
BRANCH  14  20
ATOM     20  O   UNK d   1      17.442 -59.855  33.616  0.00  0.00    -0.388 OA
ATOM     21  H   UNK d   1      17.402 -60.278  34.502  0.00  0.00     0.210 HD
ENDBRANCH  14  20
ENDBRANCH   2  10
BRANCH   1  22
ATOM     22  S   UNK d   1      17.317 -54.751  33.964  0.00  0.00    -0.087 SA
BRANCH  22  23
ATOM     23  C   UNK d   1      18.365 -55.041  35.456  0.00  0.00     0.122 C 
BRANCH  23  24
ATOM     24  C   UNK d   1      18.046 -54.030  36.490  0.00  0.00    -0.031 A 
ATOM     25  C   UNK d   1      17.022 -54.147  37.398  0.00  0.00     0.018 A 
ATOM     26  C   UNK d   1      16.679 -53.143  38.235  0.00  0.00     0.019 A 
ATOM     27 Br   UNK d   1      16.198 -55.870  37.503  0.00  0.00    -0.051 Br
ATOM     28  C   UNK d   1      17.355 -51.928  38.227  0.00  0.00     0.001 A 
ATOM     29  C   UNK d   1      18.403 -51.772  37.310  0.00  0.00     0.001 A 
ATOM     30  C   UNK d   1      18.741 -52.806  36.458  0.00  0.00     0.009 A 
ENDBRANCH  23  24
ENDBRANCH  22  23
ENDBRANCH   1  22
BRANCH   5  31
ATOM     31  N   UNK d   1      19.181 -58.917  27.862  0.00  0.00    -0.231 N 
ATOM     32  H   UNK d   1      19.562 -59.859  27.922  0.00  0.00     0.174 HD
ATOM     33  H   UNK d   1      18.779 -58.623  26.904  0.00  0.00     0.174 HD
ENDBRANCH   5  31
BRANCH   7  34
ATOM     34  O   UNK d   1      20.767 -54.722  29.480  0.00  0.00    -0.343 OA
ATOM     35  H   UNK d   1      20.688 -54.057  28.718  0.00  0.00     0.219 HD
ENDBRANCH   7  34
TORSDOF 10
ENDMDL
