/Users/jonathanwahrer/Desktop/Msc/3_Semester/Drug_Design_Praktikum/waehrer_HTS_screening/HTS_experiment/out/docking_results/vina_output/6s1j/1143_docked.pdbqt
 OpenBabel03222221523D

 33 37  0  0  1  0  0  0  0  0999 V2000
   17.1120  -62.6320   29.5190 C   0  0  1  0  0  3  0  0  0  0  0  0
   17.5490  -63.8070   28.7790 N   0  0  0  0  0  4  0  0  0  0  0  0
   18.8860  -64.1920   29.1990 C   0  0  0  0  0  2  0  0  0  0  0  0
   19.6000  -63.1470   30.0150 C   0  0  0  0  0  2  0  0  0  0  0  0
   19.3390  -61.8040   29.3850 C   0  0  0  0  0  0  0  0  0  0  0  0
   17.9770  -61.5440   29.0980 C   0  0  0  0  0  0  0  0  0  0  0  0
   17.6330  -60.3620   28.5020 C   0  0  0  0  0  0  0  0  0  0  0  0
   18.6540  -59.4620   28.2070 C   0  0  0  0  0  0  0  0  0  0  0  0
   19.9700  -59.7370   28.4980 C   0  0  0  0  0  0  0  0  0  0  0  0
   20.3340  -60.9270   29.0990 C   0  0  0  0  0  3  0  0  0  0  0  0
   20.7390  -58.6650   28.0930 O   0  0  0  0  0  0  0  0  0  0  0  0
   19.9520  -57.8270   27.2830 C   0  0  0  0  0  2  0  0  0  0  0  0
   18.6240  -58.2240   27.6250 O   0  0  0  0  0  0  0  0  0  0  0  0
   17.5470  -63.6590   27.3640 C   0  0  0  0  0  1  0  0  0  0  0  0
   16.9050  -64.5820   29.0410 H   0  0  0  0  0  0  0  0  0  0  0  0
   15.6620  -62.5090   29.5950 C   0  0  1  0  0  3  0  0  0  0  0  0
   15.1770  -63.8840   30.1040 C   0  0  0  0  0  0  0  0  0  0  0  0
   15.6160  -64.1970   31.4150 N   0  0  0  0  0  2  0  0  0  0  0  0
   14.4720  -64.6230   29.4120 O   0  0  0  0  0  0  0  0  0  0  0  0
   15.8230  -63.3500   32.3570 C   0  0  0  0  0  0  0  0  0  0  0  0
   16.3770  -63.8390   33.9830 S   0  0  0  0  0  0  0  0  0  0  0  0
   15.5830  -61.9690   32.0030 N   0  0  0  0  0  0  0  0  0  0  0  0
   15.1510  -61.6330   30.6930 C   0  0  0  0  0  0  0  0  0  0  0  0
   14.4010  -60.6640   30.5620 O   0  0  0  0  0  0  0  0  0  0  0  0
   15.7690  -60.9530   32.9450 C   0  0  0  0  0  0  0  0  0  0  0  0
   16.9690  -60.2340   32.8940 C   0  0  0  0  0  3  0  0  0  0  0  0
   17.2240  -59.2170   33.7900 C   0  0  0  0  0  3  0  0  0  0  0  0
   16.2710  -58.9070   34.7560 C   0  0  0  0  0  0  0  0  0  0  0  0
   15.0730  -59.6310   34.7980 C   0  0  0  0  0  3  0  0  0  0  0  0
   16.5810  -57.5220   36.0000 Br  0  0  0  0  0  0  0  0  0  0  0  0
   14.8370  -60.6410   33.8970 C   0  0  0  0  0  3  0  0  0  0  0  0
   16.3160  -60.0590   28.1900 O   0  0  0  0  0  0  0  0  0  0  0  0
   15.8840  -60.1840   26.8390 C   0  0  0  0  0  1  0  0  0  0  0  0
  1  6  1  6  0  0  0
  1 16  1  0  0  0  0
  2 15  1  0  0  0  0
  2  3  1  0  0  0  0
  2  1  1  0  0  0  0
  3  4  1  0  0  0  0
  5  4  1  0  0  0  0
  6  5  2  0  0  0  0
  7  6  1  0  0  0  0
  8  9  1  0  0  0  0
  8  7  2  0  0  0  0
  9 10  2  0  0  0  0
 10  5  1  0  0  0  0
 11  9  1  0  0  0  0
 12 13  1  0  0  0  0
 12 11  1  0  0  0  0
 13  8  1  0  0  0  0
 14  2  1  0  0  0  0
 16 17  1  1  0  0  0
 16 23  1  0  0  0  0
 17 18  1  0  0  0  0
 18 20  1  0  0  0  0
 19 17  2  0  0  0  0
 20 21  2  0  0  0  0
 22 20  1  0  0  0  0
 22 25  1  0  0  0  0
 23 22  1  0  0  0  0
 24 23  2  0  0  0  0
 25 31  1  0  0  0  0
 26 25  2  0  0  0  0
 26 27  1  0  0  0  0
 27 28  2  0  0  0  0
 28 29  1  0  0  0  0
 28 30  1  0  0  0  0
 31 29  2  0  0  0  0
 32  7  1  0  0  0  0
 33 32  1  0  0  0  0
M  END
>  <Pose>
1

>  <Score>
-5.120

$$$$
