MODEL 1
REMARK VINA RESULT:    -5.120      0.000      0.000
REMARK INTER + INTRA:          -7.647
REMARK INTER:                  -6.018
REMARK INTRA:                  -1.629
REMARK UNBOUND:                -1.629
REMARK  3 active torsions:
REMARK  status: ('A' for Active; 'I' for Inactive)
REMARK    1  A    between atoms: C_6  and  C_17 
REMARK    2  A    between atoms: N_9  and  C_10 
REMARK    3  A    between atoms: C_23  and  O_30 
ROOT
ATOM      1  C   UNK d   1      17.112 -62.632  29.519  0.00  0.00     0.246 C 
ATOM      2  N   UNK d   1      17.549 -63.807  28.779  0.00  0.00    -0.065 N 
ATOM      3  C   UNK d   1      18.886 -64.192  29.199  0.00  0.00     0.240 C 
ATOM      4  C   UNK d   1      19.600 -63.147  30.015  0.00  0.00     0.067 C 
ATOM      5  C   UNK d   1      19.339 -61.804  29.385  0.00  0.00    -0.043 A 
ATOM      6  C   UNK d   1      17.977 -61.544  29.098  0.00  0.00     0.017 A 
ATOM      7  C   UNK d   1      17.633 -60.362  28.502  0.00  0.00     0.113 A 
ATOM      8  C   UNK d   1      18.654 -59.462  28.207  0.00  0.00     0.139 A 
ATOM      9  C   UNK d   1      19.970 -59.737  28.498  0.00  0.00     0.108 A 
ATOM     10  C   UNK d   1      20.334 -60.927  29.099  0.00  0.00     0.047 A 
ATOM     11  O   UNK d   1      20.739 -58.665  28.093  0.00  0.00    -0.323 OA
ATOM     12  C   UNK d   1      19.952 -57.827  27.283  0.00  0.00     0.352 C 
ATOM     13  O   UNK d   1      18.624 -58.224  27.625  0.00  0.00    -0.320 OA
ATOM     14  C   UNK d   1      17.547 -63.659  27.364  0.00  0.00     0.270 C 
ATOM     15  H   UNK d   1      16.905 -64.582  29.041  0.00  0.00     0.280 HD
ENDROOT
BRANCH   1  16
ATOM     16  C   UNK d   1      15.662 -62.509  29.595  0.00  0.00     0.208 C 
ATOM     17  C   UNK d   1      15.177 -63.884  30.104  0.00  0.00     0.261 C 
ATOM     18  N   UNK d   1      15.616 -64.197  31.415  0.00  0.00    -0.187 NA
ATOM     19  O   UNK d   1      14.472 -64.623  29.412  0.00  0.00    -0.270 OA
ATOM     20  C   UNK d   1      15.823 -63.350  32.357  0.00  0.00     0.190 C 
ATOM     21  S   UNK d   1      16.377 -63.839  33.983  0.00  0.00    -0.010 SA
ATOM     22  N   UNK d   1      15.583 -61.969  32.003  0.00  0.00    -0.259 N 
ATOM     23  C   UNK d   1      15.151 -61.633  30.693  0.00  0.00     0.246 C 
ATOM     24  O   UNK d   1      14.401 -60.664  30.562  0.00  0.00    -0.272 OA
BRANCH  22  25
ATOM     25  C   UNK d   1      15.769 -60.953  32.945  0.00  0.00     0.044 A 
ATOM     26  C   UNK d   1      16.969 -60.234  32.894  0.00  0.00     0.031 A 
ATOM     27  C   UNK d   1      17.224 -59.217  33.790  0.00  0.00     0.021 A 
ATOM     28  C   UNK d   1      16.271 -58.907  34.756  0.00  0.00     0.011 A 
ATOM     29  C   UNK d   1      15.073 -59.631  34.798  0.00  0.00     0.021 A 
ATOM     30 Br   UNK d   1      16.581 -57.522  36.000  0.00  0.00    -0.051 Br
ATOM     31  C   UNK d   1      14.837 -60.641  33.897  0.00  0.00     0.031 A 
ENDBRANCH  22  25
ENDBRANCH   1  16
BRANCH   7  32
ATOM     32  O   UNK d   1      16.316 -60.059  28.190  0.00  0.00    -0.352 OA
ATOM     33  C   UNK d   1      15.884 -60.184  26.839  0.00  0.00     0.210 C 
ENDBRANCH   7  32
TORSDOF 3
ENDMDL
