MODEL 1
REMARK VINA RESULT:    -8.434      0.000      0.000
REMARK INTER + INTRA:          -8.832
REMARK INTER:                  -8.927
REMARK INTRA:                   0.095
REMARK UNBOUND:                 0.095
REMARK  1 active torsions:
REMARK  status: ('A' for Active; 'I' for Inactive)
REMARK    1  A    between atoms: N_11  and  C_14 
ROOT
ATOM      1  S   UNK d   1      14.575 -59.753  34.313  0.00  0.00     0.148 S 
ATOM      2  O   UNK d   1      14.005 -60.712  33.309  0.00  0.00    -0.228 OA
ATOM      3  O   UNK d   1      14.437 -60.268  35.718  0.00  0.00    -0.228 OA
ATOM      4  C   UNK d   1      16.282 -59.388  33.965  0.00  0.00     0.175 C 
ATOM      5  C   UNK d   1      16.544 -58.019  34.558  0.00  0.00     0.195 C 
ATOM      6  N   UNK d   1      15.837 -57.028  33.772  0.00  0.00    -0.318 N 
ATOM      7  C   UNK d   1      14.528 -57.319  33.224  0.00  0.00     0.143 C 
ATOM      8  C   UNK d   1      13.730 -58.168  34.215  0.00  0.00     0.160 C 
ATOM      9  C   UNK d   1      16.701 -55.900  33.732  0.00  0.00     0.328 C 
ATOM     10  O   UNK d   1      16.379 -54.721  33.361  0.00  0.00    -0.246 OA
ATOM     11  N   UNK d   1      18.007 -56.251  34.170  0.00  0.00    -0.259 N 
ATOM     12  C   UNK d   1      17.957 -57.634  34.491  0.00  0.00     0.252 C 
ATOM     13  O   UNK d   1      18.939 -58.409  34.686  0.00  0.00    -0.270 OA
ENDROOT
BRANCH  11  14
ATOM     14  C   UNK d   1      19.177 -55.394  34.280  0.00  0.00     0.135 C 
ATOM     15  C   UNK d   1      19.421 -54.629  32.990  0.00  0.00     0.058 C 
ATOM     16  C   UNK d   1      20.721 -53.851  33.204  0.00  0.00     0.178 C 
ATOM     17  O   UNK d   1      20.440 -52.885  34.201  0.00  0.00    -0.349 OA
ATOM     18  C   UNK d   1      19.616 -53.195  35.277  0.00  0.00     0.094 A 
ATOM     19  C   UNK d   1      18.983 -54.402  35.354  0.00  0.00     0.000 A 
ATOM     20  C   UNK d   1      19.471 -52.224  36.257  0.00  0.00     0.044 A 
ATOM     21  C   UNK d   1      18.173 -54.707  36.412  0.00  0.00     0.012 A 
ATOM     22  C   UNK d   1      18.003 -53.771  37.404  0.00  0.00     0.002 A 
ATOM     23  C   UNK d   1      18.646 -52.562  37.314  0.00  0.00     0.022 A 
ATOM     24 Br   UNK d   1      20.356 -50.545  36.143  0.00  0.00    -0.048 Br
ENDBRANCH  11  14
TORSDOF 1
ENDMDL
