MODEL 1
REMARK VINA RESULT:    -8.443      0.000      0.000
REMARK INTER + INTRA:         -10.855
REMARK INTER:                  -9.924
REMARK INTRA:                  -0.931
REMARK UNBOUND:                -0.931
REMARK  3 active torsions:
REMARK  status: ('A' for Active; 'I' for Inactive)
REMARK    1  A    between atoms: C_2  and  C_7 
REMARK       I    between atoms: C_7  and  N_9 
REMARK    2  A    between atoms: N_9  and  C_10 
REMARK    3  A    between atoms: N_12  and  C_15 
ROOT
ATOM      1  C   UNK d   1      17.165 -53.618  38.532  0.00  0.00     0.104 C 
ATOM      2  C   UNK d   1      17.587 -52.747  37.376  0.00  0.00     0.149 C 
ATOM      3  N   UNK d   1      18.764 -53.452  36.892  0.00  0.00    -0.361 N 
ATOM      4  C   UNK d   1      19.537 -53.755  38.072  0.00  0.00     0.127 C 
ATOM      5  C   UNK d   1      18.502 -53.933  39.167  0.00  0.00     0.046 C 
ENDROOT
BRANCH   1   6
ATOM      6  N   UNK d   1      16.596 -54.879  38.079  0.00  0.00    -0.350 N 
ATOM      7  C   UNK d   1      15.411 -55.408  38.637  0.00  0.00     0.259 C 
ATOM      8  O   UNK d   1      14.769 -54.835  39.553  0.00  0.00    -0.267 OA
ATOM      9  H   UNK d   1      17.065 -55.423  37.321  0.00  0.00     0.163 HD
BRANCH   7  10
ATOM     10  C   UNK d   1      14.847 -56.693  38.164  0.00  0.00     0.073 A 
ATOM     11  S   UNK d   1      15.549 -57.883  37.164  0.00  0.00    -0.095 SA
ATOM     12  C   UNK d   1      14.262 -58.999  37.118  0.00  0.00     0.069 A 
ATOM     13  C   UNK d   1      13.307 -58.401  37.899  0.00  0.00     0.018 A 
ATOM     14  C   UNK d   1      13.610 -57.216  38.435  0.00  0.00     0.044 A 
ATOM     15 Br   UNK d   1      11.610 -59.302  38.166  0.00  0.00    -0.051 Br
ENDBRANCH   7  10
ENDBRANCH   1   6
BRANCH   3  16
ATOM     16  C   UNK d   1      19.045 -53.752  35.515  0.00  0.00     0.174 A 
ATOM     17  N   UNK d   1      20.091 -53.192  34.880  0.00  0.00    -0.238 NA
ATOM     18  C   UNK d   1      20.327 -53.492  33.591  0.00  0.00     0.136 A 
ATOM     19  C   UNK d   1      19.532 -54.359  32.887  0.00  0.00     0.119 A 
ATOM     20  N   UNK d   1      18.483 -54.927  33.506  0.00  0.00    -0.294 N 
ATOM     21  C   UNK d   1      18.256 -54.619  34.798  0.00  0.00     0.203 A 
ATOM     22  C   UNK d   1      17.545 -55.803  33.075  0.00  0.00     0.240 A 
ATOM     23  N   UNK d   1      17.161 -55.328  35.134  0.00  0.00    -0.126 NA
ATOM     24  N   UNK d   1      16.724 -56.042  34.111  0.00  0.00    -0.143 NA
ENDBRANCH   3  16
TORSDOF 3
ENDMDL
