MODEL 1
REMARK VINA RESULT:    -8.442      0.000      0.000
REMARK INTER + INTRA:         -11.295
REMARK INTER:                 -10.909
REMARK INTRA:                  -0.386
REMARK UNBOUND:                -0.386
REMARK  5 active torsions:
REMARK  status: ('A' for Active; 'I' for Inactive)
REMARK    1  A    between atoms: C_4  and  C_6 
REMARK    2  A    between atoms: C_7  and  C_9 
REMARK    3  A    between atoms: C_11  and  C_14 
REMARK    4  A    between atoms: N_16  and  C_19 
REMARK    5  A    between atoms: C_19  and  C_20 
REMARK       I    between atoms: C_20  and  N_22 
ROOT
ATOM      1  C   UNK d   1      15.731 -55.000  38.825  0.00  0.00     0.178 A 
ATOM      2  N   UNK d   1      15.492 -56.001  37.958  0.00  0.00    -0.201 NA
ATOM      3  C   UNK d   1      14.395 -56.684  38.327  0.00  0.00     0.229 A 
ATOM      4  N   UNK d   1      13.967 -56.074  39.445  0.00  0.00    -0.102 NA
ATOM      5  O   UNK d   1      14.776 -55.076  39.721  0.00  0.00    -0.195 OA
ENDROOT
BRANCH   3   6
ATOM      6  C   UNK d   1      13.779 -57.840  37.676  0.00  0.00     0.221 A 
ATOM      7  N   UNK d   1      14.122 -58.355  36.483  0.00  0.00    -0.147 NA
ATOM      8  N   UNK d   1      13.349 -59.408  36.199  0.00  0.00    -0.253 N 
ATOM      9  C   UNK d   1      12.486 -59.584  37.225  0.00  0.00     0.231 A 
ATOM     10  N   UNK d   1      12.770 -58.608  38.119  0.00  0.00    -0.218 NA
BRANCH   8  11
ATOM     11  C   UNK d   1      13.416 -60.228  35.001  0.00  0.00     0.254 C 
BRANCH  11  12
ATOM     12  C   UNK d   1      13.760 -59.360  33.854  0.00  0.00     0.235 C 
ATOM     13  O   UNK d   1      14.562 -59.790  32.996  0.00  0.00    -0.272 OA
ATOM     14  N   UNK d   1      13.186 -58.072  33.743  0.00  0.00    -0.369 N 
ATOM     15  H   UNK d   1      12.820 -57.704  32.822  0.00  0.00     0.159 HD
ATOM     16  H   UNK d   1      13.084 -57.406  34.547  0.00  0.00     0.159 HD
ENDBRANCH  11  12
ENDBRANCH   8  11
ENDBRANCH   3   6
BRANCH   1  17
ATOM     17  C   UNK d   1      16.853 -53.998  38.784  0.00  0.00     0.074 A 
ATOM     18  C   UNK d   1      16.622 -52.868  37.772  0.00  0.00     0.032 A 
ATOM     19  C   UNK d   1      16.597 -52.604  39.212  0.00  0.00     0.023 A 
BRANCH  18  20
ATOM     20  C   UNK d   1      17.884 -52.498  37.013  0.00  0.00    -0.045 A 
ATOM     21  C   UNK d   1      18.337 -53.245  35.981  0.00  0.00     0.034 A 
ATOM     22  C   UNK d   1      19.483 -52.813  35.366  0.00  0.00     0.051 A 
ATOM     23  S   UNK d   1      19.889 -51.406  36.227  0.00  0.00    -0.094 SA
ATOM     24 Br   UNK d   1      20.387 -53.641  33.874  0.00  0.00    -0.043 Br
ATOM     25  C   UNK d   1      18.607 -51.387  37.345  0.00  0.00     0.058 A 
ENDBRANCH  18  20
ENDBRANCH   1  17
TORSDOF 5
ENDMDL
