MODEL 1
REMARK VINA RESULT:    -8.449      0.000      0.000
REMARK INTER + INTRA:         -12.367
REMARK INTER:                 -11.659
REMARK INTRA:                  -0.708
REMARK UNBOUND:                -0.708
REMARK  7 active torsions:
REMARK  status: ('A' for Active; 'I' for Inactive)
REMARK    1  A    between atoms: C_5  and  C_6 
REMARK    2  A    between atoms: C_6  and  C_8 
REMARK    3  A    between atoms: C_8  and  N_9 
REMARK    4  A    between atoms: N_16  and  C_19 
REMARK    5  A    between atoms: C_17  and  N_18 
REMARK    6  A    between atoms: C_19  and  C_20 
REMARK    7  A    between atoms: C_20  and  N_21 
ROOT
ATOM      1  N   UNK d   1      16.508 -57.803  33.882  0.00  0.00    -0.172 N 
ATOM      2  C   UNK d   1      17.127 -57.306  32.785  0.00  0.00     0.079 A 
ATOM      3  C   UNK d   1      17.993 -56.320  33.152  0.00  0.00     0.079 A 
ATOM      4  C   UNK d   1      18.748 -55.659  32.200  0.00  0.00     0.032 A 
ATOM      5  C   UNK d   1      18.612 -56.011  30.876  0.00  0.00     0.002 A 
ATOM      6  C   UNK d   1      17.748 -57.000  30.481  0.00  0.00     0.002 A 
ATOM      7  C   UNK d   1      17.011 -57.639  31.454  0.00  0.00     0.032 A 
ATOM      8  N   UNK d   1      17.904 -56.209  34.480  0.00  0.00    -0.178 N 
ATOM      9  C   UNK d   1      16.991 -57.120  34.923  0.00  0.00     0.703 A 
ENDROOT
BRANCH   1  10
ATOM     10  C   UNK d   1      15.528 -58.860  33.855  0.00  0.00     0.232 C 
BRANCH  10  11
ATOM     11  C   UNK d   1      14.158 -58.353  34.113  0.00  0.00     0.185 C 
ATOM     12  O   UNK d   1      13.662 -57.440  33.409  0.00  0.00    -0.290 OA
BRANCH  11  13
ATOM     13  C   UNK d   1      13.325 -58.889  35.195  0.00  0.00     0.053 A 
ATOM     14  S   UNK d   1      13.523 -58.782  36.893  0.00  0.00    -0.079 SA
ATOM     15  C   UNK d   1      12.159 -59.662  37.395  0.00  0.00     0.052 A 
ATOM     16  C   UNK d   1      11.578 -60.021  36.210  0.00  0.00     0.028 A 
ATOM     17 Br   UNK d   1      11.602 -60.037  39.180  0.00  0.00    -0.043 Br
ATOM     18  C   UNK d   1      12.173 -59.626  35.083  0.00  0.00     0.024 A 
ENDBRANCH  11  13
ENDBRANCH  10  11
ENDBRANCH   1  10
BRANCH   9  19
ATOM     19  N   UNK d   1      16.715 -57.204  36.171  0.00  0.00    -0.117 NA
ATOM     20  H   UNK d   1      17.064 -56.640  36.944  0.00  0.00     0.206 HD
ENDBRANCH   9  19
BRANCH   8  21
ATOM     21  C   UNK d   1      18.676 -55.274  35.287  0.00  0.00     0.175 C 
BRANCH  21  22
ATOM     22  C   UNK d   1      17.693 -54.419  36.102  0.00  0.00     0.255 C 
BRANCH  22  23
ATOM     23  N   UNK d   1      17.928 -54.529  37.513  0.00  0.00    -0.070 N 
ATOM     24  C   UNK d   1      19.105 -53.820  37.972  0.00  0.00     0.235 C 
ATOM     25  C   UNK d   1      19.114 -52.389  37.514  0.00  0.00     0.028 C 
ATOM     26  C   UNK d   1      17.822 -51.682  37.755  0.00  0.00     0.003 C 
ATOM     27  C   UNK d   1      16.607 -52.538  37.786  0.00  0.00     0.028 C 
ATOM     28  C   UNK d   1      16.805 -53.950  38.209  0.00  0.00     0.235 C 
ATOM     29  H   UNK d   1      18.074 -55.526  37.782  0.00  0.00     0.279 HD
ENDBRANCH  22  23
ENDBRANCH  21  22
ENDBRANCH   8  21
TORSDOF 7
ENDMDL
