MODEL 1
REMARK VINA RESULT:    -8.553      0.000      0.000
REMARK INTER + INTRA:         -13.659
REMARK INTER:                 -12.054
REMARK INTRA:                  -1.605
REMARK UNBOUND:                -1.605
REMARK  7 active torsions:
REMARK  status: ('A' for Active; 'I' for Inactive)
REMARK    1  A    between atoms: C_5  and  C_6 
REMARK    2  A    between atoms: C_6  and  C_7 
REMARK    3  A    between atoms: C_8  and  C_23 
REMARK    4  A    between atoms: N_9  and  C_14 
REMARK    5  A    between atoms: C_14  and  C_15 
REMARK    6  A    between atoms: C_15  and  C_16 
REMARK    7  A    between atoms: C_16  and  N_17 
ROOT
ATOM      1  C   UNK d   1      17.772 -57.515  32.428  0.00  0.00     0.063 C 
ATOM      2  C   UNK d   1      16.793 -56.466  32.867  0.00  0.00     0.161 C 
ATOM      3  N   UNK d   1      17.619 -55.438  33.419  0.00  0.00    -0.332 N 
ATOM      4  C   UNK d   1      18.822 -55.467  32.600  0.00  0.00     0.295 C 
ATOM      5  O   UNK d   1      19.604 -54.483  32.499  0.00  0.00    -0.264 OA
ATOM      6  C   UNK d   1      18.934 -56.768  31.965  0.00  0.00     0.250 C 
ATOM      7  O   UNK d   1      19.850 -57.170  31.173  0.00  0.00    -0.282 OA
ENDROOT
BRANCH   3   8
ATOM      8  C   UNK d   1      17.391 -54.495  34.473  0.00  0.00     0.129 C 
BRANCH   8   9
ATOM      9  C   UNK d   1      18.244 -54.643  35.691  0.00  0.00     0.048 C 
BRANCH   9  10
ATOM     10  C   UNK d   1      17.380 -54.684  36.960  0.00  0.00     0.236 C 
BRANCH  10  11
ATOM     11  N   UNK d   1      18.129 -54.117  38.030  0.00  0.00    -0.067 N 
ATOM     12  C   UNK d   1      18.822 -52.902  37.744  0.00  0.00     0.261 C 
ATOM     13  C   UNK d   1      17.918 -51.694  37.679  0.00  0.00     0.195 C 
ATOM     14  O   UNK d   1      16.598 -52.163  37.869  0.00  0.00    -0.388 OA
ATOM     15  C   UNK d   1      16.568 -52.616  39.203  0.00  0.00     0.195 C 
ATOM     16  C   UNK d   1      17.328 -53.926  39.225  0.00  0.00     0.261 C 
ATOM     17  H   UNK d   1      18.870 -54.832  38.301  0.00  0.00     0.280 HD
ENDBRANCH  10  11
ENDBRANCH   9  10
ENDBRANCH   8   9
ENDBRANCH   3   8
BRANCH   2  18
ATOM     18  C   UNK d   1      15.749 -57.019  33.721  0.00  0.00    -0.029 A 
ATOM     19  C   UNK d   1      16.105 -57.409  35.021  0.00  0.00     0.028 A 
ATOM     20  C   UNK d   1      15.208 -57.919  35.925  0.00  0.00     0.011 A 
ATOM     21  C   UNK d   1      13.891 -58.064  35.564  0.00  0.00     0.019 A 
ATOM     22 Br   UNK d   1      15.721 -58.443  37.689  0.00  0.00    -0.051 Br
ATOM     23  C   UNK d   1      13.501 -57.688  34.288  0.00  0.00     0.002 A 
ATOM     24  C   UNK d   1      14.431 -57.179  33.406  0.00  0.00     0.009 A 
ENDBRANCH   2  18
BRANCH   1  25
ATOM     25  C   UNK d   1      17.613 -58.824  32.400  0.00  0.00     0.139 C 
ATOM     26  O   UNK d   1      18.076 -59.592  33.494  0.00  0.00    -0.190 OA
BRANCH  25  27
ATOM     27  C   UNK d   1      16.971 -59.483  31.265  0.00  0.00     0.068 A 
ATOM     28  S   UNK d   1      17.421 -59.353  29.619  0.00  0.00    -0.070 SA
ATOM     29  C   UNK d   1      16.198 -60.326  28.936  0.00  0.00     0.072 A 
ATOM     30  N   UNK d   1      15.510 -60.697  29.999  0.00  0.00    -0.250 NA
ATOM     31  C   UNK d   1      15.958 -60.674  27.485  0.00  0.00     0.078 C 
ATOM     32  C   UNK d   1      15.869 -60.293  31.181  0.00  0.00     0.051 A 
ATOM     33  C   UNK d   1      15.046 -60.690  32.400  0.00  0.00     0.072 C 
ENDBRANCH  25  27
ENDBRANCH   1  25
TORSDOF 7
ENDMDL
