/Users/jonathanwahrer/Desktop/Msc/3_Semester/Drug_Design_Praktikum/waehrer_HTS_screening/HTS_experiment/out/docking_results/vina_output/6s1j/1178_docked.pdbqt
 OpenBabel03222221533D

 33 36  0  0  1  0  0  0  0  0999 V2000
   16.4470  -58.3200   33.2590 C   0  0  1  0  0  3  0  0  0  0  0  0
   17.4040  -58.1790   34.4010 C   0  0  1  0  0  3  0  0  0  0  0  0
   18.3910  -57.2740   33.8730 N   0  0  0  0  0  0  0  0  0  0  0  0
   18.5000  -57.6030   32.4810 C   0  0  0  0  0  0  0  0  0  0  0  0
   19.4750  -57.3620   31.7470 O   0  0  0  0  0  0  0  0  0  0  0  0
   17.2770  -58.2720   32.0620 C   0  0  0  0  0  0  0  0  0  0  0  0
   16.9320  -58.7400   30.9430 O   0  0  0  0  0  0  0  0  0  0  0  0
   19.1020  -56.2880   34.6300 C   0  0  0  0  0  2  0  0  0  0  0  0
   19.0440  -54.9160   34.1000 C   0  0  0  0  0  2  0  0  0  0  0  0
   18.7880  -53.8350   35.0160 C   0  0  0  0  0  2  0  0  0  0  0  0
   19.3990  -53.5320   36.2220 N   0  0  0  0  0  4  0  0  0  0  0  0
   18.5160  -53.9270   37.3810 C   0  0  0  0  0  2  0  0  0  0  0  0
   17.4690  -52.8810   37.5760 C   0  0  0  0  0  2  0  0  0  0  0  0
   18.1090  -51.7340   38.0310 O   0  0  0  0  0  0  0  0  0  0  0  0
   18.8380  -51.2490   36.9210 C   0  0  0  0  0  2  0  0  0  0  0  0
   19.8980  -52.2320   36.5090 C   0  0  0  0  0  2  0  0  0  0  0  0
   20.2080  -54.1800   36.3830 H   0  0  0  0  0  0  0  0  0  0  0  0
   16.7100  -57.7290   35.6170 C   0  0  0  0  0  0  0  0  0  0  0  0
   16.2810  -56.4590   35.8890 C   0  0  0  0  0  3  0  0  0  0  0  0
   15.6370  -56.0790   37.0450 C   0  0  0  0  0  3  0  0  0  0  0  0
   15.4010  -57.0290   38.0060 C   0  0  0  0  0  0  0  0  0  0  0  0
   15.8080  -58.3200   37.7930 C   0  0  0  0  0  3  0  0  0  0  0  0
   14.5030  -56.4960   39.6140 Br  0  0  0  0  0  0  0  0  0  0  0  0
   16.4480  -58.6660   36.6260 C   0  0  0  0  0  3  0  0  0  0  0  0
   15.1640  -58.4930   33.3720 C   0  0  2  0  0  3  0  0  0  0  0  0
   14.3040  -57.3910   33.2240 O   0  0  0  0  0  1  0  0  0  0  0  0
   14.6040  -59.8330   33.6550 C   0  0  0  0  0  0  0  0  0  0  0  0
   15.0140  -61.3480   32.9670 S   0  0  0  0  0  0  0  0  0  0  0  0
   13.9720  -62.3390   33.8810 C   0  0  0  0  0  0  0  0  0  0  0  0
   13.3670  -61.4690   34.6640 N   0  0  0  0  0  0  0  0  0  0  0  0
   13.7650  -63.8290   33.8380 C   0  0  0  0  0  1  0  0  0  0  0  0
   13.6580  -60.2070   34.5780 C   0  0  0  0  0  0  0  0  0  0  0  0
   13.0080  -59.1770   35.4990 C   0  0  0  0  0  1  0  0  0  0  0  0
  1 25  1  1  0  0  0
  1  2  1  0  0  0  0
  2 18  1  1  0  0  0
  3  2  1  0  0  0  0
  3  8  1  0  0  0  0
  4  3  1  0  0  0  0
  5  4  2  0  0  0  0
  6  4  1  0  0  0  0
  6  1  1  0  0  0  0
  7  6  2  0  0  0  0
  9  8  1  0  0  0  0
  9 10  1  0  0  0  0
 10 11  1  0  0  0  0
 11 17  1  0  0  0  0
 11 16  1  0  0  0  0
 11 12  1  0  0  0  0
 12 13  1  0  0  0  0
 13 14  1  0  0  0  0
 15 14  1  0  0  0  0
 16 15  1  0  0  0  0
 18 19  2  0  0  0  0
 18 24  1  0  0  0  0
 19 20  1  0  0  0  0
 20 21  2  0  0  0  0
 21 23  1  0  0  0  0
 22 21  1  0  0  0  0
 24 22  2  0  0  0  0
 25 26  1  1  0  0  0
 25 27  1  0  0  0  0
 27 32  2  0  0  0  0
 28 27  1  0  0  0  0
 28 29  1  0  0  0  0
 29 30  2  0  0  0  0
 31 29  1  0  0  0  0
 32 30  1  0  0  0  0
 32 33  1  0  0  0  0
M  END
>  <Pose>
1

>  <Score>
-7.949

$$$$
