MODEL 1
REMARK VINA RESULT:    -7.949      0.000      0.000
REMARK INTER + INTRA:         -12.607
REMARK INTER:                 -11.202
REMARK INTRA:                  -1.405
REMARK UNBOUND:                -1.405
REMARK  7 active torsions:
REMARK  status: ('A' for Active; 'I' for Inactive)
REMARK    1  A    between atoms: C_5  and  C_6 
REMARK    2  A    between atoms: C_6  and  C_7 
REMARK    3  A    between atoms: C_8  and  C_23 
REMARK    4  A    between atoms: N_9  and  C_14 
REMARK    5  A    between atoms: C_14  and  C_15 
REMARK    6  A    between atoms: C_15  and  C_16 
REMARK    7  A    between atoms: C_16  and  N_17 
ROOT
ATOM      1  C   UNK d   1      16.447 -58.320  33.259  0.00  0.00     0.063 C 
ATOM      2  C   UNK d   1      17.404 -58.179  34.401  0.00  0.00     0.161 C 
ATOM      3  N   UNK d   1      18.391 -57.274  33.873  0.00  0.00    -0.332 N 
ATOM      4  C   UNK d   1      18.500 -57.603  32.481  0.00  0.00     0.295 C 
ATOM      5  O   UNK d   1      19.475 -57.362  31.747  0.00  0.00    -0.264 OA
ATOM      6  C   UNK d   1      17.277 -58.272  32.062  0.00  0.00     0.250 C 
ATOM      7  O   UNK d   1      16.932 -58.740  30.943  0.00  0.00    -0.282 OA
ENDROOT
BRANCH   3   8
ATOM      8  C   UNK d   1      19.102 -56.288  34.630  0.00  0.00     0.129 C 
BRANCH   8   9
ATOM      9  C   UNK d   1      19.044 -54.916  34.100  0.00  0.00     0.048 C 
BRANCH   9  10
ATOM     10  C   UNK d   1      18.788 -53.835  35.016  0.00  0.00     0.236 C 
BRANCH  10  11
ATOM     11  N   UNK d   1      19.399 -53.532  36.222  0.00  0.00    -0.067 N 
ATOM     12  C   UNK d   1      18.516 -53.927  37.381  0.00  0.00     0.261 C 
ATOM     13  C   UNK d   1      17.469 -52.881  37.576  0.00  0.00     0.195 C 
ATOM     14  O   UNK d   1      18.109 -51.734  38.031  0.00  0.00    -0.388 OA
ATOM     15  C   UNK d   1      18.838 -51.249  36.921  0.00  0.00     0.195 C 
ATOM     16  C   UNK d   1      19.898 -52.232  36.509  0.00  0.00     0.261 C 
ATOM     17  H   UNK d   1      20.208 -54.180  36.383  0.00  0.00     0.280 HD
ENDBRANCH  10  11
ENDBRANCH   9  10
ENDBRANCH   8   9
ENDBRANCH   3   8
BRANCH   2  18
ATOM     18  C   UNK d   1      16.710 -57.729  35.617  0.00  0.00    -0.030 A 
ATOM     19  C   UNK d   1      16.281 -56.459  35.889  0.00  0.00     0.011 A 
ATOM     20  C   UNK d   1      15.637 -56.079  37.045  0.00  0.00     0.019 A 
ATOM     21  C   UNK d   1      15.401 -57.029  38.006  0.00  0.00     0.011 A 
ATOM     22  C   UNK d   1      15.808 -58.320  37.793  0.00  0.00     0.019 A 
ATOM     23 Br   UNK d   1      14.503 -56.496  39.614  0.00  0.00    -0.051 Br
ATOM     24  C   UNK d   1      16.448 -58.666  36.626  0.00  0.00     0.011 A 
ENDBRANCH   2  18
BRANCH   1  25
ATOM     25  C   UNK d   1      15.164 -58.493  33.372  0.00  0.00     0.139 C 
ATOM     26  O   UNK d   1      14.304 -57.391  33.224  0.00  0.00    -0.190 OA
BRANCH  25  27
ATOM     27  C   UNK d   1      14.604 -59.833  33.655  0.00  0.00     0.068 A 
ATOM     28  S   UNK d   1      15.014 -61.348  32.967  0.00  0.00    -0.070 SA
ATOM     29  C   UNK d   1      13.972 -62.339  33.881  0.00  0.00     0.072 A 
ATOM     30  N   UNK d   1      13.367 -61.469  34.664  0.00  0.00    -0.250 NA
ATOM     31  C   UNK d   1      13.765 -63.829  33.838  0.00  0.00     0.078 C 
ATOM     32  C   UNK d   1      13.658 -60.207  34.578  0.00  0.00     0.051 A 
ATOM     33  C   UNK d   1      13.008 -59.177  35.499  0.00  0.00     0.072 C 
ENDBRANCH  25  27
ENDBRANCH   1  25
TORSDOF 7
ENDMDL
