MODEL 1
REMARK VINA RESULT:    -8.052      0.000      0.000
REMARK INTER + INTRA:          -8.517
REMARK INTER:                  -8.523
REMARK INTRA:                   0.006
REMARK UNBOUND:                 0.006
REMARK  1 active torsions:
REMARK  status: ('A' for Active; 'I' for Inactive)
REMARK    1  A    between atoms: C_14  and  C_16 
ROOT
ATOM      1  S   UNK d   1      17.074 -58.796  35.805  0.00  0.00    -0.074 SA
ATOM      2  C   UNK d   1      17.622 -57.523  34.790  0.00  0.00     0.088 A 
ATOM      3  C   UNK d   1      16.508 -57.235  34.049  0.00  0.00     0.073 A 
ATOM      4  C   UNK d   1      15.399 -57.952  34.291  0.00  0.00    -0.023 A 
ATOM      5  C   UNK d   1      15.470 -58.916  35.261  0.00  0.00     0.018 A 
ATOM      6  C   UNK d   1      14.220 -59.706  35.517  0.00  0.00     0.281 C 
ATOM      7  N   UNK d   1      13.141 -58.760  35.796  0.00  0.00    -0.070 N 
ATOM      8  C   UNK d   1      12.983 -57.767  34.780  0.00  0.00     0.239 C 
ATOM      9  C   UNK d   1      14.014 -57.895  33.664  0.00  0.00     0.068 C 
ATOM     10  C   UNK d   1      13.529 -58.072  37.028  0.00  0.00     0.270 C 
ATOM     11  C   UNK d   1      16.699 -56.142  33.056  0.00  0.00     0.256 C 
ATOM     12  O   UNK d   1      15.746 -55.776  32.306  0.00  0.00    -0.267 OA
ATOM     13  N   UNK d   1      17.969 -55.516  32.965  0.00  0.00    -0.332 N 
ATOM     14  C   UNK d   1      18.952 -55.515  34.009  0.00  0.00     0.219 C 
ATOM     15  N   UNK d   1      18.882 -56.828  34.630  0.00  0.00    -0.358 N 
ATOM     16  H   UNK d   1      12.266 -59.273  36.024  0.00  0.00     0.279 HD
ATOM     17  H   UNK d   1      18.189 -55.020  32.055  0.00  0.00     0.165 HD
ATOM     18  H   UNK d   1      19.727 -57.320  34.986  0.00  0.00     0.162 HD
ENDROOT
BRANCH  14  19
ATOM     19  C   UNK d   1      18.703 -54.470  35.031  0.00  0.00    -0.013 A 
ATOM     20  C   UNK d   1      17.721 -54.608  35.990  0.00  0.00     0.033 A 
ATOM     21  C   UNK d   1      17.476 -53.649  36.948  0.00  0.00     0.049 A 
ATOM     22  C   UNK d   1      18.230 -52.494  36.969  0.00  0.00     0.141 A 
ATOM     23 Br   UNK d   1      16.124 -53.851  38.261  0.00  0.00    -0.048 Br
ATOM     24  C   UNK d   1      19.214 -52.334  36.023  0.00  0.00     0.049 A 
ATOM     25  O   UNK d   1      17.988 -51.523  37.931  0.00  0.00    -0.189 OA
ATOM     26  C   UNK d   1      19.454 -53.301  35.066  0.00  0.00     0.033 A 
ATOM     27 Br   UNK d   1      20.239 -50.710  36.090  0.00  0.00    -0.048 Br
ENDBRANCH  14  19
TORSDOF 1
ENDMDL
