/Users/jonathanwahrer/Desktop/Msc/3_Semester/Drug_Design_Praktikum/waehrer_HTS_screening/HTS_experiment/out/docking_results/vina_output/6s1j/1193_docked.pdbqt
 OpenBabel03222221543D

 29 32  0  0  1  0  0  0  0  0999 V2000
   19.2360  -58.3050   33.9920 S   0  0  0  0  0  0  0  0  0  0  0  0
   17.7090  -58.0380   34.7070 C   0  0  0  0  0  0  0  0  0  0  0  0
   16.9860  -57.4800   33.6900 C   0  0  0  0  0  0  0  0  0  0  0  0
   17.6220  -57.3090   32.5040 C   0  0  0  0  0  0  0  0  0  0  0  0
   18.9330  -57.7110   32.4350 C   0  0  0  0  0  0  0  0  0  0  0  0
   19.7410  -57.5740   31.1880 C   0  0  0  0  0  2  0  0  0  0  0  0
   18.9870  -57.6940   29.9880 N   0  0  0  0  0  4  0  0  0  0  0  0
   17.5720  -57.6090   30.1150 C   0  0  0  0  0  2  0  0  0  0  0  0
   17.0650  -56.7160   31.2040 C   0  0  0  0  0  2  0  0  0  0  0  0
   19.4910  -56.7930   28.9590 C   0  0  0  0  0  1  0  0  0  0  0  0
   15.5770  -57.1530   34.0670 C   0  0  0  0  0  0  0  0  0  0  0  0
   14.8020  -56.6260   33.2030 O   0  0  0  0  0  0  0  0  0  0  0  0
   15.1160  -57.4280   35.3750 N   0  0  0  0  0  0  0  0  0  0  0  0
   16.0350  -57.4540   36.4920 C   0  0  1  0  0  3  0  0  0  0  0  0
   17.1520  -58.2750   36.0280 N   0  0  0  0  0  0  0  0  0  0  0  0
   19.1930  -58.6680   29.6010 H   0  0  0  0  0  0  0  0  0  0  0  0
   14.1030  -57.6160   35.5420 H   0  0  0  0  0  0  0  0  0  0  0  0
   17.5920  -59.0320   36.5780 H   0  0  0  0  0  0  0  0  0  0  0  0
   16.4930  -56.0580   36.7200 C   0  0  0  0  0  0  0  0  0  0  0  0
   16.0260  -55.3300   37.7930 C   0  0  0  0  0  3  0  0  0  0  0  0
   16.4380  -54.0350   38.0220 C   0  0  0  0  0  0  0  0  0  0  0  0
   17.3460  -53.4440   37.1530 C   0  0  0  0  0  0  0  0  0  0  0  0
   15.8020  -53.0170   39.5020 Br  0  0  0  0  0  0  0  0  0  0  0  0
   17.8290  -54.1480   36.0710 C   0  0  0  0  0  0  0  0  0  0  0  0
   17.7760  -52.1360   37.3640 O   0  0  0  0  0  1  0  0  0  0  0  0
   17.4030  -55.4240   35.8730 C   0  0  0  0  0  3  0  0  0  0  0  0
   18.7310  -53.5150   35.2360 O   0  0  0  0  0  0  0  0  0  0  0  0
   19.8980  -54.0720   34.7190 C   0  0  0  0  0  2  0  0  0  0  0  0
   19.9440  -53.9630   33.2100 C   0  0  0  0  0  1  0  0  0  0  0  0
  1  2  1  0  0  0  0
  2 15  1  0  0  0  0
  3 11  1  0  0  0  0
  3  2  2  0  0  0  0
  4  3  1  0  0  0  0
  5  4  2  0  0  0  0
  5  1  1  0  0  0  0
  6  5  1  0  0  0  0
  7  8  1  0  0  0  0
  7  6  1  0  0  0  0
  8  9  1  0  0  0  0
  9  4  1  0  0  0  0
 10  7  1  0  0  0  0
 11 13  1  0  0  0  0
 12 11  2  0  0  0  0
 13 17  1  0  0  0  0
 13 14  1  0  0  0  0
 14 19  1  6  0  0  0
 15 14  1  0  0  0  0
 15 18  1  0  0  0  0
 16  7  1  0  0  0  0
 19 20  1  0  0  0  0
 20 21  2  0  0  0  0
 21 23  1  0  0  0  0
 22 25  1  0  0  0  0
 22 21  1  0  0  0  0
 24 22  2  0  0  0  0
 26 24  1  0  0  0  0
 26 19  2  0  0  0  0
 27 24  1  0  0  0  0
 28 27  1  0  0  0  0
 29 28  1  0  0  0  0
M  END
>  <Pose>
1

>  <Score>
-7.961

$$$$
