MODEL 1
REMARK VINA RESULT:    -7.961      0.000      0.000
REMARK INTER + INTRA:          -8.791
REMARK INTER:                  -9.357
REMARK INTRA:                   0.566
REMARK UNBOUND:                 0.566
REMARK  3 active torsions:
REMARK  status: ('A' for Active; 'I' for Inactive)
REMARK    1  A    between atoms: C_14  and  C_16 
REMARK    2  A    between atoms: C_20  and  O_22 
REMARK    3  A    between atoms: O_22  and  C_23 
ROOT
ATOM      1  S   UNK d   1      19.236 -58.305  33.992  0.00  0.00    -0.074 SA
ATOM      2  C   UNK d   1      17.709 -58.038  34.707  0.00  0.00     0.088 A 
ATOM      3  C   UNK d   1      16.986 -57.480  33.690  0.00  0.00     0.073 A 
ATOM      4  C   UNK d   1      17.622 -57.309  32.504  0.00  0.00    -0.023 A 
ATOM      5  C   UNK d   1      18.933 -57.711  32.435  0.00  0.00     0.018 A 
ATOM      6  C   UNK d   1      19.741 -57.574  31.188  0.00  0.00     0.281 C 
ATOM      7  N   UNK d   1      18.987 -57.694  29.988  0.00  0.00    -0.070 N 
ATOM      8  C   UNK d   1      17.572 -57.609  30.115  0.00  0.00     0.239 C 
ATOM      9  C   UNK d   1      17.065 -56.716  31.204  0.00  0.00     0.068 C 
ATOM     10  C   UNK d   1      19.491 -56.793  28.959  0.00  0.00     0.270 C 
ATOM     11  C   UNK d   1      15.577 -57.153  34.067  0.00  0.00     0.256 C 
ATOM     12  O   UNK d   1      14.802 -56.626  33.203  0.00  0.00    -0.267 OA
ATOM     13  N   UNK d   1      15.116 -57.428  35.375  0.00  0.00    -0.332 N 
ATOM     14  C   UNK d   1      16.035 -57.454  36.492  0.00  0.00     0.219 C 
ATOM     15  N   UNK d   1      17.152 -58.275  36.028  0.00  0.00    -0.358 N 
ATOM     16  H   UNK d   1      19.193 -58.668  29.601  0.00  0.00     0.279 HD
ATOM     17  H   UNK d   1      14.103 -57.616  35.542  0.00  0.00     0.165 HD
ATOM     18  H   UNK d   1      17.592 -59.032  36.578  0.00  0.00     0.162 HD
ENDROOT
BRANCH  14  19
ATOM     19  C   UNK d   1      16.493 -56.058  36.720  0.00  0.00    -0.012 A 
ATOM     20  C   UNK d   1      16.026 -55.330  37.793  0.00  0.00     0.033 A 
ATOM     21  C   UNK d   1      16.438 -54.035  38.022  0.00  0.00     0.051 A 
ATOM     22  C   UNK d   1      17.346 -53.444  37.153  0.00  0.00     0.157 A 
ATOM     23 Br   UNK d   1      15.802 -53.017  39.502  0.00  0.00    -0.048 Br
ATOM     24  C   UNK d   1      17.829 -54.148  36.071  0.00  0.00     0.107 A 
ATOM     25  O   UNK d   1      17.776 -52.136  37.364  0.00  0.00    -0.188 OA
ATOM     26  C   UNK d   1      17.403 -55.424  35.873  0.00  0.00     0.050 A 
BRANCH  24  27
ATOM     27  O   UNK d   1      18.731 -53.515  35.236  0.00  0.00    -0.348 OA
BRANCH  27  28
ATOM     28  C   UNK d   1      19.898 -54.072  34.719  0.00  0.00     0.171 C 
ATOM     29  C   UNK d   1      19.944 -53.963  33.210  0.00  0.00     0.034 C 
ENDBRANCH  27  28
ENDBRANCH  24  27
ENDBRANCH  14  19
TORSDOF 3
ENDMDL
