MODEL 1
REMARK VINA RESULT:    -8.833      0.000      0.000
REMARK INTER + INTRA:         -10.680
REMARK INTER:                 -10.383
REMARK INTRA:                  -0.297
REMARK UNBOUND:                -0.297
REMARK  3 active torsions:
REMARK  status: ('A' for Active; 'I' for Inactive)
REMARK    1  A    between atoms: N_6  and  C_18 
REMARK    2  A    between atoms: C_8  and  C_9 
REMARK    3  A    between atoms: C_12  and  N_15 
ROOT
ATOM      1  S   UNK d   1      19.571 -53.902  36.477  0.00  0.00    -0.087 SA
ATOM      2  C   UNK d   1      18.515 -53.369  37.849  0.00  0.00     0.069 C 
ATOM      3  C   UNK d   1      17.726 -54.633  38.054  0.00  0.00     0.146 C 
ATOM      4  N   UNK d   1      17.503 -55.336  36.827  0.00  0.00    -0.324 N 
ATOM      5  C   UNK d   1      18.371 -55.066  35.839  0.00  0.00     0.154 A 
ATOM      6  N   UNK d   1      18.033 -55.767  34.750  0.00  0.00    -0.300 N 
ATOM      7  C   UNK d   1      16.934 -56.500  35.035  0.00  0.00     0.130 A 
ATOM      8  C   UNK d   1      16.588 -56.242  36.340  0.00  0.00     0.062 A 
ATOM      9  C   UNK d   1      17.554 -52.288  37.417  0.00  0.00     0.023 C 
ENDROOT
BRANCH   8  10
ATOM     10  C   UNK d   1      15.456 -56.831  37.015  0.00  0.00    -0.008 A 
ATOM     11  C   UNK d   1      14.691 -57.776  36.310  0.00  0.00     0.016 A 
ATOM     12  C   UNK d   1      13.627 -58.404  36.904  0.00  0.00     0.037 A 
ATOM     13  C   UNK d   1      13.243 -58.160  38.199  0.00  0.00     0.102 A 
ATOM     14  C   UNK d   1      13.976 -57.239  38.911  0.00  0.00     0.037 A 
ATOM     15  C   UNK d   1      15.063 -56.597  38.306  0.00  0.00     0.016 A 
BRANCH  13  16
ATOM     16  N   UNK d   1      12.133 -58.849  38.739  0.00  0.00    -0.116 N 
ATOM     17  O   UNK d   1      11.193 -59.199  38.016  0.00  0.00    -0.532 OA
ATOM     18  O   UNK d   1      12.104 -59.128  40.071  0.00  0.00    -0.532 OA
ENDBRANCH  13  16
ENDBRANCH   8  10
BRANCH   6  19
ATOM     19  C   UNK d   1      18.701 -55.759  33.494  0.00  0.00     0.041 A 
ATOM     20  C   UNK d   1      19.280 -54.620  32.983  0.00  0.00     0.031 A 
ATOM     21  C   UNK d   1      19.933 -54.586  31.769  0.00  0.00     0.021 A 
ATOM     22  C   UNK d   1      20.020 -55.734  31.013  0.00  0.00     0.011 A 
ATOM     23  C   UNK d   1      19.449 -56.898  31.494  0.00  0.00     0.021 A 
ATOM     24 Br   UNK d   1      20.918 -55.724  29.323  0.00  0.00    -0.051 Br
ATOM     25  C   UNK d   1      18.802 -56.906  32.713  0.00  0.00     0.031 A 
ENDBRANCH   6  19
TORSDOF 3
ENDMDL
