MODEL 1
REMARK VINA RESULT:    -8.936      0.000      0.000
REMARK INTER + INTRA:         -11.341
REMARK INTER:                 -10.503
REMARK INTRA:                  -0.838
REMARK UNBOUND:                -0.838
REMARK  3 active torsions:
REMARK  status: ('A' for Active; 'I' for Inactive)
REMARK    1  A    between atoms: N_7  and  C_18 
REMARK    2  A    between atoms: C_8  and  C_10 
REMARK    3  A    between atoms: C_13  and  O_16 
ROOT
ATOM      1  S   UNK d   1      19.862 -53.733  34.985  0.00  0.00    -0.093 SA
ATOM      2  C   UNK d   1      19.978 -51.975  35.420  0.00  0.00     0.084 C 
ATOM      3  C   UNK d   1      19.125 -51.762  36.658  0.00  0.00     0.031 C 
ATOM      4  C   UNK d   1      19.379 -52.866  37.663  0.00  0.00     0.131 C 
ATOM      5  N   UNK d   1      18.510 -53.972  37.296  0.00  0.00    -0.335 N 
ATOM      6  C   UNK d   1      18.643 -54.465  36.062  0.00  0.00     0.154 A 
ATOM      7  N   UNK d   1      17.743 -55.498  35.900  0.00  0.00    -0.290 N 
ATOM      8  C   UNK d   1      17.057 -55.646  37.021  0.00  0.00     0.067 A 
ATOM      9  C   UNK d   1      17.553 -54.676  37.889  0.00  0.00     0.124 A 
ENDROOT
BRANCH   8  10
ATOM     10  C   UNK d   1      16.000 -56.579  37.377  0.00  0.00    -0.007 A 
ATOM     11  C   UNK d   1      14.900 -56.120  38.116  0.00  0.00     0.016 A 
ATOM     12  C   UNK d   1      13.876 -56.950  38.479  0.00  0.00     0.037 A 
ATOM     13  C   UNK d   1      13.845 -58.286  38.151  0.00  0.00     0.068 A 
ATOM     14  C   UNK d   1      14.916 -58.745  37.428  0.00  0.00     0.037 A 
ATOM     15  C   UNK d   1      15.977 -57.912  37.045  0.00  0.00     0.016 A 
BRANCH  13  16
ATOM     16  O   UNK d   1      12.788 -59.097  38.538  0.00  0.00    -0.356 OA
ATOM     17  C   UNK d   1      11.880 -59.596  37.573  0.00  0.00     0.210 C 
ENDBRANCH  13  16
ENDBRANCH   8  10
BRANCH   7  18
ATOM     18  C   UNK d   1      17.647 -56.227  34.680  0.00  0.00     0.042 A 
ATOM     19  C   UNK d   1      16.723 -55.873  33.712  0.00  0.00     0.031 A 
ATOM     20  C   UNK d   1      16.625 -56.540  32.508  0.00  0.00     0.021 A 
ATOM     21  C   UNK d   1      17.485 -57.595  32.278  0.00  0.00     0.011 A 
ATOM     22  C   UNK d   1      18.402 -57.942  33.248  0.00  0.00     0.021 A 
ATOM     23 Br   UNK d   1      17.423 -58.585  30.633  0.00  0.00    -0.051 Br
ATOM     24  C   UNK d   1      18.518 -57.290  34.457  0.00  0.00     0.031 A 
ENDBRANCH   7  18
TORSDOF 3
ENDMDL
