MODEL 1
REMARK VINA RESULT:    -7.116      0.000      0.000
REMARK INTER + INTRA:          -8.541
REMARK INTER:                  -8.572
REMARK INTRA:                   0.030
REMARK UNBOUND:                 0.030
REMARK  4 active torsions:
REMARK  status: ('A' for Active; 'I' for Inactive)
REMARK    1  A    between atoms: N_7  and  C_19 
REMARK    2  A    between atoms: C_8  and  O_10 
REMARK    3  A    between atoms: C_8  and  C_11 
REMARK    4  A    between atoms: C_14  and  O_17 
ROOT
ATOM      1  S   UNK d   1      17.865 -58.726  34.152  0.00  0.00    -0.094 SA
ATOM      2  C   UNK d   1      16.360 -59.261  35.056  0.00  0.00     0.084 C 
ATOM      3  C   UNK d   1      15.204 -58.644  34.264  0.00  0.00     0.030 C 
ATOM      4  C   UNK d   1      15.292 -57.129  34.422  0.00  0.00     0.126 C 
ATOM      5  N   UNK d   1      16.232 -56.650  33.439  0.00  0.00    -0.356 N 
ATOM      6  C   UNK d   1      17.368 -57.268  33.245  0.00  0.00     0.148 C 
ATOM      7  N   UNK d   1      18.069 -56.558  32.189  0.00  0.00    -0.289 N 
ATOM      8  C   UNK d   1      17.703 -55.188  32.477  0.00  0.00     0.185 C 
ATOM      9  C   UNK d   1      16.164 -55.517  32.511  0.00  0.00     0.192 C 
ENDROOT
BRANCH   8  10
ATOM     10  O   UNK d   1      17.999 -54.277  31.513  0.00  0.00    -0.365 OA
ATOM     11  H   UNK d   1      17.155 -54.064  31.006  0.00  0.00     0.213 HD
ENDBRANCH   8  10
BRANCH   8  12
ATOM     12  C   UNK d   1      18.123 -54.839  33.839  0.00  0.00    -0.001 A 
ATOM     13  C   UNK d   1      17.261 -54.306  34.782  0.00  0.00     0.015 A 
ATOM     14  C   UNK d   1      17.746 -53.967  36.054  0.00  0.00     0.037 A 
ATOM     15  C   UNK d   1      19.031 -54.138  36.405  0.00  0.00     0.068 A 
ATOM     16  C   UNK d   1      19.936 -54.681  35.470  0.00  0.00     0.037 A 
ATOM     17  C   UNK d   1      19.419 -55.003  34.227  0.00  0.00     0.015 A 
BRANCH  15  18
ATOM     18  O   UNK d   1      19.560 -53.806  37.680  0.00  0.00    -0.356 OA
ATOM     19  C   UNK d   1      18.777 -53.972  38.842  0.00  0.00     0.210 C 
ENDBRANCH  15  18
ENDBRANCH   8  12
BRANCH   7  20
ATOM     20  C   UNK d   1      18.823 -57.123  31.141  0.00  0.00     0.040 A 
ATOM     21  C   UNK d   1      18.159 -58.008  30.256  0.00  0.00     0.031 A 
ATOM     22  C   UNK d   1      18.828 -58.652  29.230  0.00  0.00     0.021 A 
ATOM     23  C   UNK d   1      20.167 -58.458  29.030  0.00  0.00     0.011 A 
ATOM     24  C   UNK d   1      20.842 -57.603  29.875  0.00  0.00     0.021 A 
ATOM     25 Br   UNK d   1      21.138 -59.340  27.641  0.00  0.00    -0.051 Br
ATOM     26  C   UNK d   1      20.154 -56.949  30.915  0.00  0.00     0.031 A 
ENDBRANCH   7  20
TORSDOF 4
ENDMDL
