MODEL 1
REMARK VINA RESULT:    -7.237      0.000      0.000
REMARK INTER + INTRA:          -9.921
REMARK INTER:                  -9.140
REMARK INTRA:                  -0.781
REMARK UNBOUND:                -0.781
REMARK  5 active torsions:
REMARK  status: ('A' for Active; 'I' for Inactive)
REMARK    1  A    between atoms: C_6  and  O_20 
REMARK    2  A    between atoms: C_6  and  C_21 
REMARK    3  A    between atoms: N_8  and  C_10 
REMARK    4  A    between atoms: C_11  and  O_18 
REMARK    5  A    between atoms: C_14  and  O_16 
ROOT
ATOM      1  S   UNK d   1      14.382 -57.713  33.375  0.00  0.00    -0.094 SA
ATOM      2  C   UNK d   1      12.875 -58.372  34.044  0.00  0.00     0.084 C 
ATOM      3  C   UNK d   1      12.941 -58.355  35.558  0.00  0.00     0.030 C 
ATOM      4  C   UNK d   1      14.105 -59.215  36.018  0.00  0.00     0.129 C 
ATOM      5  N   UNK d   1      15.351 -58.522  35.786  0.00  0.00    -0.324 N 
ATOM      6  C   UNK d   1      16.423 -58.169  36.659  0.00  0.00     0.181 C 
ATOM      7  C   UNK d   1      17.591 -58.297  35.694  0.00  0.00     0.198 C 
ATOM      8  N   UNK d   1      17.033 -57.831  34.445  0.00  0.00    -0.320 N 
ATOM      9  C   UNK d   1      15.760 -58.016  34.503  0.00  0.00     0.148 C 
ENDROOT
BRANCH   8  10
ATOM     10  C   UNK d   1      17.727 -57.237  33.357  0.00  0.00     0.072 A 
ATOM     11  C   UNK d   1      17.943 -58.030  32.238  0.00  0.00     0.095 A 
ATOM     12  C   UNK d   1      18.642 -57.524  31.136  0.00  0.00     0.042 A 
ATOM     13  C   UNK d   1      19.121 -56.226  31.166  0.00  0.00     0.039 A 
ATOM     14  C   UNK d   1      18.924 -55.414  32.257  0.00  0.00     0.070 A 
ATOM     15  C   UNK d   1      18.214 -55.982  33.332  0.00  0.00     0.069 A 
BRANCH  11  16
ATOM     16  O   UNK d   1      17.467 -59.323  32.214  0.00  0.00    -0.354 OA
ATOM     17  C   UNK d   1      16.861 -59.944  31.105  0.00  0.00     0.210 C 
ENDBRANCH  11  16
BRANCH  14  18
ATOM     18  O   UNK d   1      19.377 -54.109  32.348  0.00  0.00    -0.356 OA
ATOM     19  C   UNK d   1      20.339 -53.634  33.245  0.00  0.00     0.210 C 
ENDBRANCH  14  18
ENDBRANCH   8  10
BRANCH   6  20
ATOM     20  O   UNK d   1      16.527 -59.092  37.694  0.00  0.00    -0.365 OA
ATOM     21  H   UNK d   1      16.962 -58.680  38.475  0.00  0.00     0.213 HD
ENDBRANCH   6  20
BRANCH   6  22
ATOM     22  C   UNK d   1      16.411 -56.780  37.158  0.00  0.00    -0.002 A 
ATOM     23  C   UNK d   1      17.270 -55.788  36.803  0.00  0.00     0.013 A 
ATOM     24  C   UNK d   1      17.188 -54.514  37.368  0.00  0.00     0.020 A 
ATOM     25  C   UNK d   1      16.231 -54.211  38.314  0.00  0.00     0.011 A 
ATOM     26  C   UNK d   1      15.366 -55.197  38.677  0.00  0.00     0.020 A 
ATOM     27 Br   UNK d   1      16.137 -52.458  39.086  0.00  0.00    -0.051 Br
ATOM     28  C   UNK d   1      15.446 -56.444  38.124  0.00  0.00     0.013 A 
ENDBRANCH   6  22
TORSDOF 5
ENDMDL
