/Users/jonathanwahrer/Desktop/Msc/3_Semester/Drug_Design_Praktikum/waehrer_HTS_screening/HTS_experiment/out/docking_results/vina_output/6s1j/1219_docked.pdbqt
 OpenBabel03222221553D

 27 30  0  0  1  0  0  0  0  0999 V2000
   13.9930  -57.3260   34.1550 S   0  0  0  0  0  0  0  0  0  0  0  0
   12.9580  -58.8280   34.4040 C   0  0  0  0  0  2  0  0  0  0  0  0
   13.8450  -60.0580   34.3250 C   0  0  0  0  0  2  0  0  0  0  0  0
   14.7840  -59.9760   33.1500 C   0  0  0  0  0  2  0  0  0  0  0  0
   15.9110  -59.1630   33.4840 N   0  0  2  0  0  0  0  0  0  0  0  0
   17.3470  -59.2140   33.2860 C   0  0  1  0  0  0  0  0  0  0  0  0
   17.8840  -58.4420   34.4780 C   0  0  0  0  0  2  0  0  0  0  0  0
   16.7610  -57.5250   34.7600 N   0  0  0  0  0  0  0  0  0  0  0  0
   15.6920  -57.9440   34.2110 C   0  0  1  0  0  3  0  0  0  0  0  0
   17.8280  -60.5080   33.2410 O   0  0  0  0  0  0  0  0  0  0  0  0
   17.3150  -61.1340   32.7120 H   0  0  0  0  0  0  0  0  0  0  0  0
   17.7570  -58.4930   32.0570 C   0  0  0  0  0  0  0  0  0  0  0  0
   18.6170  -57.4160   32.1480 C   0  0  0  0  0  3  0  0  0  0  0  0
   18.9760  -56.7690   30.9670 C   0  0  0  0  0  0  0  0  0  0  0  0
   18.4970  -57.1820   29.7610 C   0  0  0  0  0  3  0  0  0  0  0  0
   17.6360  -58.2600   29.6540 C   0  0  0  0  0  3  0  0  0  0  0  0
   17.2800  -58.9050   30.8450 C   0  0  0  0  0  3  0  0  0  0  0  0
   19.8590  -55.6620   31.0500 N   0  0  0  0  0  0  0  0  0  0  0  0
   20.8900  -55.5900   30.3540 O   0  0  0  0  0  0  0  0  0  0  0  0
   19.6130  -54.6220   31.9010 O   0  0  0  0  0  0  0  0  0  0  0  0
   16.8720  -56.3470   35.5540 C   0  0  0  0  0  0  0  0  0  0  0  0
   16.5430  -56.2300   36.8720 C   0  0  0  0  0  3  0  0  0  0  0  0
   16.6940  -55.0530   37.5920 C   0  0  0  0  0  3  0  0  0  0  0  0
   17.2000  -53.9310   36.9670 C   0  0  0  0  0  0  0  0  0  0  0  0
   17.5460  -54.0130   35.6230 C   0  0  0  0  0  3  0  0  0  0  0  0
   17.4410  -52.2620   37.8720 Br  0  0  0  0  0  0  0  0  0  0  0  0
   17.3850  -55.2030   34.9240 C   0  0  0  0  0  3  0  0  0  0  0  0
  1  2  1  0  0  0  0
  3  2  1  0  0  0  0
  4  3  1  0  0  0  0
  5  4  1  1  0  0  0
  5  9  1  0  0  0  0
  6 10  1  6  0  0  0
  6  5  1  0  0  0  0
  6  7  1  0  0  0  0
  7  8  1  0  0  0  0
  8 21  1  0  0  0  0
  9  1  1  6  0  0  0
  9  8  1  0  0  0  0
 11 10  1  0  0  0  0
 12 13  1  0  0  0  0
 12  6  1  0  0  0  0
 14 18  1  0  0  0  0
 14 13  2  0  0  0  0
 15 14  1  0  0  0  0
 16 15  2  0  0  0  0
 16 17  1  0  0  0  0
 17 12  2  0  0  0  0
 18 20  2  0  0  0  0
 19 18  2  0  0  0  0
 21 22  1  0  0  0  0
 22 23  2  0  0  0  0
 24 23  1  0  0  0  0
 24 26  1  0  0  0  0
 25 24  2  0  0  0  0
 27 21  2  0  0  0  0
 27 25  1  0  0  0  0
M  END
>  <Pose>
1

>  <Score>
-8.766

$$$$
