MODEL 1
REMARK VINA RESULT:    -8.766      0.000      0.000
REMARK INTER + INTRA:         -11.326
REMARK INTER:                 -10.559
REMARK INTRA:                  -0.766
REMARK UNBOUND:                -0.766
REMARK  4 active torsions:
REMARK  status: ('A' for Active; 'I' for Inactive)
REMARK    1  A    between atoms: C_6  and  O_17 
REMARK    2  A    between atoms: C_6  and  C_18 
REMARK    3  A    between atoms: N_8  and  C_10 
REMARK    4  A    between atoms: C_20  and  N_24 
ROOT
ATOM      1  S   UNK d   1      13.993 -57.326  34.155  0.00  0.00    -0.094 SA
ATOM      2  C   UNK d   1      12.958 -58.828  34.404  0.00  0.00     0.084 C 
ATOM      3  C   UNK d   1      13.845 -60.058  34.325  0.00  0.00     0.030 C 
ATOM      4  C   UNK d   1      14.784 -59.976  33.150  0.00  0.00     0.129 C 
ATOM      5  N   UNK d   1      15.911 -59.163  33.484  0.00  0.00    -0.324 N 
ATOM      6  C   UNK d   1      17.347 -59.214  33.286  0.00  0.00     0.181 C 
ATOM      7  C   UNK d   1      17.884 -58.442  34.478  0.00  0.00     0.198 C 
ATOM      8  N   UNK d   1      16.761 -57.525  34.760  0.00  0.00    -0.323 N 
ATOM      9  C   UNK d   1      15.692 -57.944  34.211  0.00  0.00     0.147 C 
ENDROOT
BRANCH   6  10
ATOM     10  O   UNK d   1      17.828 -60.508  33.241  0.00  0.00    -0.365 OA
ATOM     11  H   UNK d   1      17.315 -61.134  32.712  0.00  0.00     0.213 HD
ENDBRANCH   6  10
BRANCH   6  12
ATOM     12  C   UNK d   1      17.757 -58.493  32.057  0.00  0.00     0.001 A 
ATOM     13  C   UNK d   1      18.617 -57.416  32.148  0.00  0.00     0.048 A 
ATOM     14  C   UNK d   1      18.976 -56.769  30.967  0.00  0.00     0.103 A 
ATOM     15  C   UNK d   1      18.497 -57.182  29.761  0.00  0.00     0.036 A 
ATOM     16  C   UNK d   1      17.636 -58.260  29.654  0.00  0.00     0.003 A 
ATOM     17  C   UNK d   1      17.280 -58.905  30.845  0.00  0.00     0.012 A 
BRANCH  14  18
ATOM     18  N   UNK d   1      19.859 -55.662  31.050  0.00  0.00    -0.116 N 
ATOM     19  O   UNK d   1      20.890 -55.590  30.354  0.00  0.00    -0.532 OA
ATOM     20  O   UNK d   1      19.613 -54.622  31.901  0.00  0.00    -0.532 OA
ENDBRANCH  14  18
ENDBRANCH   6  12
BRANCH   8  21
ATOM     21  C   UNK d   1      16.872 -56.347  35.554  0.00  0.00     0.036 A 
ATOM     22  C   UNK d   1      16.543 -56.230  36.872  0.00  0.00     0.031 A 
ATOM     23  C   UNK d   1      16.694 -55.053  37.592  0.00  0.00     0.021 A 
ATOM     24  C   UNK d   1      17.200 -53.931  36.967  0.00  0.00     0.011 A 
ATOM     25  C   UNK d   1      17.546 -54.013  35.623  0.00  0.00     0.021 A 
ATOM     26 Br   UNK d   1      17.441 -52.262  37.872  0.00  0.00    -0.051 Br
ATOM     27  C   UNK d   1      17.385 -55.203  34.924  0.00  0.00     0.031 A 
ENDBRANCH   8  21
TORSDOF 4
ENDMDL
