MODEL 1
REMARK VINA RESULT:    -8.264      0.000      0.000
REMARK INTER + INTRA:         -10.553
REMARK INTER:                  -9.955
REMARK INTRA:                  -0.598
REMARK UNBOUND:                -0.598
REMARK  4 active torsions:
REMARK  status: ('A' for Active; 'I' for Inactive)
REMARK    1  A    between atoms: C_6  and  O_17 
REMARK    2  A    between atoms: C_6  and  C_18 
REMARK    3  A    between atoms: N_8  and  C_10 
REMARK    4  A    between atoms: C_21  and  N_24 
ROOT
ATOM      1  S   UNK d   1      12.852 -61.443  34.436  0.00  0.00    -0.094 SA
ATOM      2  C   UNK d   1      14.405 -62.315  33.980  0.00  0.00     0.084 C 
ATOM      3  C   UNK d   1      15.468 -61.413  33.512  0.00  0.00     0.030 C 
ATOM      4  C   UNK d   1      15.150 -60.005  33.214  0.00  0.00     0.129 C 
ATOM      5  N   UNK d   1      14.426 -59.267  34.166  0.00  0.00    -0.324 N 
ATOM      6  C   UNK d   1      14.364 -57.882  34.519  0.00  0.00     0.181 C 
ATOM      7  C   UNK d   1      14.112 -57.983  36.007  0.00  0.00     0.198 C 
ATOM      8  N   UNK d   1      13.284 -59.167  36.086  0.00  0.00    -0.323 N 
ATOM      9  C   UNK d   1      13.469 -59.874  35.073  0.00  0.00     0.147 C 
ENDROOT
BRANCH   6  10
ATOM     10  O   UNK d   1      13.213 -57.317  33.963  0.00  0.00    -0.365 OA
ATOM     11  H   UNK d   1      12.506 -57.983  33.956  0.00  0.00     0.213 HD
ENDBRANCH   6  10
BRANCH   6  12
ATOM     12  C   UNK d   1      15.563 -57.077  34.219  0.00  0.00    -0.001 A 
ATOM     13  C   UNK d   1      16.493 -56.915  35.241  0.00  0.00     0.014 A 
ATOM     14  C   UNK d   1      17.646 -56.185  35.057  0.00  0.00     0.037 A 
ATOM     15  C   UNK d   1      17.937 -55.577  33.848  0.00  0.00     0.102 A 
ATOM     16  C   UNK d   1      17.017 -55.736  32.829  0.00  0.00     0.037 A 
ATOM     17  C   UNK d   1      15.847 -56.478  33.019  0.00  0.00     0.014 A 
BRANCH  15  18
ATOM     18  N   UNK d   1      19.129 -54.833  33.684  0.00  0.00    -0.116 N 
ATOM     19  O   UNK d   1      19.572 -54.486  32.583  0.00  0.00    -0.532 OA
ATOM     20  O   UNK d   1      19.842 -54.465  34.797  0.00  0.00    -0.532 OA
ENDBRANCH  15  18
ENDBRANCH   6  12
BRANCH   8  21
ATOM     21  C   UNK d   1      12.379 -59.466  37.156  0.00  0.00     0.036 A 
ATOM     22  C   UNK d   1      12.884 -59.545  38.446  0.00  0.00     0.031 A 
ATOM     23  C   UNK d   1      12.069 -59.853  39.533  0.00  0.00     0.021 A 
ATOM     24  C   UNK d   1      10.724 -60.091  39.355  0.00  0.00     0.011 A 
ATOM     25  C   UNK d   1      10.209 -60.016  38.083  0.00  0.00     0.021 A 
ATOM     26 Br   UNK d   1       9.607 -60.532  40.858  0.00  0.00    -0.051 Br
ATOM     27  C   UNK d   1      11.054 -59.707  37.010  0.00  0.00     0.031 A 
ENDBRANCH   8  21
TORSDOF 4
ENDMDL
