/Users/jonathanwahrer/Desktop/Msc/3_Semester/Drug_Design_Praktikum/waehrer_HTS_screening/HTS_experiment/out/docking_results/vina_output/6s1j/1220_docked.pdbqt
 OpenBabel03222221553D

 27 30  0  0  1  0  0  0  0  0999 V2000
   12.8520  -61.4430   34.4360 S   0  0  0  0  0  0  0  0  0  0  0  0
   14.4050  -62.3150   33.9800 C   0  0  0  0  0  2  0  0  0  0  0  0
   15.4680  -61.4130   33.5120 C   0  0  0  0  0  2  0  0  0  0  0  0
   15.1500  -60.0050   33.2140 C   0  0  0  0  0  2  0  0  0  0  0  0
   14.4260  -59.2670   34.1660 N   0  0  1  0  0  0  0  0  0  0  0  0
   14.3640  -57.8820   34.5190 C   0  0  2  0  0  0  0  0  0  0  0  0
   14.1120  -57.9830   36.0070 C   0  0  0  0  0  2  0  0  0  0  0  0
   13.2840  -59.1670   36.0860 N   0  0  0  0  0  0  0  0  0  0  0  0
   13.4690  -59.8740   35.0730 C   0  0  1  0  0  3  0  0  0  0  0  0
   13.2130  -57.3170   33.9630 O   0  0  0  0  0  0  0  0  0  0  0  0
   12.5060  -57.9830   33.9560 H   0  0  0  0  0  0  0  0  0  0  0  0
   15.5630  -57.0770   34.2190 C   0  0  0  0  0  0  0  0  0  0  0  0
   16.4930  -56.9150   35.2410 C   0  0  0  0  0  3  0  0  0  0  0  0
   17.6460  -56.1850   35.0570 C   0  0  0  0  0  3  0  0  0  0  0  0
   17.9370  -55.5770   33.8480 C   0  0  0  0  0  0  0  0  0  0  0  0
   17.0170  -55.7360   32.8290 C   0  0  0  0  0  3  0  0  0  0  0  0
   15.8470  -56.4780   33.0190 C   0  0  0  0  0  3  0  0  0  0  0  0
   19.1290  -54.8330   33.6840 N   0  0  0  0  0  0  0  0  0  0  0  0
   19.5720  -54.4860   32.5830 O   0  0  0  0  0  0  0  0  0  0  0  0
   19.8420  -54.4650   34.7970 O   0  0  0  0  0  0  0  0  0  0  0  0
   12.3790  -59.4660   37.1560 C   0  0  0  0  0  0  0  0  0  0  0  0
   12.8840  -59.5450   38.4460 C   0  0  0  0  0  3  0  0  0  0  0  0
   12.0690  -59.8530   39.5330 C   0  0  0  0  0  3  0  0  0  0  0  0
   10.7240  -60.0910   39.3550 C   0  0  0  0  0  0  0  0  0  0  0  0
   10.2090  -60.0160   38.0830 C   0  0  0  0  0  3  0  0  0  0  0  0
    9.6070  -60.5320   40.8580 Br  0  0  0  0  0  0  0  0  0  0  0  0
   11.0540  -59.7070   37.0100 C   0  0  0  0  0  3  0  0  0  0  0  0
  2  1  1  0  0  0  0
  3  2  1  0  0  0  0
  4  3  1  0  0  0  0
  5  4  1  6  0  0  0
  5  6  1  0  0  0  0
  5  9  1  0  0  0  0
  6 10  1  6  0  0  0
  6  7  1  0  0  0  0
  7  8  1  0  0  0  0
  8 21  1  0  0  0  0
  9  1  1  6  0  0  0
  9  8  1  0  0  0  0
 11 10  1  0  0  0  0
 12  6  1  0  0  0  0
 12 13  1  0  0  0  0
 14 13  2  0  0  0  0
 15 14  1  0  0  0  0
 16 17  1  0  0  0  0
 16 15  2  0  0  0  0
 17 12  2  0  0  0  0
 18 15  1  0  0  0  0
 18 20  2  0  0  0  0
 19 18  2  0  0  0  0
 21 22  1  0  0  0  0
 22 23  2  0  0  0  0
 24 23  1  0  0  0  0
 24 26  1  0  0  0  0
 25 24  2  0  0  0  0
 27 21  2  0  0  0  0
 27 25  1  0  0  0  0
M  END
>  <Pose>
1

>  <Score>
-8.264

$$$$
