MODEL 1
REMARK VINA RESULT:    -8.311      0.000      0.000
REMARK INTER + INTRA:         -10.169
REMARK INTER:                  -9.526
REMARK INTRA:                  -0.643
REMARK UNBOUND:                -0.643
REMARK  3 active torsions:
REMARK  status: ('A' for Active; 'I' for Inactive)
REMARK    1  A    between atoms: C_6  and  O_17 
REMARK    2  A    between atoms: C_6  and  C_18 
REMARK    3  A    between atoms: N_8  and  C_10 
ROOT
ATOM      1  S   UNK d   1      14.010 -57.258  33.953  0.00  0.00    -0.094 SA
ATOM      2  C   UNK d   1      12.941 -58.679  34.460  0.00  0.00     0.084 C 
ATOM      3  C   UNK d   1      13.693 -59.976  34.313  0.00  0.00     0.030 C 
ATOM      4  C   UNK d   1      14.754 -59.950  33.235  0.00  0.00     0.129 C 
ATOM      5  N   UNK d   1      15.888 -59.176  33.556  0.00  0.00    -0.324 N 
ATOM      6  C   UNK d   1      17.353 -59.176  33.394  0.00  0.00     0.181 C 
ATOM      7  C   UNK d   1      17.707 -58.576  34.734  0.00  0.00     0.198 C 
ATOM      8  N   UNK d   1      16.706 -57.527  34.853  0.00  0.00    -0.323 N 
ATOM      9  C   UNK d   1      15.680 -57.921  34.261  0.00  0.00     0.147 C 
ENDROOT
BRANCH   6  10
ATOM     10  O   UNK d   1      17.879 -60.426  33.273  0.00  0.00    -0.365 OA
ATOM     11  H   UNK d   1      18.344 -60.622  32.422  0.00  0.00     0.213 HD
ENDBRANCH   6  10
BRANCH   6  12
ATOM     12  C   UNK d   1      17.764 -58.236  32.300  0.00  0.00    -0.002 A 
ATOM     13  C   UNK d   1      17.087 -58.140  31.099  0.00  0.00     0.012 A 
ATOM     14  C   UNK d   1      17.530 -57.238  30.141  0.00  0.00     0.001 A 
ATOM     15  C   UNK d   1      18.633 -56.416  30.337  0.00  0.00     0.000 A 
ATOM     16  C   UNK d   1      19.308 -56.504  31.524  0.00  0.00     0.001 A 
ATOM     17  C   UNK d   1      18.867 -57.412  32.486  0.00  0.00     0.012 A 
ENDBRANCH   6  12
BRANCH   8  18
ATOM     18  C   UNK d   1      16.910 -56.244  35.484  0.00  0.00     0.036 A 
ATOM     19  C   UNK d   1      17.373 -55.128  34.861  0.00  0.00     0.031 A 
ATOM     20  C   UNK d   1      17.599 -53.924  35.517  0.00  0.00     0.021 A 
ATOM     21  C   UNK d   1      17.352 -53.831  36.861  0.00  0.00     0.011 A 
ATOM     22  C   UNK d   1      16.880 -54.963  37.498  0.00  0.00     0.021 A 
ATOM     23 Br   UNK d   1      17.638 -52.211  37.851  0.00  0.00    -0.051 Br
ATOM     24  C   UNK d   1      16.658 -56.146  36.850  0.00  0.00     0.031 A 
ENDBRANCH   8  18
TORSDOF 3
ENDMDL
