MODEL 1
REMARK VINA RESULT:    -8.697      0.000      0.000
REMARK INTER + INTRA:         -10.424
REMARK INTER:                  -9.968
REMARK INTRA:                  -0.456
REMARK UNBOUND:                -0.456
REMARK  3 active torsions:
REMARK  status: ('A' for Active; 'I' for Inactive)
REMARK    1  A    between atoms: C_6  and  O_16 
REMARK    2  A    between atoms: C_6  and  C_17 
REMARK    3  A    between atoms: N_8  and  C_10 
ROOT
ATOM      1  S   UNK d   1      16.742 -56.913  36.789  0.00  0.00    -0.094 SA
ATOM      2  C   UNK d   1      15.597 -58.303  36.566  0.00  0.00     0.084 C 
ATOM      3  C   UNK d   1      14.870 -58.048  35.242  0.00  0.00     0.030 C 
ATOM      4  C   UNK d   1      15.908 -58.133  34.112  0.00  0.00     0.129 C 
ATOM      5  N   UNK d   1      16.565 -56.824  34.011  0.00  0.00    -0.324 N 
ATOM      6  C   UNK d   1      16.947 -56.017  32.925  0.00  0.00     0.181 C 
ATOM      7  C   UNK d   1      17.244 -54.654  33.539  0.00  0.00     0.198 C 
ATOM      8  N   UNK d   1      17.241 -54.895  34.950  0.00  0.00    -0.323 N 
ATOM      9  C   UNK d   1      16.899 -56.095  35.184  0.00  0.00     0.147 C 
ENDROOT
BRANCH   6  10
ATOM     10  O   UNK d   1      15.833 -55.814  32.080  0.00  0.00    -0.365 OA
ATOM     11  H   UNK d   1      16.098 -56.155  31.187  0.00  0.00     0.213 HD
ENDBRANCH   6  10
BRANCH   6  12
ATOM     12  C   UNK d   1      18.084 -56.422  32.101  0.00  0.00    -0.002 A 
ATOM     13  C   UNK d   1      18.892 -55.394  31.617  0.00  0.00     0.013 A 
ATOM     14  C   UNK d   1      20.025 -55.604  30.852  0.00  0.00     0.020 A 
ATOM     15  C   UNK d   1      20.401 -56.879  30.531  0.00  0.00     0.011 A 
ATOM     16  C   UNK d   1      19.611 -57.914  31.001  0.00  0.00     0.020 A 
ATOM     17 Br   UNK d   1      21.976 -57.243  29.478  0.00  0.00    -0.051 Br
ATOM     18  C   UNK d   1      18.475 -57.688  31.772  0.00  0.00     0.013 A 
ENDBRANCH   6  12
BRANCH   8  19
ATOM     19  C   UNK d   1      17.543 -53.863  35.903  0.00  0.00     0.036 A 
ATOM     20  C   UNK d   1      18.780 -53.305  35.902  0.00  0.00     0.029 A 
ATOM     21  C   UNK d   1      19.037 -52.287  36.815  0.00  0.00     0.002 A 
ATOM     22  C   UNK d   1      18.094 -51.829  37.708  0.00  0.00     0.000 A 
ATOM     23  C   UNK d   1      16.852 -52.429  37.673  0.00  0.00     0.002 A 
ATOM     24  C   UNK d   1      16.564 -53.437  36.785  0.00  0.00     0.029 A 
ENDBRANCH   8  19
TORSDOF 3
ENDMDL
