/Users/jonathanwahrer/Desktop/Msc/3_Semester/Drug_Design_Praktikum/waehrer_HTS_screening/HTS_experiment/out/docking_results/vina_output/6s1j/1226_docked.pdbqt
 OpenBabel03222221553D

 24 27  0  0  1  0  0  0  0  0999 V2000
   16.7420  -56.9130   36.7890 S   0  0  0  0  0  0  0  0  0  0  0  0
   15.5970  -58.3030   36.5660 C   0  0  0  0  0  2  0  0  0  0  0  0
   14.8700  -58.0480   35.2420 C   0  0  0  0  0  2  0  0  0  0  0  0
   15.9080  -58.1330   34.1120 C   0  0  0  0  0  2  0  0  0  0  0  0
   16.5650  -56.8240   34.0110 N   0  0  1  0  0  0  0  0  0  0  0  0
   16.9470  -56.0170   32.9250 C   0  0  2  0  0  0  0  0  0  0  0  0
   17.2440  -54.6540   33.5390 C   0  0  0  0  0  2  0  0  0  0  0  0
   17.2410  -54.8950   34.9500 N   0  0  0  0  0  0  0  0  0  0  0  0
   16.8990  -56.0950   35.1840 C   0  0  1  0  0  3  0  0  0  0  0  0
   15.8330  -55.8140   32.0800 O   0  0  0  0  0  0  0  0  0  0  0  0
   16.0980  -56.1550   31.1870 H   0  0  0  0  0  0  0  0  0  0  0  0
   18.0840  -56.4220   32.1010 C   0  0  0  0  0  0  0  0  0  0  0  0
   18.8920  -55.3940   31.6170 C   0  0  0  0  0  3  0  0  0  0  0  0
   20.0250  -55.6040   30.8520 C   0  0  0  0  0  3  0  0  0  0  0  0
   20.4010  -56.8790   30.5310 C   0  0  0  0  0  0  0  0  0  0  0  0
   19.6110  -57.9140   31.0010 C   0  0  0  0  0  3  0  0  0  0  0  0
   21.9760  -57.2430   29.4780 Br  0  0  0  0  0  0  0  0  0  0  0  0
   18.4750  -57.6880   31.7720 C   0  0  0  0  0  3  0  0  0  0  0  0
   17.5430  -53.8630   35.9030 C   0  0  0  0  0  0  0  0  0  0  0  0
   18.7800  -53.3050   35.9020 C   0  0  0  0  0  3  0  0  0  0  0  0
   19.0370  -52.2870   36.8150 C   0  0  0  0  0  3  0  0  0  0  0  0
   18.0940  -51.8290   37.7080 C   0  0  0  0  0  3  0  0  0  0  0  0
   16.8520  -52.4290   37.6730 C   0  0  0  0  0  3  0  0  0  0  0  0
   16.5640  -53.4370   36.7850 C   0  0  0  0  0  3  0  0  0  0  0  0
  2  1  1  0  0  0  0
  3  2  1  0  0  0  0
  4  3  1  0  0  0  0
  5  4  1  6  0  0  0
  5  9  1  0  0  0  0
  6 10  1  6  0  0  0
  6  7  1  0  0  0  0
  6  5  1  0  0  0  0
  7  8  1  0  0  0  0
  8  9  1  0  0  0  0
  8 19  1  0  0  0  0
  9  1  1  1  0  0  0
 11 10  1  0  0  0  0
 12  6  1  0  0  0  0
 13 12  2  0  0  0  0
 14 13  1  0  0  0  0
 15 14  2  0  0  0  0
 15 16  1  0  0  0  0
 16 18  2  0  0  0  0
 17 15  1  0  0  0  0
 18 12  1  0  0  0  0
 19 24  1  0  0  0  0
 20 19  2  0  0  0  0
 20 21  1  0  0  0  0
 21 22  2  0  0  0  0
 23 22  1  0  0  0  0
 24 23  2  0  0  0  0
M  END
>  <Pose>
1

>  <Score>
-8.697

$$$$
