MODEL 1
REMARK VINA RESULT:    -8.257      0.000      0.000
REMARK INTER + INTRA:         -13.835
REMARK INTER:                 -12.359
REMARK INTRA:                  -1.476
REMARK UNBOUND:                -1.476
REMARK  9 active torsions:
REMARK  status: ('A' for Active; 'I' for Inactive)
REMARK    1  A    between atoms: C_5  and  S_6 
REMARK    2  A    between atoms: S_6  and  C_7 
REMARK    3  A    between atoms: C_7  and  C_8 
REMARK    4  A    between atoms: N_9  and  C_28 
REMARK    5  A    between atoms: C_12  and  C_13 
REMARK       I    between atoms: C_13  and  N_15 
REMARK    6  A    between atoms: N_15  and  N_16 
REMARK    7  A    between atoms: C_17  and  C_18 
REMARK    8  A    between atoms: C_22  and  O_24 
REMARK    9  A    between atoms: C_32  and  N_33 
ROOT
ATOM      1  C   UNK d   1      17.500 -55.340  36.051  0.00  0.00     0.086 A 
ATOM      2  N   UNK d   1      18.065 -54.161  36.342  0.00  0.00    -0.192 N 
ATOM      3  N   UNK d   1      17.538 -53.791  37.522  0.00  0.00    -0.058 NA
ATOM      4  N   UNK d   1      16.702 -54.665  37.954  0.00  0.00    -0.124 NA
ATOM      5  C   UNK d   1      16.609 -55.716  37.061  0.00  0.00     0.175 A 
ENDROOT
BRANCH   5   6
ATOM      6  C   UNK d   1      15.767 -56.867  37.259  0.00  0.00     0.294 C 
ATOM      7  O   UNK d   1      16.367 -58.001  37.426  0.00  0.00    -0.264 OA
ATOM      8  N   UNK d   1      14.377 -56.929  37.297  0.00  0.00    -0.242 N 
ATOM      9  H   UNK d   1      13.692 -56.163  37.182  0.00  0.00     0.192 HD
BRANCH   8  10
ATOM     10  N   UNK d   1      13.724 -58.192  37.513  0.00  0.00    -0.183 NA
ATOM     11  C   UNK d   1      13.110 -58.455  38.598  0.00  0.00     0.150 C 
BRANCH  11  12
ATOM     12  C   UNK d   1      12.436 -59.720  38.857  0.00  0.00    -0.013 A 
ATOM     13  C   UNK d   1      11.911 -60.021  40.093  0.00  0.00     0.035 A 
ATOM     14  C   UNK d   1      11.264 -61.212  40.352  0.00  0.00     0.051 A 
ATOM     15  C   UNK d   1      11.118 -62.160  39.372  0.00  0.00     0.157 A 
ATOM     16 Br   UNK d   1      10.551 -61.584  42.085  0.00  0.00    -0.048 Br
ATOM     17  C   UNK d   1      11.641 -61.887  38.098  0.00  0.00     0.106 A 
ATOM     18  O   UNK d   1      10.465 -63.350  39.654  0.00  0.00    -0.188 OA
ATOM     19  C   UNK d   1      12.281 -60.687  37.872  0.00  0.00     0.052 A 
BRANCH  17  20
ATOM     20  O   UNK d   1      11.459 -62.879  37.163  0.00  0.00    -0.353 OA
ATOM     21  C   UNK d   1      10.519 -62.861  36.118  0.00  0.00     0.210 C 
ENDBRANCH  17  20
ENDBRANCH  11  12
ENDBRANCH   8  10
ENDBRANCH   5   6
BRANCH   1  22
ATOM     22  C   UNK d   1      17.760 -56.181  34.872  0.00  0.00     0.143 C 
BRANCH  22  23
ATOM     23  S   UNK d   1      16.542 -56.165  33.574  0.00  0.00    -0.098 SA
BRANCH  23  24
ATOM     24  C   UNK d   1      15.274 -57.405  33.800  0.00  0.00     0.125 C 
ATOM     25  S   UNK d   1      15.660 -59.138  34.054  0.00  0.00    -0.102 SA
ATOM     26  C   UNK d   1      13.940 -59.723  33.958  0.00  0.00     0.103 C 
ATOM     27  C   UNK d   1      13.223 -58.413  34.015  0.00  0.00     0.161 C 
ATOM     28  N   UNK d   1      14.039 -57.324  33.825  0.00  0.00    -0.275 NA
ENDBRANCH  23  24
ENDBRANCH  22  23
ENDBRANCH   1  22
BRANCH   2  29
ATOM     29  C   UNK d   1      19.045 -53.376  35.668  0.00  0.00     0.237 A 
ATOM     30  N   UNK d   1      19.782 -53.702  34.587  0.00  0.00    -0.081 NA
ATOM     31  O   UNK d   1      20.554 -52.748  34.222  0.00  0.00    -0.103 OA
ATOM     32  N   UNK d   1      20.371 -51.753  35.032  0.00  0.00    -0.075 NA
ATOM     33  C   UNK d   1      19.431 -52.086  35.966  0.00  0.00     0.300 A 
BRANCH  33  34
ATOM     34  N   UNK d   1      18.948 -51.258  37.004  0.00  0.00    -0.026 N 
ATOM     35  H   UNK d   1      18.004 -50.889  36.713  0.00  0.00     0.283 HD
ATOM     36  H   UNK d   1      19.574 -50.475  37.260  0.00  0.00     0.283 HD
ATOM     37  H   UNK d   1      18.775 -51.852  37.860  0.00  0.00     0.283 HD
ENDBRANCH  33  34
ENDBRANCH   2  29
TORSDOF 9
ENDMDL
