MODEL 1
REMARK VINA RESULT:    -7.721      0.000      0.000
REMARK INTER + INTRA:          -9.615
REMARK INTER:                  -9.075
REMARK INTRA:                  -0.540
REMARK UNBOUND:                -0.540
REMARK  3 active torsions:
REMARK  status: ('A' for Active; 'I' for Inactive)
REMARK    1  A    between atoms: C_9  and  C_12 
REMARK    2  A    between atoms: C_12  and  C_13 
REMARK    3  A    between atoms: C_12  and  C_24 
ROOT
ATOM      1  C   UNK d   1      16.423 -57.953  34.415  0.00  0.00     0.063 C 
ENDROOT
BRANCH   1   2
ATOM      2  C   UNK d   1      16.920 -56.636  33.929  0.00  0.00     0.182 C 
ATOM      3  C   UNK d   1      18.393 -56.610  34.142  0.00  0.00     0.259 C 
ATOM      4  N   UNK d   1      19.209 -57.309  33.181  0.00  0.00    -0.188 NA
ATOM      5  O   UNK d   1      18.871 -55.994  35.127  0.00  0.00    -0.270 OA
ATOM      6  C   UNK d   1      18.812 -57.570  32.009  0.00  0.00     0.174 C 
ATOM      7  S   UNK d   1      19.566 -58.399  30.624  0.00  0.00    -0.090 SA
ATOM      8  N   UNK d   1      17.539 -57.162  31.560  0.00  0.00    -0.295 N 
ATOM      9  C   UNK d   1      18.459 -57.594  29.369  0.00  0.00     0.103 C 
ATOM     10  C   UNK d   1      17.214 -57.551  30.217  0.00  0.00     0.144 C 
ATOM     11  C   UNK d   1      16.691 -56.427  32.481  0.00  0.00     0.239 C 
ATOM     12  O   UNK d   1      15.823 -55.664  31.993  0.00  0.00    -0.272 OA
ENDBRANCH   1   2
BRANCH   1  13
ATOM     13  C   UNK d   1      15.364 -58.568  33.535  0.00  0.00     0.182 C 
ATOM     14  C   UNK d   1      13.990 -58.409  34.037  0.00  0.00     0.239 C 
ATOM     15  O   UNK d   1      13.395 -57.280  33.920  0.00  0.00    -0.272 OA
ATOM     16  N   UNK d   1      13.307 -59.522  34.667  0.00  0.00    -0.295 N 
ATOM     17  C   UNK d   1      12.078 -59.465  35.408  0.00  0.00     0.144 C 
ATOM     18  C   UNK d   1      13.866 -60.813  34.538  0.00  0.00     0.174 C 
ATOM     19  C   UNK d   1      12.051 -60.525  36.480  0.00  0.00     0.103 C 
ATOM     20  S   UNK d   1      12.776 -61.893  35.461  0.00  0.00    -0.090 SA
ATOM     21  N   UNK d   1      14.942 -61.041  33.890  0.00  0.00    -0.188 NA
ATOM     22  C   UNK d   1      15.674 -59.990  33.239  0.00  0.00     0.259 C 
ATOM     23  O   UNK d   1      16.570 -60.317  32.422  0.00  0.00    -0.270 OA
ENDBRANCH   1  13
BRANCH   1  24
ATOM     24  C   UNK d   1      15.973 -57.811  35.817  0.00  0.00    -0.050 A 
ATOM     25  C   UNK d   1      15.799 -56.556  36.386  0.00  0.00     0.026 A 
ATOM     26  C   UNK d   1      15.376 -56.412  37.691  0.00  0.00     0.011 A 
ATOM     27  C   UNK d   1      15.114 -57.521  38.465  0.00  0.00     0.019 A 
ATOM     28 Br   UNK d   1      15.134 -54.692  38.481  0.00  0.00    -0.051 Br
ATOM     29  C   UNK d   1      15.286 -58.751  37.905  0.00  0.00     0.002 A 
ATOM     30  C   UNK d   1      15.709 -58.911  36.601  0.00  0.00     0.007 A 
ENDBRANCH   1  24
TORSDOF 3
ENDMDL
