MODEL 1
REMARK VINA RESULT:    -7.336      0.000      0.000
REMARK INTER + INTRA:         -10.022
REMARK INTER:                  -8.622
REMARK INTRA:                  -1.400
REMARK UNBOUND:                -1.400
REMARK  3 active torsions:
REMARK  status: ('A' for Active; 'I' for Inactive)
REMARK    1  A    between atoms: C_9  and  C_12 
REMARK    2  A    between atoms: C_12  and  C_13 
REMARK    3  A    between atoms: C_12  and  C_24 
ROOT
ATOM      1  C   UNK d   1      16.265 -57.415  34.089  0.00  0.00     0.063 C 
ENDROOT
BRANCH   1   2
ATOM      2  C   UNK d   1      15.003 -57.909  34.661  0.00  0.00     0.182 C 
ATOM      3  C   UNK d   1      13.755 -57.880  33.951  0.00  0.00     0.259 C 
ATOM      4  N   UNK d   1      13.411 -59.056  33.168  0.00  0.00    -0.188 NA
ATOM      5  O   UNK d   1      12.881 -56.981  33.896  0.00  0.00    -0.270 OA
ATOM      6  C   UNK d   1      13.892 -60.218  33.478  0.00  0.00     0.174 C 
ATOM      7  S   UNK d   1      13.662 -61.848  32.721  0.00  0.00    -0.090 SA
ATOM      8  N   UNK d   1      14.797 -60.445  34.535  0.00  0.00    -0.295 N 
ATOM      9  C   UNK d   1      15.177 -62.578  33.481  0.00  0.00     0.103 C 
ATOM     10  C   UNK d   1      15.207 -61.782  34.747  0.00  0.00     0.144 C 
ATOM     11  C   UNK d   1      15.183 -59.272  35.289  0.00  0.00     0.239 C 
ATOM     12  O   UNK d   1      15.652 -59.396  36.434  0.00  0.00    -0.272 OA
ENDBRANCH   1   2
BRANCH   1  13
ATOM     13  C   UNK d   1      17.314 -58.328  33.616  0.00  0.00     0.182 C 
ATOM     14  C   UNK d   1      17.177 -58.428  32.096  0.00  0.00     0.239 C 
ATOM     15  O   UNK d   1      16.288 -59.155  31.598  0.00  0.00    -0.272 OA
ATOM     16  N   UNK d   1      18.072 -57.685  31.237  0.00  0.00    -0.295 N 
ATOM     17  C   UNK d   1      17.901 -57.392  29.856  0.00  0.00     0.144 C 
ATOM     18  C   UNK d   1      19.270 -57.205  31.820  0.00  0.00     0.174 C 
ATOM     19  C   UNK d   1      18.573 -56.094  29.482  0.00  0.00     0.103 C 
ATOM     20  S   UNK d   1      20.100 -56.321  30.511  0.00  0.00    -0.090 SA
ATOM     21  N   UNK d   1      19.599 -57.392  33.036  0.00  0.00    -0.188 NA
ATOM     22  C   UNK d   1      18.709 -58.145  33.914  0.00  0.00     0.259 C 
ATOM     23  O   UNK d   1      19.251 -58.618  34.930  0.00  0.00    -0.270 OA
ENDBRANCH   1  13
BRANCH   1  24
ATOM     24  C   UNK d   1      16.803 -56.212  34.833  0.00  0.00    -0.051 A 
ATOM     25  C   UNK d   1      17.235 -55.097  34.156  0.00  0.00     0.009 A 
ATOM     26  C   UNK d   1      17.722 -54.029  34.866  0.00  0.00     0.019 A 
ATOM     27  C   UNK d   1      17.800 -54.015  36.223  0.00  0.00     0.011 A 
ATOM     28  C   UNK d   1      17.376 -55.114  36.927  0.00  0.00     0.019 A 
ATOM     29 Br   UNK d   1      18.482 -52.515  37.206  0.00  0.00    -0.051 Br
ATOM     30  C   UNK d   1      16.882 -56.202  36.206  0.00  0.00     0.009 A 
ENDBRANCH   1  24
TORSDOF 3
ENDMDL
