MODEL 1
REMARK VINA RESULT:    -7.780      0.000      0.000
REMARK INTER + INTRA:          -8.976
REMARK INTER:                  -8.690
REMARK INTRA:                  -0.287
REMARK UNBOUND:                -0.287
REMARK  2 active torsions:
REMARK  status: ('A' for Active; 'I' for Inactive)
REMARK    1  A    between atoms: C_4  and  C_7 
REMARK    2  A    between atoms: C_14  and  C_15 
ROOT
ATOM      1  S   UNK d   1      19.893 -53.849  34.738  0.00  0.00    -0.025 SA
ATOM      2  C   UNK d   1      19.339 -53.729  36.359  0.00  0.00     0.219 A 
ATOM      3  N   UNK d   1      18.234 -54.471  36.311  0.00  0.00    -0.184 N 
ATOM      4  C   UNK d   1      17.738 -54.414  37.593  0.00  0.00     0.205 A 
ATOM      5  N   UNK d   1      18.538 -53.661  38.346  0.00  0.00    -0.125 NA
ATOM      6  N   UNK d   1      19.541 -53.219  37.616  0.00  0.00    -0.120 NA
ATOM      7  N   UNK d   1      17.904 -55.018  35.212  0.00  0.00    -0.154 NA
ATOM      8  C   UNK d   1      18.637 -54.861  34.127  0.00  0.00     0.153 A 
ENDROOT
BRANCH   8   9
ATOM      9  C   UNK d   1      18.449 -55.390  32.772  0.00  0.00     0.133 A 
ATOM     10  N   UNK d   1      18.351 -54.680  31.642  0.00  0.00    -0.171 NA
ATOM     11  N   UNK d   1      18.186 -55.519  30.607  0.00  0.00    -0.287 N 
ATOM     12  C   UNK d   1      18.178 -56.784  31.072  0.00  0.00     0.131 A 
ATOM     13  H   UNK d   1      18.082 -55.220  29.610  0.00  0.00     0.188 HD
ATOM     14  C   UNK d   1      18.347 -56.700  32.456  0.00  0.00     0.061 A 
ATOM     15 Br   UNK d   1      18.407 -58.198  33.600  0.00  0.00    -0.047 Br
ENDBRANCH   8   9
BRANCH   4  16
ATOM     16  C   UNK d   1      16.511 -55.077  38.080  0.00  0.00     0.123 A 
ATOM     17  N   UNK d   1      16.153 -56.295  37.632  0.00  0.00    -0.254 NA
ATOM     18  C   UNK d   1      15.028 -56.891  38.085  0.00  0.00     0.136 A 
ATOM     19  C   UNK d   1      14.236 -56.263  39.007  0.00  0.00     0.135 A 
ATOM     20  N   UNK d   1      14.604 -55.057  39.442  0.00  0.00    -0.269 NA
ATOM     21  C   UNK d   1      15.723 -54.438  39.006  0.00  0.00     0.151 A 
ENDBRANCH   4  16
TORSDOF 2
ENDMDL
