MODEL 1
REMARK VINA RESULT:    -8.174      0.000      0.000
REMARK INTER + INTRA:          -9.194
REMARK INTER:                  -9.607
REMARK INTRA:                   0.414
REMARK UNBOUND:                 0.414
REMARK  3 active torsions:
REMARK  status: ('A' for Active; 'I' for Inactive)
REMARK    1  A    between atoms: C_6  and  C_13 
REMARK    2  A    between atoms: C_13  and  C_14 
REMARK    3  A    between atoms: C_13  and  C_26 
ROOT
ATOM      1  C   UNK d   1      16.259 -57.817  34.292  0.00  0.00     0.063 C 
ENDROOT
BRANCH   1   2
ATOM      2  C   UNK d   1      17.291 -58.908  34.356  0.00  0.00     0.184 C 
ATOM      3  C   UNK d   1      18.669 -58.271  34.191  0.00  0.00     0.259 C 
ATOM      4  N   UNK d   1      18.940 -57.660  32.909  0.00  0.00    -0.186 NA
ATOM      5  O   UNK d   1      19.448 -58.317  35.142  0.00  0.00    -0.270 OA
ATOM      6  C   UNK d   1      18.364 -58.121  31.847  0.00  0.00     0.200 A 
ATOM      7  S   UNK d   1      18.473 -57.610  30.140  0.00  0.00    -0.032 SA
ATOM      8  N   UNK d   1      17.475 -59.218  31.863  0.00  0.00    -0.197 N 
ATOM      9  C   UNK d   1      17.351 -58.853  29.517  0.00  0.00     0.083 A 
ATOM     10  N   UNK d   1      16.955 -59.592  30.653  0.00  0.00    -0.283 N 
ATOM     11  C   UNK d   1      16.989 -59.017  28.248  0.00  0.00     0.052 C 
ATOM     12  H   UNK d   1      16.272 -60.420  30.523  0.00  0.00     0.188 HD
ATOM     13  C   UNK d   1      17.236 -59.818  33.169  0.00  0.00     0.259 C 
ATOM     14  O   UNK d   1      17.000 -61.057  33.256  0.00  0.00    -0.270 OA
ENDBRANCH   1   2
BRANCH   1  15
ATOM     15  C   UNK d   1      14.915 -58.117  34.825  0.00  0.00     0.184 C 
ATOM     16  C   UNK d   1      14.695 -59.423  35.427  0.00  0.00     0.259 C 
ATOM     17  O   UNK d   1      14.674 -59.545  36.699  0.00  0.00    -0.270 OA
ATOM     18  N   UNK d   1      14.493 -60.611  34.617  0.00  0.00    -0.197 N 
ATOM     19  N   UNK d   1      14.712 -61.906  34.962  0.00  0.00    -0.283 N 
ATOM     20  C   UNK d   1      14.003 -60.369  33.318  0.00  0.00     0.200 A 
ATOM     21  C   UNK d   1      14.428 -62.896  33.988  0.00  0.00     0.083 A 
ATOM     22  H   UNK d   1      15.082 -62.239  35.919  0.00  0.00     0.188 HD
ATOM     23  C   UNK d   1      14.543 -64.204  34.062  0.00  0.00     0.052 C 
ATOM     24  S   UNK d   1      13.853 -61.977  32.562  0.00  0.00    -0.032 SA
ATOM     25  N   UNK d   1      13.743 -59.199  32.854  0.00  0.00    -0.186 NA
ATOM     26  C   UNK d   1      13.946 -58.026  33.659  0.00  0.00     0.259 C 
ATOM     27  O   UNK d   1      13.383 -56.938  33.467  0.00  0.00    -0.270 OA
ENDBRANCH   1  15
BRANCH   1  28
ATOM     28  C   UNK d   1      16.772 -56.548  34.882  0.00  0.00    -0.051 A 
ATOM     29  C   UNK d   1      17.116 -55.479  34.087  0.00  0.00     0.009 A 
ATOM     30  C   UNK d   1      17.591 -54.306  34.626  0.00  0.00     0.019 A 
ATOM     31  C   UNK d   1      17.727 -54.193  35.991  0.00  0.00     0.011 A 
ATOM     32  C   UNK d   1      17.390 -55.253  36.834  0.00  0.00     0.019 A 
ATOM     33 Br   UNK d   1      18.384 -52.575  36.771  0.00  0.00    -0.051 Br
ATOM     34  C   UNK d   1      16.917 -56.413  36.255  0.00  0.00     0.009 A 
ENDBRANCH   1  28
TORSDOF 3
ENDMDL
