MODEL 1
REMARK VINA RESULT:    -9.235      0.000      0.000
REMARK INTER + INTRA:         -10.438
REMARK INTER:                 -10.315
REMARK INTRA:                  -0.123
REMARK UNBOUND:                -0.123
REMARK  2 active torsions:
REMARK  status: ('A' for Active; 'I' for Inactive)
REMARK    1  A    between atoms: C_3  and  C_8 
REMARK       I    between atoms: N_12  and  C_14 
REMARK    2  A    between atoms: C_14  and  C_16 
ROOT
ATOM      1  C   UNK d   1      18.119 -55.895  34.829  0.00  0.00     0.273 C 
ATOM      2  N   UNK d   1      17.445 -55.319  33.671  0.00  0.00     0.095 NA
ATOM      3  C   UNK d   1      16.355 -55.977  33.121  0.00  0.00     0.290 C 
ATOM      4  C   UNK d   1      15.526 -56.897  33.993  0.00  0.00     0.155 C 
ATOM      5  N   UNK d   1      16.239 -57.458  35.055  0.00  0.00    -0.355 N 
ATOM      6  C   UNK d   1      17.654 -57.248  35.115  0.00  0.00     0.165 C 
ATOM      7  C   UNK d   1      15.698 -58.233  36.113  0.00  0.00     0.189 C 
ATOM      8  O   UNK d   1      16.637 -58.747  36.873  0.00  0.00    -0.171 OA
ATOM      9  H   UNK d   1      17.289 -54.301  33.812  0.00  0.00     0.316 HD
ENDROOT
BRANCH   7  10
ATOM     10  C   UNK d   1      14.374 -58.551  36.510  0.00  0.00     0.038 A 
ATOM     11  C   UNK d   1      13.556 -59.214  35.563  0.00  0.00     0.135 A 
ATOM     12  N   UNK d   1      12.347 -59.668  35.893  0.00  0.00    -0.234 NA
ATOM     13  C   UNK d   1      11.851 -59.520  37.123  0.00  0.00     0.192 A 
ATOM     14  C   UNK d   1      12.595 -58.888  38.081  0.00  0.00     0.089 A 
ATOM     15  O   UNK d   1      10.578 -60.001  37.450  0.00  0.00    -0.323 OA
ATOM     16  C   UNK d   1      13.864 -58.398  37.777  0.00  0.00     0.051 A 
ATOM     17  N   UNK d   1      12.089 -58.755  39.413  0.00  0.00    -0.322 N 
ATOM     18  C   UNK d   1      10.800 -59.295  39.709  0.00  0.00     0.246 C 
ATOM     19  H   UNK d   1      12.630 -58.289  40.156  0.00  0.00     0.169 HD
ATOM     20  O   UNK d   1      10.424 -59.637  40.849  0.00  0.00    -0.271 OA
ATOM     21  C   UNK d   1       9.852 -59.457  38.564  0.00  0.00     0.280 C 
ENDBRANCH   7  10
BRANCH   1  22
ATOM     22  C   UNK d   1      17.867 -54.909  35.938  0.00  0.00    -0.002 A 
ATOM     23  C   UNK d   1      18.643 -53.739  35.956  0.00  0.00     0.042 A 
ATOM     24 Cl   UNK d   1      19.952 -53.617  34.763  0.00  0.00    -0.084 Cl
ATOM     25  C   UNK d   1      18.433 -52.709  36.848  0.00  0.00     0.024 A 
ATOM     26  C   UNK d   1      17.406 -52.821  37.780  0.00  0.00     0.002 A 
ATOM     27  C   UNK d   1      16.642 -53.974  37.759  0.00  0.00     0.001 A 
ATOM     28  C   UNK d   1      16.864 -55.001  36.858  0.00  0.00     0.011 A 
ENDBRANCH   1  22
TORSDOF 2
ENDMDL
