/Users/jonathanwahrer/Desktop/Msc/3_Semester/Drug_Design_Praktikum/waehrer_HTS_screening/HTS_experiment/out/docking_results/vina_output/6s1j/1266_docked.pdbqt
 OpenBabel03222221573D

 28 31  0  0  1  0  0  0  0  0999 V2000
   18.1190  -55.8950   34.8290 C   0  0  2  0  0  3  0  0  0  0  0  0
   17.4450  -55.3190   33.6710 N   0  0  0  0  0  0  0  0  0  0  0  0
   16.3550  -55.9770   33.1210 C   0  0  0  0  0  2  0  0  0  0  0  0
   15.5260  -56.8970   33.9930 C   0  0  0  0  0  2  0  0  0  0  0  0
   16.2390  -57.4580   35.0550 N   0  0  0  0  0  0  0  0  0  0  0  0
   17.6540  -57.2480   35.1150 C   0  0  0  0  0  2  0  0  0  0  0  0
   15.6980  -58.2330   36.1130 C   0  0  0  0  0  0  0  0  0  0  0  0
   16.6370  -58.7470   36.8730 O   0  0  0  0  0  0  0  0  0  0  0  0
   17.2890  -54.3010   33.8120 H   0  0  0  0  0  0  0  0  0  0  0  0
   14.3740  -58.5510   36.5100 C   0  0  0  0  0  0  0  0  0  0  0  0
   13.5560  -59.2140   35.5630 C   0  0  0  0  0  3  0  0  0  0  0  0
   12.3470  -59.6680   35.8930 N   0  0  0  0  0  0  0  0  0  0  0  0
   11.8510  -59.5200   37.1230 C   0  0  0  0  0  0  0  0  0  0  0  0
   12.5950  -58.8880   38.0810 C   0  0  0  0  0  0  0  0  0  0  0  0
   10.5780  -60.0010   37.4500 O   0  0  0  0  0  0  0  0  0  0  0  0
   13.8640  -58.3980   37.7770 C   0  0  0  0  0  3  0  0  0  0  0  0
   12.0890  -58.7550   39.4130 N   0  0  0  0  0  0  0  0  0  0  0  0
   10.8000  -59.2950   39.7090 C   0  0  0  0  0  0  0  0  0  0  0  0
   12.6300  -58.2890   40.1560 H   0  0  0  0  0  0  0  0  0  0  0  0
   10.4240  -59.6370   40.8490 O   0  0  0  0  0  0  0  0  0  0  0  0
    9.8520  -59.4570   38.5640 C   0  0  0  0  0  2  0  0  0  0  0  0
   17.8670  -54.9090   35.9380 C   0  0  0  0  0  0  0  0  0  0  0  0
   18.6430  -53.7390   35.9560 C   0  0  0  0  0  0  0  0  0  0  0  0
   19.9520  -53.6170   34.7630 Cl  0  0  0  0  0  0  0  0  0  0  0  0
   18.4330  -52.7090   36.8480 C   0  0  0  0  0  3  0  0  0  0  0  0
   17.4060  -52.8210   37.7800 C   0  0  0  0  0  3  0  0  0  0  0  0
   16.6420  -53.9740   37.7590 C   0  0  0  0  0  3  0  0  0  0  0  0
   16.8640  -55.0010   36.8580 C   0  0  0  0  0  3  0  0  0  0  0  0
  1  6  1  0  0  0  0
  1 22  1  1  0  0  0
  2  9  1  0  0  0  0
  2  1  1  0  0  0  0
  3  2  1  0  0  0  0
  3  4  1  0  0  0  0
  4  5  1  0  0  0  0
  5  6  1  0  0  0  0
  5  7  1  0  0  0  0
  7 10  1  0  0  0  0
  7  8  2  0  0  0  0
 10 16  1  0  0  0  0
 11 12  1  0  0  0  0
 11 10  2  0  0  0  0
 12 13  2  0  0  0  0
 13 15  1  0  0  0  0
 13 14  1  0  0  0  0
 14 17  1  0  0  0  0
 15 21  1  0  0  0  0
 16 14  2  0  0  0  0
 17 18  1  0  0  0  0
 17 19  1  0  0  0  0
 18 20  2  0  0  0  0
 21 18  1  0  0  0  0
 22 23  2  0  0  0  0
 22 28  1  0  0  0  0
 23 25  1  0  0  0  0
 24 23  1  0  0  0  0
 25 26  2  0  0  0  0
 27 26  1  0  0  0  0
 28 27  2  0  0  0  0
M  END
>  <Pose>
1

>  <Score>
-9.235

$$$$
