MODEL 1
REMARK VINA RESULT:    -9.292      0.000      0.000
REMARK INTER + INTRA:         -14.800
REMARK INTER:                 -13.365
REMARK INTRA:                  -1.435
REMARK UNBOUND:                -1.435
REMARK  8 active torsions:
REMARK  status: ('A' for Active; 'I' for Inactive)
REMARK    1  A    between atoms: C_4  and  C_8 
REMARK    2  A    between atoms: C_8  and  N_10 
REMARK    3  A    between atoms: N_10  and  N_11 
REMARK       I    between atoms: N_11  and  C_12 
REMARK    4  A    between atoms: C_12  and  C_14 
REMARK    5  A    between atoms: N_17  and  C_26 
REMARK    6  A    between atoms: C_18  and  C_19 
REMARK    7  A    between atoms: C_19  and  N_20 
REMARK    8  A    between atoms: C_30  and  N_31 
ROOT
ATOM      1  C   UNK d   1      16.670 -57.105  35.727  0.00  0.00     0.176 A 
ATOM      2  N   UNK d   1      17.181 -57.911  34.787  0.00  0.00    -0.124 NA
ATOM      3  N   UNK d   1      18.123 -57.231  34.184  0.00  0.00    -0.058 NA
ATOM      4  N   UNK d   1      18.229 -56.014  34.711  0.00  0.00    -0.191 N 
ATOM      5  C   UNK d   1      17.343 -55.874  35.685  0.00  0.00     0.104 A 
ENDROOT
BRANCH   1   6
ATOM      6  C   UNK d   1      15.603 -57.485  36.634  0.00  0.00     0.292 C 
ATOM      7  N   UNK d   1      14.235 -57.334  36.307  0.00  0.00    -0.264 N 
ATOM      8  H   UNK d   1      13.916 -56.929  35.386  0.00  0.00     0.190 HD
ATOM      9  O   UNK d   1      15.911 -57.968  37.747  0.00  0.00    -0.264 OA
BRANCH   7  10
ATOM     10  N   UNK d   1      13.217 -57.710  37.184  0.00  0.00    -0.298 N 
ATOM     11  H   UNK d   1      12.820 -57.115  37.931  0.00  0.00     0.187 HD
BRANCH  10  12
ATOM     12  C   UNK d   1      12.659 -59.034  37.048  0.00  0.00     0.049 C 
ATOM     13  C   UNK d   1      12.538 -59.542  35.847  0.00  0.00     0.045 C 
BRANCH  12  14
ATOM     14  C   UNK d   1      12.246 -59.737  38.247  0.00  0.00    -0.008 A 
ATOM     15  C   UNK d   1      12.028 -61.113  38.210  0.00  0.00     0.032 A 
ATOM     16  C   UNK d   1      11.651 -61.794  39.342  0.00  0.00     0.011 A 
ATOM     17 Br   UNK d   1      11.348 -63.671  39.304  0.00  0.00    -0.051 Br
ATOM     18  C   UNK d   1      11.474 -61.146  40.553  0.00  0.00     0.019 A 
ATOM     19  C   UNK d   1      11.684 -59.802  40.601  0.00  0.00     0.002 A 
ATOM     20  C   UNK d   1      12.068 -59.116  39.449  0.00  0.00     0.014 A 
ENDBRANCH  12  14
ENDBRANCH  10  12
ENDBRANCH   7  10
ENDBRANCH   1   6
BRANCH   5  21
ATOM     21  C   UNK d   1      16.996 -54.770  36.551  0.00  0.00     0.334 C 
BRANCH  21  22
ATOM     22  N   UNK d   1      17.419 -54.880  37.933  0.00  0.00     0.094 NA
ATOM     23  C   UNK d   1      18.521 -53.962  38.211  0.00  0.00     0.273 C 
ATOM     24  C   UNK d   1      18.241 -52.571  37.687  0.00  0.00     0.030 C 
ATOM     25  C   UNK d   1      16.950 -52.042  38.286  0.00  0.00     0.003 C 
ATOM     26  C   UNK d   1      16.352 -53.039  39.238  0.00  0.00     0.030 C 
ATOM     27  C   UNK d   1      16.332 -54.451  38.808  0.00  0.00     0.273 C 
ENDBRANCH  21  22
ENDBRANCH   5  21
BRANCH   4  28
ATOM     28  C   UNK d   1      19.144 -55.038  34.251  0.00  0.00     0.229 A 
ATOM     29  N   UNK d   1      20.054 -54.433  35.064  0.00  0.00    -0.081 NA
ATOM     30  O   UNK d   1      20.730 -53.597  34.341  0.00  0.00    -0.103 OA
ATOM     31  N   UNK d   1      20.333 -53.603  33.120  0.00  0.00    -0.083 NA
ATOM     32  C   UNK d   1      19.338 -54.494  33.015  0.00  0.00     0.201 A 
BRANCH  32  33
ATOM     33  N   UNK d   1      18.609 -54.829  31.864  0.00  0.00    -0.379 N 
ATOM     34  H   UNK d   1      18.879 -55.543  31.152  0.00  0.00     0.158 HD
ATOM     35  H   UNK d   1      17.712 -54.330  31.679  0.00  0.00     0.158 HD
ENDBRANCH  32  33
ENDBRANCH   4  28
TORSDOF 8
ENDMDL
