/Users/jonathanwahrer/Desktop/Msc/3_Semester/Drug_Design_Praktikum/waehrer_HTS_screening/HTS_experiment/out/docking_results/vina_output/6s1j/1280_docked.pdbqt
 OpenBabel03222221583D

 35 38  0  0  1  0  0  0  0  0999 V2000
   16.1040  -58.1730   35.6310 C   0  0  1  0  0  3  0  0  0  0  0  0
   14.8980  -58.5930   34.9460 N   0  0  0  0  0  0  0  0  0  0  0  0
   14.5830  -57.5810   34.0060 C   0  0  0  0  0  0  0  0  0  0  0  0
   13.4540  -57.3340   33.5700 O   0  0  0  0  0  0  0  0  0  0  0  0
   15.8530  -56.9110   33.6730 C   0  0  0  0  0  0  0  0  0  0  0  0
   16.0320  -55.9610   32.8740 O   0  0  0  0  0  0  0  0  0  0  0  0
   16.8630  -57.5940   34.4720 C   0  0  0  0  0  0  0  0  0  0  0  0
   18.1500  -57.6840   34.1710 C   0  0  0  0  0  0  0  0  0  0  0  0
   18.9340  -58.4400   35.0750 O   0  0  0  0  0  1  0  0  0  0  0  0
   15.7840  -57.1900   36.6770 C   0  0  0  0  0  0  0  0  0  0  0  0
   16.6570  -56.1440   36.9410 C   0  0  0  0  0  3  0  0  0  0  0  0
   16.3680  -55.1810   37.9150 C   0  0  0  0  0  0  0  0  0  0  0  0
   17.6000  -53.7460   38.2540 Br  0  0  0  0  0  0  0  0  0  0  0  0
   15.2040  -55.2560   38.6340 C   0  0  0  0  0  3  0  0  0  0  0  0
   14.3290  -56.2860   38.3830 C   0  0  0  0  0  3  0  0  0  0  0  0
   14.6320  -57.2330   37.4130 C   0  0  0  0  0  3  0  0  0  0  0  0
   18.7610  -57.0630   33.0010 C   0  0  0  0  0  0  0  0  0  0  0  0
   19.2020  -55.7740   32.9520 C   0  0  0  0  0  0  0  0  0  0  0  0
   19.7340  -55.2400   31.7650 C   0  0  0  0  0  3  0  0  0  0  0  0
   19.1720  -54.9240   34.1660 C   0  0  0  0  0  1  0  0  0  0  0  0
   19.8400  -55.9700   30.6120 C   0  0  0  0  0  0  0  0  0  0  0  0
   19.3960  -57.2740   30.6590 C   0  0  0  0  0  3  0  0  0  0  0  0
   18.8760  -57.8050   31.8100 C   0  0  0  0  0  3  0  0  0  0  0  0
   20.3680  -55.4450   29.4320 O   0  0  0  0  0  0  0  0  0  0  0  0
   19.9500  -55.9310   28.1820 C   0  0  0  0  0  1  0  0  0  0  0  0
   14.1890  -59.8250   35.2220 C   0  0  0  0  0  2  0  0  0  0  0  0
   14.5980  -60.9630   34.3410 C   0  0  0  0  0  2  0  0  0  0  0  0
   13.8060  -61.1410   33.1020 C   0  0  0  0  0  2  0  0  0  0  0  0
   14.5430  -61.0940   31.8890 N   0  0  0  0  0  4  0  0  0  0  0  0
   15.9550  -60.7190   32.0700 C   0  0  0  0  0  2  0  0  0  0  0  0
   16.4040  -60.1740   30.7130 C   0  0  0  0  0  2  0  0  0  0  0  0
   15.4890  -60.4520   29.7130 O   0  0  0  0  0  0  0  0  0  0  0  0
   15.1510  -61.8050   29.7080 C   0  0  0  0  0  2  0  0  0  0  0  0
   14.5270  -62.2350   31.0490 C   0  0  0  0  0  2  0  0  0  0  0  0
   14.1360  -60.2920   31.3160 H   0  0  0  0  0  0  0  0  0  0  0  0
  1 10  1  1  0  0  0
  2 26  1  0  0  0  0
  2  1  1  0  0  0  0
  3  2  1  0  0  0  0
  4  3  2  0  0  0  0
  5  3  1  0  0  0  0
  5  7  1  0  0  0  0
  6  5  2  0  0  0  0
  7  1  1  0  0  0  0
  8  7  2  0  0  0  0
  8  9  1  0  0  0  0
 10 11  2  0  0  0  0
 10 16  1  0  0  0  0
 11 12  1  0  0  0  0
 12 13  1  0  0  0  0
 12 14  2  0  0  0  0
 15 14  1  0  0  0  0
 16 15  2  0  0  0  0
 17  8  1  0  0  0  0
 18 17  1  0  0  0  0
 18 20  1  0  0  0  0
 19 18  2  0  0  0  0
 21 22  2  0  0  0  0
 21 19  1  0  0  0  0
 22 23  1  0  0  0  0
 23 17  2  0  0  0  0
 24 21  1  0  0  0  0
 25 24  1  0  0  0  0
 27 26  1  0  0  0  0
 28 27  1  0  0  0  0
 29 30  1  0  0  0  0
 29 28  1  0  0  0  0
 31 30  1  0  0  0  0
 32 31  1  0  0  0  0
 33 32  1  0  0  0  0
 33 34  1  0  0  0  0
 34 29  1  0  0  0  0
 35 29  1  0  0  0  0
M  END
>  <Pose>
1

>  <Score>
-9.487

$$$$
