MODEL 1
REMARK VINA RESULT:    -9.705      0.000      0.000
REMARK INTER + INTRA:         -14.479
REMARK INTER:                 -13.109
REMARK INTRA:                  -1.369
REMARK UNBOUND:                -1.369
REMARK  6 active torsions:
REMARK  status: ('A' for Active; 'I' for Inactive)
REMARK    1  A    between atoms: C_4  and  C_8 
REMARK    2  A    between atoms: N_9  and  C_28 
REMARK    3  A    between atoms: C_15  and  C_17 
REMARK    4  A    between atoms: C_28  and  C_29 
REMARK    5  A    between atoms: C_29  and  C_30 
REMARK    6  A    between atoms: C_30  and  N_31 
ROOT
ATOM      1  C   UNK d   1      16.095 -58.203  35.432  0.00  0.00     0.161 C 
ATOM      2  N   UNK d   1      14.781 -58.591  34.958  0.00  0.00    -0.332 N 
ATOM      3  C   UNK d   1      14.365 -57.629  33.965  0.00  0.00     0.295 C 
ATOM      4  O   UNK d   1      13.212 -57.345  33.619  0.00  0.00    -0.264 OA
ATOM      5  C   UNK d   1      15.610 -57.061  33.457  0.00  0.00     0.251 C 
ATOM      6  O   UNK d   1      15.767 -56.168  32.572  0.00  0.00    -0.282 OA
ATOM      7  C   UNK d   1      16.715 -57.700  34.154  0.00  0.00     0.064 C 
ATOM      8  C   UNK d   1      17.983 -57.784  33.787  0.00  0.00     0.149 C 
ATOM      9  O   UNK d   1      18.889 -58.414  34.687  0.00  0.00    -0.189 OA
ENDROOT
BRANCH   1  10
ATOM     10  C   UNK d   1      16.090 -57.146  36.453  0.00  0.00    -0.029 A 
ATOM     11  C   UNK d   1      16.955 -56.063  36.273  0.00  0.00     0.028 A 
ATOM     12  C   UNK d   1      16.997 -55.051  37.181  0.00  0.00     0.011 A 
ATOM     13 Br   UNK d   1      18.187 -53.580  36.915  0.00  0.00    -0.051 Br
ATOM     14  C   UNK d   1      16.193 -55.066  38.294  0.00  0.00     0.019 A 
ATOM     15  C   UNK d   1      15.330 -56.117  38.500  0.00  0.00     0.002 A 
ATOM     16  C   UNK d   1      15.288 -57.151  37.573  0.00  0.00     0.009 A 
ENDBRANCH   1  10
BRANCH   8  17
ATOM     17  C   UNK d   1      18.444 -57.271  32.521  0.00  0.00     0.102 A 
ATOM     18  N   UNK d   1      18.397 -57.863  31.309  0.00  0.00    -0.302 N 
ATOM     19  C   UNK d   1      18.910 -57.006  30.392  0.00  0.00     0.140 A 
ATOM     20  C   UNK d   1      17.985 -59.064  30.868  0.00  0.00     0.099 A 
ATOM     21  N   UNK d   1      19.289 -55.856  31.015  0.00  0.00    -0.233 NA
ATOM     22  C   UNK d   1      19.032 -57.279  29.054  0.00  0.00    -0.015 A 
ATOM     23  C   UNK d   1      18.998 -56.031  32.325  0.00  0.00     0.063 A 
ATOM     24  C   UNK d   1      19.252 -55.011  33.379  0.00  0.00     0.073 C 
ATOM     25  C   UNK d   1      18.606 -58.512  28.613  0.00  0.00     0.012 A 
ATOM     26  C   UNK d   1      19.603 -56.296  28.089  0.00  0.00     0.052 C 
ATOM     27  C   UNK d   1      18.085 -59.389  29.543  0.00  0.00     0.018 A 
ENDBRANCH   8  17
BRANCH   2  28
ATOM     28  C   UNK d   1      14.002 -59.737  35.396  0.00  0.00     0.129 C 
BRANCH  28  29
ATOM     29  C   UNK d   1      13.503 -60.599  34.287  0.00  0.00     0.048 C 
BRANCH  29  30
ATOM     30  C   UNK d   1      14.568 -61.094  33.341  0.00  0.00     0.235 C 
BRANCH  30  31
ATOM     31  N   UNK d   1      13.973 -61.426  32.068  0.00  0.00    -0.079 N 
ATOM     32  C   UNK d   1      14.945 -61.281  31.000  0.00  0.00     0.269 C 
ATOM     33  C   UNK d   1      13.590 -62.824  32.091  0.00  0.00     0.269 C 
ATOM     34  H   UNK d   1      13.100 -60.887  31.881  0.00  0.00     0.278 HD
ENDBRANCH  30  31
ENDBRANCH  29  30
ENDBRANCH  28  29
ENDBRANCH   2  28
TORSDOF 6
ENDMDL
