MODEL 1
REMARK VINA RESULT:    -9.820      0.000      0.000
REMARK INTER + INTRA:         -10.552
REMARK INTER:                 -10.394
REMARK INTRA:                  -0.159
REMARK UNBOUND:                -0.159
REMARK  1 active torsions:
REMARK  status: ('A' for Active; 'I' for Inactive)
REMARK    1  A    between atoms: C_5  and  C_8 
ROOT
ATOM      1  C   UNK d   1      17.474 -56.118  36.278  0.00  0.00     0.102 A 
ATOM      2  C   UNK d   1      17.673 -54.743  36.681  0.00  0.00     0.068 A 
ATOM      3  C   UNK d   1      16.854 -54.148  37.599  0.00  0.00     0.124 A 
ATOM      4  N   UNK d   1      15.776 -54.852  38.228  0.00  0.00    -0.343 N 
ATOM      5  C   UNK d   1      15.611 -56.210  37.839  0.00  0.00     0.048 A 
ATOM      6  C   UNK d   1      16.381 -56.801  36.968  0.00  0.00     0.055 A 
ATOM      7  C   UNK d   1      15.944 -58.225  36.830  0.00  0.00     0.292 A 
ATOM      8  O   UNK d   1      16.511 -59.047  36.049  0.00  0.00    -0.259 OA
ATOM      9  O   UNK d   1      14.893 -58.377  37.674  0.00  0.00    -0.312 OA
ATOM     10  C   UNK d   1      14.565 -57.197  38.326  0.00  0.00     0.237 A 
ATOM     11  N   UNK d   1      17.068 -52.838  37.946  0.00  0.00    -0.289 N 
ATOM     12  C   UNK d   1      18.069 -52.143  37.395  0.00  0.00     0.332 A 
ATOM     13  O   UNK d   1      18.249 -50.938  37.730  0.00  0.00    -0.246 OA
ATOM     14  N   UNK d   1      18.870 -52.736  36.494  0.00  0.00    -0.270 N 
ATOM     15  C   UNK d   1      18.729 -54.001  36.104  0.00  0.00     0.262 A 
ATOM     16  O   UNK d   1      19.473 -54.564  35.262  0.00  0.00    -0.267 OA
ATOM     17  C   UNK d   1      19.951 -51.936  35.919  0.00  0.00     0.164 C 
ATOM     18  C   UNK d   1      16.162 -52.262  38.928  0.00  0.00     0.163 C 
ATOM     19  H   UNK d   1      15.176 -54.364  38.917  0.00  0.00     0.167 HD
ENDROOT
BRANCH   1  20
ATOM     20  C   UNK d   1      17.487 -56.366  34.840  0.00  0.00    -0.045 A 
ATOM     21  C   UNK d   1      16.549 -55.844  34.001  0.00  0.00     0.009 A 
ATOM     22  C   UNK d   1      16.584 -56.106  32.620  0.00  0.00     0.019 A 
ATOM     23  C   UNK d   1      17.578 -56.898  32.108  0.00  0.00     0.011 A 
ATOM     24 Br   UNK d   1      17.668 -57.284  30.226  0.00  0.00    -0.051 Br
ATOM     25  C   UNK d   1      18.524 -57.427  32.937  0.00  0.00     0.019 A 
ATOM     26  C   UNK d   1      18.478 -57.159  34.317  0.00  0.00     0.009 A 
ENDBRANCH   1  20
TORSDOF 1
ENDMDL
