MODEL 1
REMARK VINA RESULT:    -8.367      0.000      0.000
REMARK INTER + INTRA:          -9.907
REMARK INTER:                  -9.345
REMARK INTRA:                  -0.562
REMARK UNBOUND:                -0.562
REMARK  2 active torsions:
REMARK  status: ('A' for Active; 'I' for Inactive)
REMARK    1  A    between atoms: C_3  and  N_11 
REMARK    2  A    between atoms: C_6  and  N_8 
ROOT
ATOM      1  N   UNK d   1      17.303 -57.068  34.185  0.00  0.00    -0.250 N 
ATOM      2  C   UNK d   1      18.315 -58.009  33.877  0.00  0.00     0.239 C 
ATOM      3  O   UNK d   1      19.028 -58.629  34.693  0.00  0.00    -0.272 OA
ATOM      4  C   UNK d   1      18.435 -58.177  32.413  0.00  0.00     0.127 C 
ATOM      5  C   UNK d   1      19.546 -57.256  31.959  0.00  0.00     0.159 C 
ATOM      6  O   UNK d   1      18.882 -56.005  32.063  0.00  0.00    -0.371 OA
ATOM      7  C   UNK d   1      17.848 -56.302  31.137  0.00  0.00     0.159 C 
ATOM      8  C   UNK d   1      17.211 -57.479  31.827  0.00  0.00     0.127 C 
ATOM      9  C   UNK d   1      16.485 -56.978  33.016  0.00  0.00     0.239 C 
ATOM     10  O   UNK d   1      15.295 -56.525  33.007  0.00  0.00    -0.272 OA
ATOM     11  C   UNK d   1      18.664 -56.707  29.973  0.00  0.00     0.004 C 
ATOM     12  C   UNK d   1      19.719 -57.334  30.487  0.00  0.00     0.004 C 
ENDROOT
BRANCH   1  13
ATOM     13  C   UNK d   1      17.058 -56.321  35.367  0.00  0.00     0.062 A 
ATOM     14  C   UNK d   1      16.312 -56.832  36.404  0.00  0.00     0.040 A 
ATOM     15 Br   UNK d   1      15.630 -58.608  36.178  0.00  0.00    -0.049 Br
ATOM     16  C   UNK d   1      16.052 -56.118  37.571  0.00  0.00     0.057 A 
ATOM     17  C   UNK d   1      16.545 -54.838  37.735  0.00  0.00     0.104 A 
ATOM     18  C   UNK d   1      17.297 -54.323  36.691  0.00  0.00     0.038 A 
ATOM     19  C   UNK d   1      17.554 -55.028  35.539  0.00  0.00     0.034 A 
BRANCH  17  20
ATOM     20  N   UNK d   1      16.294 -54.084  38.914  0.00  0.00    -0.116 N 
ATOM     21  O   UNK d   1      17.240 -53.457  39.423  0.00  0.00    -0.532 OA
ATOM     22  O   UNK d   1      15.076 -53.999  39.529  0.00  0.00    -0.532 OA
ENDBRANCH  17  20
ENDBRANCH   1  13
TORSDOF 2
ENDMDL
