/Users/jonathanwahrer/Desktop/Msc/3_Semester/Drug_Design_Praktikum/waehrer_HTS_screening/HTS_experiment/out/docking_results/vina_output/6s1j/1300_docked.pdbqt
 OpenBabel03222222003D

 22 25  0  0  1  0  0  0  0  0999 V2000
   17.3030  -57.0680   34.1850 N   0  0  0  0  0  0  0  0  0  0  0  0
   18.3150  -58.0090   33.8770 C   0  0  0  0  0  0  0  0  0  0  0  0
   19.0280  -58.6290   34.6930 O   0  0  0  0  0  0  0  0  0  0  0  0
   18.4350  -58.1770   32.4130 C   0  0  2  0  0  3  0  0  0  0  0  0
   19.5460  -57.2560   31.9590 C   0  0  2  0  0  3  0  0  0  0  0  0
   18.8820  -56.0050   32.0630 O   0  0  0  0  0  0  0  0  0  0  0  0
   17.8480  -56.3020   31.1370 C   0  0  2  0  0  3  0  0  0  0  0  0
   17.2110  -57.4790   31.8270 C   0  0  2  0  0  3  0  0  0  0  0  0
   16.4850  -56.9780   33.0160 C   0  0  0  0  0  0  0  0  0  0  0  0
   15.2950  -56.5250   33.0070 O   0  0  0  0  0  0  0  0  0  0  0  0
   18.6640  -56.7070   29.9730 C   0  0  0  0  0  2  0  0  0  0  0  0
   19.7190  -57.3340   30.4870 C   0  0  0  0  0  2  0  0  0  0  0  0
   17.0580  -56.3210   35.3670 C   0  0  0  0  0  0  0  0  0  0  0  0
   16.3120  -56.8320   36.4040 C   0  0  0  0  0  0  0  0  0  0  0  0
   15.6300  -58.6080   36.1780 Br  0  0  0  0  0  0  0  0  0  0  0  0
   16.0520  -56.1180   37.5710 C   0  0  0  0  0  3  0  0  0  0  0  0
   16.5450  -54.8380   37.7350 C   0  0  0  0  0  0  0  0  0  0  0  0
   17.2970  -54.3230   36.6910 C   0  0  0  0  0  3  0  0  0  0  0  0
   17.5540  -55.0280   35.5390 C   0  0  0  0  0  3  0  0  0  0  0  0
   16.2940  -54.0840   38.9140 N   0  0  0  0  0  0  0  0  0  0  0  0
   17.2400  -53.4570   39.4230 O   0  0  0  0  0  0  0  0  0  0  0  0
   15.0760  -53.9990   39.5290 O   0  0  0  0  0  0  0  0  0  0  0  0
  1 13  1  0  0  0  0
  2  1  1  0  0  0  0
  2  3  2  0  0  0  0
  4  2  1  1  0  0  0
  5 12  1  6  0  0  0
  5  6  1  0  0  0  0
  5  4  1  0  0  0  0
  7 11  1  6  0  0  0
  7  8  1  0  0  0  0
  7  6  1  0  0  0  0
  8  4  1  0  0  0  0
  8  9  1  1  0  0  0
  9  1  1  0  0  0  0
 10  9  2  0  0  0  0
 11 12  1  0  0  0  0
 13 19  2  0  0  0  0
 13 14  1  0  0  0  0
 14 16  2  0  0  0  0
 15 14  1  0  0  0  0
 16 17  1  0  0  0  0
 17 20  1  0  0  0  0
 18 17  2  0  0  0  0
 19 18  1  0  0  0  0
 20 21  2  0  0  0  0
 20 22  2  0  0  0  0
M  END
>  <Pose>
1

>  <Score>
-8.367

$$$$
