/Users/jonathanwahrer/Desktop/Msc/3_Semester/Drug_Design_Praktikum/waehrer_HTS_screening/HTS_experiment/out/docking_results/vina_output/6s1j/1310_docked.pdbqt
 OpenBabel03222222003D

 32 35  0  0  1  0  0  0  0  0999 V2000
   16.1130  -58.1900   35.5130 C   0  0  1  0  0  3  0  0  0  0  0  0
   14.7950  -58.5600   35.0450 N   0  0  0  0  0  0  0  0  0  0  0  0
   14.4460  -57.6350   34.0290 C   0  0  0  0  0  0  0  0  0  0  0  0
   13.2960  -57.2750   33.6720 O   0  0  0  0  0  0  0  0  0  0  0  0
   15.7090  -57.1660   33.4590 C   0  0  0  0  0  0  0  0  0  0  0  0
   15.9010  -56.3410   32.5370 O   0  0  0  0  0  0  0  0  0  0  0  0
   16.7640  -57.8740   34.2030 C   0  0  0  0  0  0  0  0  0  0  0  0
   17.9800  -58.1050   33.7640 C   0  0  0  0  0  0  0  0  0  0  0  0
   18.8590  -58.7550   34.6400 O   0  0  0  0  0  1  0  0  0  0  0  0
   16.1260  -57.0730   36.4620 C   0  0  0  0  0  0  0  0  0  0  0  0
   16.9450  -55.9750   36.3780 C   0  0  0  0  0  3  0  0  0  0  0  0
   16.9120  -54.9340   37.3080 C   0  0  0  0  0  0  0  0  0  0  0  0
   18.0950  -53.4290   37.1230 Br  0  0  0  0  0  0  0  0  0  0  0  0
   16.0280  -54.9860   38.3640 C   0  0  0  0  0  3  0  0  0  0  0  0
   15.1930  -56.0770   38.4720 C   0  0  0  0  0  3  0  0  0  0  0  0
   15.2370  -57.0960   37.5490 C   0  0  0  0  0  3  0  0  0  0  0  0
   18.4240  -57.7160   32.4100 C   0  0  0  0  0  0  0  0  0  0  0  0
   18.1840  -58.2980   31.2730 O   0  0  0  0  0  0  0  0  0  0  0  0
   18.7460  -57.6570   30.2730 C   0  0  0  0  0  0  0  0  0  0  0  0
   19.4190  -56.5530   30.7700 C   0  0  0  0  0  0  0  0  0  0  0  0
   18.7860  -57.8680   28.9060 C   0  0  0  0  0  3  0  0  0  0  0  0
   19.2020  -56.6070   32.1330 C   0  0  0  0  0  3  0  0  0  0  0  0
   20.0980  -55.7080   29.9180 C   0  0  0  0  0  3  0  0  0  0  0  0
   20.1370  -55.9160   28.5580 C   0  0  0  0  0  3  0  0  0  0  0  0
   19.4730  -57.0100   28.0490 C   0  0  0  0  0  3  0  0  0  0  0  0
   13.9270  -59.6620   35.4530 C   0  0  0  0  0  2  0  0  0  0  0  0
   13.7970  -60.6780   34.3330 C   0  0  0  0  0  2  0  0  0  0  0  0
   15.0920  -61.3870   34.0390 C   0  0  0  0  0  2  0  0  0  0  0  0
   15.6130  -60.9400   32.7870 N   0  0  0  0  0  4  0  0  0  0  0  0
   16.9070  -61.5040   32.4700 C   0  0  0  0  0  1  0  0  0  0  0  0
   14.7570  -61.1470   31.6580 C   0  0  0  0  0  1  0  0  0  0  0  0
   15.7670  -59.8910   32.8690 H   0  0  0  0  0  0  0  0  0  0  0  0
  1 10  1  1  0  0  0
  2 26  1  0  0  0  0
  2  1  1  0  0  0  0
  3  2  1  0  0  0  0
  4  3  2  0  0  0  0
  5  3  1  0  0  0  0
  5  7  1  0  0  0  0
  6  5  2  0  0  0  0
  7  1  1  0  0  0  0
  8  7  2  0  0  0  0
  8  9  1  0  0  0  0
 10 16  1  0  0  0  0
 11 10  2  0  0  0  0
 11 12  1  0  0  0  0
 12 14  2  0  0  0  0
 13 12  1  0  0  0  0
 14 15  1  0  0  0  0
 16 15  2  0  0  0  0
 17  8  1  0  0  0  0
 18 17  1  0  0  0  0
 19 20  1  0  0  0  0
 19 18  1  0  0  0  0
 20 22  1  0  0  0  0
 21 19  2  0  0  0  0
 22 17  2  0  0  0  0
 23 20  2  0  0  0  0
 24 23  1  0  0  0  0
 25 24  2  0  0  0  0
 25 21  1  0  0  0  0
 27 26  1  0  0  0  0
 28 27  1  0  0  0  0
 29 32  1  0  0  0  0
 29 28  1  0  0  0  0
 30 29  1  0  0  0  0
 31 29  1  0  0  0  0
M  END
>  <Pose>
1

>  <Score>
-9.058

$$$$
