MODEL 1
REMARK VINA RESULT:    -9.058      0.000      0.000
REMARK INTER + INTRA:         -13.811
REMARK INTER:                 -12.235
REMARK INTRA:                  -1.576
REMARK UNBOUND:                -1.576
REMARK  6 active torsions:
REMARK  status: ('A' for Active; 'I' for Inactive)
REMARK    1  A    between atoms: C_4  and  C_8 
REMARK    2  A    between atoms: N_9  and  C_26 
REMARK    3  A    between atoms: C_15  and  C_17 
REMARK    4  A    between atoms: C_26  and  C_27 
REMARK    5  A    between atoms: C_27  and  C_28 
REMARK    6  A    between atoms: C_28  and  N_29 
ROOT
ATOM      1  C   UNK d   1      16.113 -58.190  35.513  0.00  0.00     0.161 C 
ATOM      2  N   UNK d   1      14.795 -58.560  35.045  0.00  0.00    -0.332 N 
ATOM      3  C   UNK d   1      14.446 -57.635  34.029  0.00  0.00     0.295 C 
ATOM      4  O   UNK d   1      13.296 -57.275  33.672  0.00  0.00    -0.264 OA
ATOM      5  C   UNK d   1      15.709 -57.166  33.459  0.00  0.00     0.251 C 
ATOM      6  O   UNK d   1      15.901 -56.341  32.537  0.00  0.00    -0.282 OA
ATOM      7  C   UNK d   1      16.764 -57.874  34.203  0.00  0.00     0.064 C 
ATOM      8  C   UNK d   1      17.980 -58.105  33.764  0.00  0.00     0.153 C 
ATOM      9  O   UNK d   1      18.859 -58.755  34.640  0.00  0.00    -0.188 OA
ENDROOT
BRANCH   1  10
ATOM     10  C   UNK d   1      16.126 -57.073  36.462  0.00  0.00    -0.029 A 
ATOM     11  C   UNK d   1      16.945 -55.975  36.378  0.00  0.00     0.028 A 
ATOM     12  C   UNK d   1      16.912 -54.934  37.308  0.00  0.00     0.011 A 
ATOM     13 Br   UNK d   1      18.095 -53.429  37.123  0.00  0.00    -0.051 Br
ATOM     14  C   UNK d   1      16.028 -54.986  38.364  0.00  0.00     0.019 A 
ATOM     15  C   UNK d   1      15.193 -56.077  38.472  0.00  0.00     0.002 A 
ATOM     16  C   UNK d   1      15.237 -57.096  37.549  0.00  0.00     0.009 A 
ENDBRANCH   1  10
BRANCH   8  17
ATOM     17  C   UNK d   1      18.424 -57.716  32.410  0.00  0.00     0.114 A 
ATOM     18  O   UNK d   1      18.184 -58.298  31.273  0.00  0.00    -0.307 OA
ATOM     19  C   UNK d   1      18.746 -57.657  30.273  0.00  0.00     0.086 A 
ATOM     20  C   UNK d   1      19.419 -56.553  30.770  0.00  0.00     0.001 A 
ATOM     21  C   UNK d   1      18.786 -57.868  28.906  0.00  0.00     0.038 A 
ATOM     22  C   UNK d   1      19.202 -56.607  32.133  0.00  0.00     0.054 A 
ATOM     23  C   UNK d   1      20.098 -55.708  29.918  0.00  0.00     0.014 A 
ATOM     24  C   UNK d   1      20.137 -55.916  28.558  0.00  0.00     0.001 A 
ATOM     25  C   UNK d   1      19.473 -57.010  28.049  0.00  0.00     0.003 A 
ENDBRANCH   8  17
BRANCH   2  26
ATOM     26  C   UNK d   1      13.927 -59.662  35.453  0.00  0.00     0.129 C 
BRANCH  26  27
ATOM     27  C   UNK d   1      13.797 -60.678  34.333  0.00  0.00     0.048 C 
BRANCH  27  28
ATOM     28  C   UNK d   1      15.092 -61.387  34.039  0.00  0.00     0.235 C 
BRANCH  28  29
ATOM     29  N   UNK d   1      15.613 -60.940  32.787  0.00  0.00    -0.079 N 
ATOM     30  C   UNK d   1      16.907 -61.504  32.470  0.00  0.00     0.269 C 
ATOM     31  C   UNK d   1      14.757 -61.147  31.658  0.00  0.00     0.269 C 
ATOM     32  H   UNK d   1      15.767 -59.891  32.869  0.00  0.00     0.278 HD
ENDBRANCH  28  29
ENDBRANCH  27  28
ENDBRANCH  26  27
ENDBRANCH   2  26
TORSDOF 6
ENDMDL
