MODEL 1
REMARK VINA RESULT:    -9.030      0.000      0.000
REMARK INTER + INTRA:         -13.543
REMARK INTER:                 -12.462
REMARK INTRA:                  -1.081
REMARK UNBOUND:                -1.081
REMARK  7 active torsions:
REMARK  status: ('A' for Active; 'I' for Inactive)
REMARK    1  A    between atoms: C_4  and  C_8 
REMARK    2  A    between atoms: C_8  and  C_10 
REMARK    3  A    between atoms: C_10  and  N_11 
REMARK    4  A    between atoms: N_18  and  C_21 
REMARK    5  A    between atoms: C_19  and  N_20 
REMARK    6  A    between atoms: C_21  and  C_22 
REMARK    7  A    between atoms: C_22  and  N_23 
ROOT
ATOM      1  N   UNK d   1      19.241 -55.075  33.851  0.00  0.00    -0.175 N 
ATOM      2  C   UNK d   1      18.093 -55.826  33.908  0.00  0.00     0.079 A 
ATOM      3  C   UNK d   1      17.752 -56.109  32.617  0.00  0.00     0.079 A 
ATOM      4  C   UNK d   1      16.605 -56.867  32.361  0.00  0.00     0.032 A 
ATOM      5  C   UNK d   1      15.839 -57.315  33.415  0.00  0.00     0.002 A 
ATOM      6  C   UNK d   1      16.181 -57.032  34.720  0.00  0.00     0.002 A 
ATOM      7  C   UNK d   1      17.329 -56.274  34.964  0.00  0.00     0.032 A 
ATOM      8  N   UNK d   1      18.678 -55.544  31.811  0.00  0.00    -0.179 N 
ATOM      9  C   UNK d   1      19.594 -54.911  32.547  0.00  0.00     0.681 A 
ENDROOT
BRANCH   1  10
ATOM     10  C   UNK d   1      19.970 -54.616  35.013  0.00  0.00     0.216 C 
BRANCH  10  11
ATOM     11  C   UNK d   1      19.534 -53.306  35.511  0.00  0.00     0.113 C 
ATOM     12  O   UNK d   1      20.113 -52.265  34.958  0.00  0.00    -0.194 OA
BRANCH  11  13
ATOM     13  C   UNK d   1      18.562 -52.960  36.516  0.00  0.00    -0.001 A 
ATOM     14  C   UNK d   1      17.612 -53.794  37.031  0.00  0.00     0.033 A 
ATOM     15  C   UNK d   1      16.732 -53.397  37.997  0.00  0.00     0.011 A 
ATOM     16 Br   UNK d   1      15.408 -54.621  38.702  0.00  0.00    -0.051 Br
ATOM     17  C   UNK d   1      16.788 -52.111  38.482  0.00  0.00     0.019 A 
ATOM     18  C   UNK d   1      17.723 -51.223  38.004  0.00  0.00     0.002 A 
ATOM     19  C   UNK d   1      18.588 -51.657  37.038  0.00  0.00     0.014 A 
ENDBRANCH  11  13
ENDBRANCH  10  11
ENDBRANCH   1  10
BRANCH   9  20
ATOM     20  N   UNK d   1      20.682 -54.332  32.092  0.00  0.00    -0.234 N 
ATOM     21  H   UNK d   1      21.492 -54.130  32.671  0.00  0.00     0.174 HD
ATOM     22  H   UNK d   1      20.704 -54.041  31.105  0.00  0.00     0.174 HD
ENDBRANCH   9  20
BRANCH   8  23
ATOM     23  C   UNK d   1      18.629 -55.694  30.367  0.00  0.00     0.178 C 
BRANCH  23  24
ATOM     24  C   UNK d   1      19.596 -56.641  29.784  0.00  0.00     0.293 C 
BRANCH  24  25
ATOM     25  N   UNK d   1      20.230 -56.322  28.556  0.00  0.00     0.094 N 
ATOM     26  C   UNK d   1      20.777 -57.548  27.920  0.00  0.00     0.298 C 
ATOM     27  C   UNK d   1      21.712 -58.281  28.825  0.00  0.00     0.198 C 
ATOM     28  O   UNK d   1      22.842 -57.476  28.982  0.00  0.00    -0.388 OA
ATOM     29  C   UNK d   1      22.523 -56.243  29.493  0.00  0.00     0.198 C 
ATOM     30  C   UNK d   1      21.441 -55.506  28.751  0.00  0.00     0.298 C 
ENDBRANCH  24  25
ENDBRANCH  23  24
ENDBRANCH   8  23
TORSDOF 7
ENDMDL
