/Users/jonathanwahrer/Desktop/Msc/3_Semester/Drug_Design_Praktikum/waehrer_HTS_screening/HTS_experiment/out/docking_results/vina_output/6s1j/1315_docked.pdbqt
 OpenBabel03222222013D

 30 33  0  0  1  0  0  0  0  0999 V2000
   19.2410  -55.0750   33.8510 N   0  0  0  0  0  0  0  0  0  0  0  0
   18.0930  -55.8260   33.9080 C   0  0  0  0  0  0  0  0  0  0  0  0
   17.7520  -56.1090   32.6170 C   0  0  0  0  0  0  0  0  0  0  0  0
   16.6050  -56.8670   32.3610 C   0  0  0  0  0  3  0  0  0  0  0  0
   15.8390  -57.3150   33.4150 C   0  0  0  0  0  3  0  0  0  0  0  0
   16.1810  -57.0320   34.7200 C   0  0  0  0  0  3  0  0  0  0  0  0
   17.3290  -56.2740   34.9640 C   0  0  0  0  0  3  0  0  0  0  0  0
   18.6780  -55.5440   31.8110 N   0  0  0  0  0  0  0  0  0  0  0  0
   19.5940  -54.9110   32.5470 C   0  0  2  0  0  3  0  0  0  0  0  0
   19.9700  -54.6160   35.0130 C   0  0  0  0  0  2  0  0  0  0  0  0
   19.5340  -53.3060   35.5110 C   0  0  1  0  0  3  0  0  0  0  0  0
   20.1130  -52.2650   34.9580 O   0  0  0  0  0  1  0  0  0  0  0  0
   18.5620  -52.9600   36.5160 C   0  0  0  0  0  0  0  0  0  0  0  0
   17.6120  -53.7940   37.0310 C   0  0  0  0  0  3  0  0  0  0  0  0
   16.7320  -53.3970   37.9970 C   0  0  0  0  0  0  0  0  0  0  0  0
   15.4080  -54.6210   38.7020 Br  0  0  0  0  0  0  0  0  0  0  0  0
   16.7880  -52.1110   38.4820 C   0  0  0  0  0  3  0  0  0  0  0  0
   17.7230  -51.2230   38.0040 C   0  0  0  0  0  3  0  0  0  0  0  0
   18.5880  -51.6570   37.0380 C   0  0  0  0  0  3  0  0  0  0  0  0
   20.6820  -54.3320   32.0920 N   0  0  0  0  0  0  0  0  0  0  0  0
   21.4920  -54.1300   32.6710 H   0  0  0  0  0  0  0  0  0  0  0  0
   20.7040  -54.0410   31.1050 H   0  0  0  0  0  0  0  0  0  0  0  0
   18.6290  -55.6940   30.3670 C   0  0  0  0  0  2  0  0  0  0  0  0
   19.5960  -56.6410   29.7840 C   0  0  0  0  0  2  0  0  0  0  0  0
   20.2300  -56.3220   28.5560 N   0  0  0  0  0  0  0  0  0  0  0  0
   20.7770  -57.5480   27.9200 C   0  0  0  0  0  2  0  0  0  0  0  0
   21.7120  -58.2810   28.8250 C   0  0  0  0  0  2  0  0  0  0  0  0
   22.8420  -57.4760   28.9820 O   0  0  0  0  0  0  0  0  0  0  0  0
   22.5230  -56.2430   29.4930 C   0  0  0  0  0  2  0  0  0  0  0  0
   21.4410  -55.5060   28.7510 C   0  0  0  0  0  2  0  0  0  0  0  0
  1  2  1  0  0  0  0
  1 10  1  0  0  0  0
  2  7  1  0  0  0  0
  3  2  2  0  0  0  0
  4  3  1  0  0  0  0
  4  5  2  0  0  0  0
  5  6  1  0  0  0  0
  6  7  2  0  0  0  0
  8  9  1  0  0  0  0
  8  3  1  0  0  0  0
  9 20  1  1  0  0  0
  9  1  1  0  0  0  0
 10 11  1  0  0  0  0
 11 12  1  6  0  0  0
 11 13  1  0  0  0  0
 13 14  2  0  0  0  0
 13 19  1  0  0  0  0
 14 15  1  0  0  0  0
 15 17  2  0  0  0  0
 15 16  1  0  0  0  0
 18 17  1  0  0  0  0
 19 18  2  0  0  0  0
 20 21  1  0  0  0  0
 22 20  1  0  0  0  0
 23  8  1  0  0  0  0
 24 23  1  0  0  0  0
 25 30  1  0  0  0  0
 25 24  1  0  0  0  0
 26 25  1  0  0  0  0
 26 27  1  0  0  0  0
 27 28  1  0  0  0  0
 28 29  1  0  0  0  0
 30 29  1  0  0  0  0
M  END
>  <Pose>
1

>  <Score>
-9.030

$$$$
