MODEL 1
REMARK VINA RESULT:   -11.242      0.000      0.000
REMARK INTER + INTRA:         -13.639
REMARK INTER:                 -13.214
REMARK INTRA:                  -0.425
REMARK UNBOUND:                -0.425
REMARK  3 active torsions:
REMARK  status: ('A' for Active; 'I' for Inactive)
REMARK    1  A    between atoms: C_4  and  C_8 
REMARK    2  A    between atoms: C_16  and  C_17 
REMARK    3  A    between atoms: C_17  and  N_18 
ROOT
ATOM      1  C   UNK d   1      15.429 -54.945  38.677  0.00  0.00     0.053 C 
ATOM      2  C   UNK d   1      16.343 -54.148  38.121  0.00  0.00     0.127 A 
ATOM      3  O   UNK d   1      17.200 -54.457  37.067  0.00  0.00    -0.305 OA
ATOM      4  C   UNK d   1      17.995 -53.388  36.760  0.00  0.00     0.101 A 
ATOM      5  C   UNK d   1      17.704 -52.315  37.596  0.00  0.00     0.051 A 
ATOM      6  C   UNK d   1      18.413 -51.137  37.423  0.00  0.00     0.021 A 
ATOM      7  C   UNK d   1      19.376 -51.046  36.444  0.00  0.00     0.041 A 
ATOM      8  C   UNK d   1      19.641 -52.144  35.623  0.00  0.00     0.118 A 
ATOM      9  C   UNK d   1      18.957 -53.321  35.773  0.00  0.00     0.039 A 
ATOM     10  O   UNK d   1      20.628 -51.952  34.668  0.00  0.00    -0.191 OA
ATOM     11  C   UNK d   1      16.632 -52.767  38.500  0.00  0.00     0.218 A 
ATOM     12  O   UNK d   1      16.112 -52.063  39.404  0.00  0.00    -0.284 OA
ENDROOT
BRANCH   9  13
ATOM     13  C   UNK d   1      19.328 -54.467  34.941  0.00  0.00     0.279 C 
BRANCH  13  14
ATOM     14  N   UNK d   1      18.266 -55.151  34.298  0.00  0.00    -0.064 N 
ATOM     15  C   UNK d   1      18.500 -56.580  34.427  0.00  0.00     0.265 C 
ATOM     16  C   UNK d   1      18.144 -57.392  33.230  0.00  0.00     0.299 C 
ATOM     17  N   UNK d   1      18.654 -56.913  31.994  0.00  0.00     0.087 N 
ATOM     18  C   UNK d   1      19.128 -55.572  32.096  0.00  0.00     0.299 C 
ATOM     19  C   UNK d   1      17.654 -57.064  30.958  0.00  0.00     0.310 C 
ATOM     20  C   UNK d   1      18.180 -54.759  32.911  0.00  0.00     0.265 C 
ATOM     21  H   UNK d   1      17.313 -54.912  34.707  0.00  0.00     0.280 HD
ENDBRANCH  13  14
ENDBRANCH   9  13
BRANCH   1  22
ATOM     22  C   UNK d   1      15.230 -56.300  38.202  0.00  0.00    -0.032 A 
ATOM     23  C   UNK d   1      14.123 -57.028  38.578  0.00  0.00     0.030 A 
ATOM     24  C   UNK d   1      13.950 -58.334  38.125  0.00  0.00     0.011 A 
ATOM     25 Br   UNK d   1      12.420 -59.348  38.654  0.00  0.00    -0.051 Br
ATOM     26  C   UNK d   1      14.899 -58.905  37.291  0.00  0.00     0.019 A 
ATOM     27  C   UNK d   1      15.992 -58.145  36.940  0.00  0.00     0.002 A 
ATOM     28  C   UNK d   1      16.177 -56.854  37.377  0.00  0.00     0.011 A 
ENDBRANCH   1  22
TORSDOF 3
ENDMDL
