MODEL 1
REMARK VINA RESULT:    -9.808      0.000      0.000
REMARK INTER + INTRA:         -12.609
REMARK INTER:                 -12.101
REMARK INTRA:                  -0.508
REMARK UNBOUND:                -0.508
REMARK  4 active torsions:
REMARK  status: ('A' for Active; 'I' for Inactive)
REMARK    1  A    between atoms: C_5  and  N_8 
REMARK       I    between atoms: N_8  and  C_9 
REMARK    2  A    between atoms: C_9  and  C_11 
REMARK    3  A    between atoms: C_11  and  N_12 
REMARK       I    between atoms: N_12  and  C_13 
REMARK    4  A    between atoms: C_13  and  C_15 
ROOT
ATOM      1  C   UNK d   1      14.921 -58.795  36.410  0.00  0.00     0.248 C 
ATOM      2  O   UNK d   1      16.049 -58.399  35.795  0.00  0.00    -0.341 OA
ATOM      3  C   UNK d   1      16.348 -58.927  34.578  0.00  0.00     0.296 C 
ATOM      4  O   UNK d   1      17.340 -58.124  33.997  0.00  0.00    -0.323 OA
ATOM      5  C   UNK d   1      16.706 -57.128  33.294  0.00  0.00     0.160 C 
ATOM      6  O   UNK d   1      15.356 -57.409  33.246  0.00  0.00    -0.343 OA
ATOM      7  C   UNK d   1      15.239 -58.783  33.562  0.00  0.00     0.212 C 
ATOM      8  C   UNK d   1      13.910 -59.122  34.119  0.00  0.00     0.191 C 
ATOM      9  O   UNK d   1      13.420 -60.334  33.581  0.00  0.00    -0.345 OA
ATOM     10  C   UNK d   1      12.867 -61.048  34.613  0.00  0.00     0.158 C 
ATOM     11  O   UNK d   1      13.594 -60.677  35.714  0.00  0.00    -0.345 OA
ATOM     12  C   UNK d   1      13.806 -59.298  35.572  0.00  0.00     0.195 C 
ATOM     13  C   UNK d   1      13.067 -62.532  34.283  0.00  0.00     0.078 C 
ATOM     14  C   UNK d   1      11.381 -60.846  34.756  0.00  0.00     0.078 C 
ATOM     15  C   UNK d   1      17.189 -57.058  31.845  0.00  0.00     0.078 C 
ATOM     16  C   UNK d   1      16.947 -55.751  33.891  0.00  0.00     0.078 C 
ENDROOT
BRANCH   1  17
ATOM     17  C   UNK d   1      14.460 -57.708  37.313  0.00  0.00     0.249 C 
ATOM     18  N   UNK d   1      15.302 -57.249  38.356  0.00  0.00    -0.350 N 
ATOM     19  H   UNK d   1      16.238 -57.695  38.463  0.00  0.00     0.163 HD
ATOM     20  O   UNK d   1      13.329 -57.165  37.190  0.00  0.00    -0.271 OA
BRANCH  18  21
ATOM     21  C   UNK d   1      14.938 -56.209  39.271  0.00  0.00     0.225 C 
BRANCH  21  22
ATOM     22  C   UNK d   1      15.623 -54.935  38.932  0.00  0.00     0.239 C 
ATOM     23  N   UNK d   1      16.755 -54.881  38.099  0.00  0.00    -0.326 N 
ATOM     24  H   UNK d   1      17.088 -55.829  37.727  0.00  0.00     0.169 HD
ATOM     25  O   UNK d   1      15.140 -53.897  39.426  0.00  0.00    -0.271 OA
BRANCH  23  26
ATOM     26  C   UNK d   1      17.491 -53.771  37.699  0.00  0.00     0.034 A 
ATOM     27  C   UNK d   1      18.538 -53.935  36.802  0.00  0.00     0.031 A 
ATOM     28  C   UNK d   1      19.324 -52.901  36.347  0.00  0.00     0.021 A 
ATOM     29  C   UNK d   1      19.083 -51.619  36.788  0.00  0.00     0.011 A 
ATOM     30 Br   UNK d   1      20.192 -50.199  36.138  0.00  0.00    -0.051 Br
ATOM     31  C   UNK d   1      18.068 -51.412  37.667  0.00  0.00     0.021 A 
ATOM     32  C   UNK d   1      17.276 -52.478  38.121  0.00  0.00     0.031 A 
ENDBRANCH  23  26
ENDBRANCH  21  22
ENDBRANCH  18  21
ENDBRANCH   1  17
TORSDOF 4
ENDMDL
