/Users/jonathanwahrer/Desktop/Msc/3_Semester/Drug_Design_Praktikum/waehrer_HTS_screening/HTS_experiment/out/docking_results/vina_output/6s1j/1343_docked.pdbqt
 OpenBabel03222222033D

 41 44  0  0  1  0  0  0  0  0999 V2000
   16.2180  -56.1290   37.0260 C   0  0  0  0  0  0  0  0  0  0  0  0
   17.1040  -55.4320   36.2690 N   0  0  0  0  0  0  0  0  0  0  0  0
   17.3180  -54.2240   36.8510 C   0  0  0  0  0  0  0  0  0  0  0  0
   18.0740  -53.1630   36.5480 N   0  0  0  0  0  0  0  0  0  0  0  0
   18.1040  -52.0610   37.3180 C   0  0  0  0  0  0  0  0  0  0  0  0
   17.3450  -52.0230   38.4350 N   0  0  0  0  0  0  0  0  0  0  0  0
   16.5700  -53.0390   38.7990 C   0  0  0  0  0  0  0  0  0  0  0  0
   16.5440  -54.1680   38.0040 C   0  0  0  0  0  0  0  0  0  0  0  0
   15.9080  -55.3250   38.0650 N   0  0  0  0  0  0  0  0  0  0  0  0
   15.7330  -57.4390   36.7600 N   0  0  0  0  0  0  0  0  0  0  0  0
   16.3250  -58.1030   36.2370 H   0  0  0  0  0  0  0  0  0  0  0  0
   14.4470  -57.7650   37.2330 N   0  0  0  0  0  0  0  0  0  0  0  0
   14.1020  -58.9340   37.5870 C   0  0  0  0  0  3  0  0  0  0  0  0
   12.7800  -59.3020   38.0810 C   0  0  0  0  0  0  0  0  0  0  0  0
   11.7930  -59.7290   37.2190 C   0  0  0  0  0  0  0  0  0  0  0  0
   12.1870  -59.8320   35.3620 Br  0  0  0  0  0  0  0  0  0  0  0  0
   10.5240  -60.0830   37.6850 C   0  0  0  0  0  3  0  0  0  0  0  0
   10.2130  -60.0170   39.0260 C   0  0  0  0  0  0  0  0  0  0  0  0
   11.2000  -59.5890   39.8890 C   0  0  0  0  0  0  0  0  0  0  0  0
   12.4490  -59.2430   39.4180 C   0  0  0  0  0  3  0  0  0  0  0  0
    8.9510  -60.3660   39.5090 O   0  0  0  0  0  0  0  0  0  0  0  0
    7.8450  -59.5170   39.4510 C   0  0  0  0  0  1  0  0  0  0  0  0
   10.8740  -59.5270   41.2400 O   0  0  0  0  0  0  0  0  0  0  0  0
   11.3540  -60.4020   42.2110 C   0  0  0  0  0  1  0  0  0  0  0  0
   17.7080  -55.8970   35.0580 C   0  0  2  0  0  3  0  0  0  0  0  0
   18.9790  -55.3870   34.8300 O   0  0  0  0  0  0  0  0  0  0  0  0
   19.2460  -55.4680   33.4930 C   0  0  1  0  0  3  0  0  0  0  0  0
   17.9950  -55.7780   32.7440 C   0  0  2  0  0  3  0  0  0  0  0  0
   16.9220  -55.5510   33.8100 C   0  0  1  0  0  3  0  0  0  0  0  0
   19.7440  -54.1000   33.0210 C   0  0  0  0  0  2  0  0  0  0  0  0
   19.9480  -53.2610   34.1220 O   0  0  0  0  0  0  0  0  0  0  0  0
   20.8490  -52.8470   34.0980 H   0  0  0  0  0  0  0  0  0  0  0  0
   17.9340  -57.1550   32.4440 O   0  0  0  0  0  0  0  0  0  0  0  0
   18.6010  -57.6630   32.9530 H   0  0  0  0  0  0  0  0  0  0  0  0
   15.8470  -56.4180   33.6170 O   0  0  0  0  0  0  0  0  0  0  0  0
   15.6510  -56.5030   32.6480 H   0  0  0  0  0  0  0  0  0  0  0  0
   15.7740  -53.0310   39.9490 O   0  0  0  0  0  0  0  0  0  0  0  0
   15.0370  -52.3370   39.9740 H   0  0  0  0  0  0  0  0  0  0  0  0
   18.9220  -50.9310   36.9770 N   0  0  0  0  0  0  0  0  0  0  0  0
   19.3850  -50.8040   36.0710 H   0  0  0  0  0  0  0  0  0  0  0  0
   19.0390  -50.2060   37.7160 H   0  0  0  0  0  0  0  0  0  0  0  0
  1  9  2  0  0  0  0
  2  3  1  0  0  0  0
  2  1  1  0  0  0  0
  3  8  2  0  0  0  0
  4  3  1  0  0  0  0
  4  5  2  0  0  0  0
  5  6  1  0  0  0  0
  6  7  2  0  0  0  0
  7 37  1  0  0  0  0
  8  9  1  0  0  0  0
  8  7  1  0  0  0  0
 10  1  1  0  0  0  0
 10 12  1  0  0  0  0
 11 10  1  0  0  0  0
 12 13  2  0  0  0  0
 13 14  1  0  0  0  0
 14 20  1  0  0  0  0
 15 17  1  0  0  0  0
 15 14  2  0  0  0  0
 16 15  1  0  0  0  0
 17 18  2  0  0  0  0
 18 21  1  0  0  0  0
 18 19  1  0  0  0  0
 19 23  1  0  0  0  0
 20 19  2  0  0  0  0
 22 21  1  0  0  0  0
 23 24  1  0  0  0  0
 25  2  1  1  0  0  0
 26 25  1  0  0  0  0
 27 30  1  6  0  0  0
 27 26  1  0  0  0  0
 28 33  1  1  0  0  0
 28 27  1  0  0  0  0
 28 29  1  0  0  0  0
 29 35  1  6  0  0  0
 29 25  1  0  0  0  0
 30 31  1  0  0  0  0
 32 31  1  0  0  0  0
 33 34  1  0  0  0  0
 36 35  1  0  0  0  0
 37 38  1  0  0  0  0
 39  5  1  0  0  0  0
 39 41  1  0  0  0  0
 40 39  1  0  0  0  0
M  END
>  <Pose>
1

>  <Score>
-8.314

$$$$
