MODEL 1
REMARK VINA RESULT:    -7.825      0.000      0.000
REMARK INTER + INTRA:          -8.762
REMARK INTER:                  -8.511
REMARK INTRA:                  -0.251
REMARK UNBOUND:                -0.251
REMARK  2 active torsions:
REMARK  status: ('A' for Active; 'I' for Inactive)
REMARK    1  A    between atoms: C_3  and  C_8 
REMARK    2  A    between atoms: C_12  and  N_16 
ROOT
ATOM      1  C   UNK d   1      16.506 -56.516  33.855  0.00  0.00     0.084 A 
ATOM      2  C   UNK d   1      15.803 -57.660  33.473  0.00  0.00     0.166 A 
ATOM      3  C   UNK d   1      16.061 -59.122  33.364  0.00  0.00     0.295 C 
ATOM      4  N   UNK d   1      15.494 -59.437  34.699  0.00  0.00    -0.209 NA
ATOM      5  C   UNK d   1      15.862 -58.500  35.516  0.00  0.00     0.124 C 
ATOM      6  C   UNK d   1      16.662 -57.578  34.772  0.00  0.00     0.146 A 
ATOM      7  C   UNK d   1      18.047 -58.134  34.713  0.00  0.00     0.080 C 
ATOM      8  N   UNK d   1      19.154 -58.551  34.674  0.00  0.00    -0.196 NA
ATOM      9  O   UNK d   1      15.215 -59.640  32.376  0.00  0.00    -0.333 OA
ATOM     10  C   UNK d   1      16.002 -60.385  31.520  0.00  0.00     0.199 C 
ATOM     11  C   UNK d   1      17.174 -60.768  32.408  0.00  0.00     0.199 C 
ATOM     12  O   UNK d   1      17.303 -59.564  33.143  0.00  0.00    -0.333 OA
ATOM     13  C   UNK d   1      14.318 -57.517  33.688  0.00  0.00     0.080 C 
ATOM     14  N   UNK d   1      13.158 -57.385  33.867  0.00  0.00    -0.196 NA
ENDROOT
BRANCH   1  15
ATOM     15  C   UNK d   1      17.603 -56.066  32.960  0.00  0.00    -0.032 A 
ATOM     16  C   UNK d   1      18.545 -55.153  33.362  0.00  0.00     0.017 A 
ATOM     17 Br   UNK d   1      18.528 -54.398  35.115  0.00  0.00    -0.051 Br
ATOM     18  C   UNK d   1      19.535 -54.779  32.463  0.00  0.00     0.019 A 
ATOM     19  C   UNK d   1      19.591 -55.311  31.170  0.00  0.00     0.001 A 
ATOM     20  C   UNK d   1      18.638 -56.224  30.788  0.00  0.00     0.001 A 
ATOM     21  C   UNK d   1      17.651 -56.594  31.691  0.00  0.00     0.009 A 
ENDBRANCH   1  15
BRANCH   5  22
ATOM     22  N   UNK d   1      15.517 -58.420  36.917  0.00  0.00    -0.386 N 
ATOM     23  H   UNK d   1      14.792 -59.039  37.328  0.00  0.00     0.157 HD
ATOM     24  H   UNK d   1      15.990 -57.740  37.541  0.00  0.00     0.157 HD
ENDBRANCH   5  22
TORSDOF 2
ENDMDL
