/Users/jonathanwahrer/Desktop/Msc/3_Semester/Drug_Design_Praktikum/waehrer_HTS_screening/HTS_experiment/out/docking_results/vina_output/6s1j/1372_docked.pdbqt
 OpenBabel03222222033D

 31 34  0  0  1  0  0  0  0  0999 V2000
   15.6470  -57.4000   34.0900 C   0  0  0  0  0  0  0  0  0  0  0  0
   15.3980  -56.3990   33.3860 O   0  0  0  0  0  0  0  0  0  0  0  0
   14.7480  -58.4710   34.1340 N   0  0  0  0  0  0  0  0  0  0  0  0
   13.6870  -58.8260   33.2540 C   0  0  0  0  0  2  0  0  0  0  0  0
   13.6210  -60.3590   33.3400 C   0  0  0  0  0  2  0  0  0  0  0  0
   14.9690  -60.9680   33.6360 C   0  0  1  0  0  0  0  0  0  0  0  0
   14.8890  -62.4000   33.7220 N   0  0  0  0  0  0  0  0  0  0  0  0
   16.2180  -62.8980   34.1050 C   0  0  0  0  0  2  0  0  0  0  0  0
   17.2300  -62.6710   33.0250 C   0  0  0  0  0  2  0  0  0  0  0  0
   16.9750  -61.4350   32.2510 C   0  0  0  0  0  0  0  0  0  0  0  0
   17.6520  -60.8960   31.2330 N   0  0  0  0  0  0  0  0  0  0  0  0
   17.0320  -59.7590   30.8590 C   0  0  0  0  0  3  0  0  0  0  0  0
   15.9680  -59.6040   31.6590 N   0  0  0  0  0  0  0  0  0  0  0  0
   15.8790  -60.6110   32.5410 C   0  0  0  0  0  0  0  0  0  0  0  0
   15.5220  -60.5330   35.0030 C   0  0  0  0  0  2  0  0  0  0  0  0
   14.7430  -59.3390   35.3580 C   0  0  0  0  0  2  0  0  0  0  0  0
   14.2530  -62.6650   34.5110 H   0  0  0  0  0  0  0  0  0  0  0  0
   18.5150  -61.2300   30.7500 H   0  0  0  0  0  0  0  0  0  0  0  0
   16.9310  -57.4070   34.8580 C   0  0  1  0  0  3  0  0  0  0  0  0
   18.0620  -57.6080   33.8160 C   0  0  0  0  0  1  0  0  0  0  0  0
   17.2560  -56.1390   35.4640 N   0  0  0  0  0  0  0  0  0  0  0  0
   16.7030  -55.8190   36.7690 C   0  0  0  0  0  0  0  0  0  0  0  0
   16.0000  -56.6250   37.3910 O   0  0  0  0  0  0  0  0  0  0  0  0
   17.8680  -55.4790   34.9880 H   0  0  0  0  0  0  0  0  0  0  0  0
   17.0220  -54.4800   37.2910 C   0  0  0  0  0  0  0  0  0  0  0  0
   18.0730  -53.7740   36.6820 C   0  0  0  0  0  3  0  0  0  0  0  0
   18.4730  -52.5260   37.0900 C   0  0  0  0  0  0  0  0  0  0  0  0
   19.9230  -51.6310   36.1820 Br  0  0  0  0  0  0  0  0  0  0  0  0
   17.8150  -51.9380   38.1440 C   0  0  0  0  0  3  0  0  0  0  0  0
   16.7790  -52.6210   38.7590 C   0  0  0  0  0  3  0  0  0  0  0  0
   16.3830  -53.8870   38.3370 C   0  0  0  0  0  3  0  0  0  0  0  0
  1  3  1  0  0  0  0
  1 19  1  0  0  0  0
  2  1  2  0  0  0  0
  3 16  1  0  0  0  0
  4  5  1  0  0  0  0
  4  3  1  0  0  0  0
  6  5  1  6  0  0  0
  6  7  1  0  0  0  0
  6 15  1  0  0  0  0
  7  8  1  0  0  0  0
  7 17  1  0  0  0  0
  9  8  1  0  0  0  0
 10 14  2  0  0  0  0
 10  9  1  0  0  0  0
 11 10  1  0  0  0  0
 12 11  1  0  0  0  0
 12 13  2  0  0  0  0
 13 14  1  0  0  0  0
 14  6  1  0  0  0  0
 15 16  1  0  0  0  0
 18 11  1  0  0  0  0
 19 20  1  6  0  0  0
 19 21  1  0  0  0  0
 21 22  1  0  0  0  0
 22 25  1  0  0  0  0
 22 23  2  0  0  0  0
 24 21  1  0  0  0  0
 25 31  1  0  0  0  0
 26 27  1  0  0  0  0
 26 25  2  0  0  0  0
 27 29  2  0  0  0  0
 28 27  1  0  0  0  0
 29 30  1  0  0  0  0
 31 30  2  0  0  0  0
M  END
>  <Pose>
1

>  <Score>
-7.799

$$$$
