MODEL 1
REMARK VINA RESULT:    -9.770      0.000      0.000
REMARK INTER + INTRA:         -14.860
REMARK INTER:                 -13.483
REMARK INTRA:                  -1.377
REMARK UNBOUND:                -1.377
REMARK  7 active torsions:
REMARK  status: ('A' for Active; 'I' for Inactive)
REMARK    1  A    between atoms: C_7  and  C_11 
REMARK    2  A    between atoms: C_11  and  O_12 
REMARK    3  A    between atoms: O_12  and  C_13 
REMARK    4  A    between atoms: C_13  and  C_15 
REMARK    5  A    between atoms: N_17  and  C_26 
REMARK    6  A    between atoms: C_26  and  C_27 
REMARK    7  A    between atoms: C_27  and  O_28 
ROOT
ATOM      1  C   UNK d   1      18.114 -55.135  35.229  0.00  0.00     0.315 C 
ATOM      2  O   UNK d   1      19.289 -55.462  35.134  0.00  0.00    -0.257 OA
ENDROOT
BRANCH   1   3
ATOM      3  O   UNK d   1      17.575 -54.774  33.963  0.00  0.00    -0.310 OA
BRANCH   3   4
ATOM      4  C   UNK d   1      17.771 -55.659  32.894  0.00  0.00     0.238 C 
BRANCH   4   5
ATOM      5  C   UNK d   1      16.998 -56.882  33.185  0.00  0.00     0.066 A 
ATOM      6  N   UNK d   1      15.701 -56.790  33.522  0.00  0.00    -0.233 NA
ATOM      7  C   UNK d   1      14.949 -57.869  33.796  0.00  0.00     0.137 A 
ATOM      8  N   UNK d   1      15.478 -59.096  33.743  0.00  0.00    -0.272 N 
ATOM      9  C   UNK d   1      13.630 -57.733  34.136  0.00  0.00     0.052 A 
ATOM     10  C   UNK d   1      14.724 -60.188  34.020  0.00  0.00     0.121 A 
ATOM     11  C   UNK d   1      16.773 -59.279  33.413  0.00  0.00     0.255 A 
ATOM     12  C   UNK d   1      13.390 -60.072  34.365  0.00  0.00     0.027 A 
ATOM     13 Br   UNK d   1      12.339 -61.636  34.753  0.00  0.00    -0.050 Br
ATOM     14  C   UNK d   1      12.830 -58.820  34.425  0.00  0.00     0.024 A 
ATOM     15  C   UNK d   1      17.542 -58.141  33.130  0.00  0.00     0.104 A 
ATOM     16  O   UNK d   1      17.302 -60.417  33.353  0.00  0.00    -0.268 OA
ENDBRANCH   4   5
ENDBRANCH   3   4
ENDBRANCH   1   3
BRANCH   1  17
ATOM     17  C   UNK d   1      17.255 -55.072  36.395  0.00  0.00     0.163 A 
ATOM     18  N   UNK d   1      16.518 -56.159  36.773  0.00  0.00    -0.163 NA
ATOM     19  N   UNK d   1      15.729 -56.128  37.832  0.00  0.00    -0.231 N 
ATOM     20  C   UNK d   1      15.613 -55.023  38.588  0.00  0.00     0.274 A 
ATOM     21  O   UNK d   1      14.846 -55.004  39.608  0.00  0.00    -0.266 OA
ATOM     22  C   UNK d   1      16.319 -53.886  38.275  0.00  0.00     0.046 A 
ATOM     23  C   UNK d   1      17.147 -53.946  37.151  0.00  0.00     0.016 A 
ATOM     24  C   UNK d   1      16.186 -52.771  39.059  0.00  0.00     0.018 A 
ATOM     25  C   UNK d   1      17.834 -52.789  36.876  0.00  0.00     0.015 A 
ATOM     26  C   UNK d   1      17.707 -51.650  37.665  0.00  0.00     0.001 A 
ATOM     27  C   UNK d   1      16.882 -51.626  38.764  0.00  0.00     0.001 A 
BRANCH  19  28
ATOM     28  C   UNK d   1      14.953 -57.287  38.223  0.00  0.00     0.180 C 
BRANCH  28  29
ATOM     29  C   UNK d   1      15.349 -58.527  37.464  0.00  0.00     0.186 C 
BRANCH  29  30
ATOM     30  O   UNK d   1      14.395 -59.525  37.539  0.00  0.00    -0.399 OA
ATOM     31  H   UNK d   1      13.720 -59.243  38.200  0.00  0.00     0.209 HD
ENDBRANCH  29  30
ENDBRANCH  28  29
ENDBRANCH  19  28
ENDBRANCH   1  17
TORSDOF 7
ENDMDL
