MODEL 1
REMARK VINA RESULT:   -10.051      0.000      0.000
REMARK INTER + INTRA:         -12.304
REMARK INTER:                 -12.695
REMARK INTRA:                   0.391
REMARK UNBOUND:                 0.391
REMARK  5 active torsions:
REMARK  status: ('A' for Active; 'I' for Inactive)
REMARK    1  A    between atoms: C_6  and  C_12 
REMARK    2  A    between atoms: C_12  and  C_13 
REMARK    3  A    between atoms: C_13  and  C_14 
REMARK       I    between atoms: C_14  and  N_16 
REMARK    4  A    between atoms: C_18  and  N_24 
REMARK    5  A    between atoms: C_19  and  O_22 
ROOT
ATOM      1  C   UNK d   1      16.025 -58.861  34.492  0.00  0.00     0.220 C 
ATOM      2  O   UNK d   1      16.502 -60.014  34.384  0.00  0.00    -0.273 OA
ATOM      3  N   UNK d   1      16.293 -57.896  33.453  0.00  0.00    -0.350 N 
ATOM      4  C   UNK d   1      17.097 -58.290  32.329  0.00  0.00     0.154 C 
ATOM      5  C   UNK d   1      18.397 -57.516  32.414  0.00  0.00     0.146 C 
ATOM      6  C   UNK d   1      18.247 -56.166  33.015  0.00  0.00     0.078 C 
ATOM      7  C   UNK d   1      16.872 -55.607  33.008  0.00  0.00     0.059 C 
ATOM      8  C   UNK d   1      15.803 -56.545  33.465  0.00  0.00     0.129 C 
ATOM      9  C   UNK d   1      19.135 -55.208  32.210  0.00  0.00     0.048 C 
ENDROOT
BRANCH   1  10
ATOM     10  C   UNK d   1      15.204 -58.452  35.638  0.00  0.00     0.110 C 
BRANCH  10  11
ATOM     11  C   UNK d   1      15.885 -58.164  36.907  0.00  0.00     0.088 C 
BRANCH  11  12
ATOM     12  C   UNK d   1      16.107 -56.735  37.249  0.00  0.00     0.107 A 
ATOM     13  N   UNK d   1      17.008 -55.913  36.606  0.00  0.00    -0.233 NA
ATOM     14  C   UNK d   1      17.006 -54.708  37.194  0.00  0.00     0.087 A 
ATOM     15  C   UNK d   1      17.699 -53.531  36.963  0.00  0.00     0.057 A 
ATOM     16  C   UNK d   1      16.102 -54.730  38.230  0.00  0.00     0.064 A 
ATOM     17  C   UNK d   1      17.488 -52.420  37.746  0.00  0.00     0.036 A 
ATOM     18 Cl   UNK d   1      18.400 -50.939  37.409  0.00  0.00    -0.084 Cl
ATOM     19  C   UNK d   1      16.576 -52.459  38.782  0.00  0.00     0.026 A 
ATOM     20  C   UNK d   1      15.883 -53.621  39.020  0.00  0.00     0.034 A 
ATOM     21  N   UNK d   1      15.584 -55.993  38.218  0.00  0.00    -0.338 N 
ATOM     22  C   UNK d   1      14.614 -56.401  39.219  0.00  0.00     0.158 C 
ENDBRANCH  11  12
ENDBRANCH  10  11
ENDBRANCH   1  10
BRANCH   5  23
ATOM     23  N   UNK d   1      18.989 -57.502  31.098  0.00  0.00    -0.300 N 
ATOM     24  C   UNK d   1      20.325 -57.610  30.954  0.00  0.00     0.102 A 
ATOM     25  C   UNK d   1      20.932 -57.601  29.719  0.00  0.00     0.092 A 
ATOM     26  C   UNK d   1      20.140 -57.479  28.600  0.00  0.00     0.250 A 
ATOM     27  O   UNK d   1      20.642 -57.464  27.428  0.00  0.00    -0.268 OA
ATOM     28  N   UNK d   1      18.814 -57.373  28.774  0.00  0.00    -0.275 N 
ATOM     29  C   UNK d   1      18.249 -57.384  29.982  0.00  0.00     0.329 A 
ATOM     30  H   UNK d   1      18.165 -57.275  27.937  0.00  0.00     0.173 HD
ATOM     31  O   UNK d   1      16.994 -57.281  30.091  0.00  0.00    -0.246 OA
ENDBRANCH   5  23
BRANCH   6  32
ATOM     32  O   UNK d   1      18.734 -56.099  34.331  0.00  0.00    -0.388 OA
ATOM     33  H   UNK d   1      18.335 -56.869  34.845  0.00  0.00     0.210 HD
ENDBRANCH   6  32
TORSDOF 5
ENDMDL
