/Users/jonathanwahrer/Desktop/Msc/3_Semester/Drug_Design_Praktikum/waehrer_HTS_screening/HTS_experiment/out/docking_results/vina_output/6s1j/1404_docked.pdbqt
 OpenBabel03222222043D

 26 29  0  0  1  0  0  0  0  0999 V2000
   21.4690  -57.6600   29.8960 Br  0  0  0  0  0  0  0  0  0  0  0  0
   19.8660  -57.1200   30.7770 C   0  0  0  0  0  0  0  0  0  0  0  0
   19.6050  -57.4920   32.0820 C   0  0  0  0  0  3  0  0  0  0  0  0
   18.4620  -57.1270   32.7610 C   0  0  0  0  0  0  0  0  0  0  0  0
   17.5540  -56.3410   32.0460 C   0  0  0  0  0  0  0  0  0  0  0  0
   17.8130  -55.9710   30.7490 C   0  0  0  0  0  3  0  0  0  0  0  0
   18.9620  -56.3440   30.0830 C   0  0  0  0  0  0  0  0  0  0  0  0
   19.1910  -55.9140   28.6740 C   0  0  0  0  0  1  0  0  0  0  0  0
   16.4170  -55.9920   32.7620 O   0  0  0  0  0  0  0  0  0  0  0  0
   16.0590  -56.5450   34.0150 C   0  0  0  0  0  2  0  0  0  0  0  0
   17.3140  -56.6470   34.9440 C   0  0  2  0  0  0  0  0  0  0  0  0
   18.1800  -57.5350   34.1310 C   0  0  0  0  0  0  0  0  0  0  0  0
   18.7010  -58.6070   34.4850 O   0  0  0  0  0  0  0  0  0  0  0  0
   17.0250  -57.0530   36.2100 N   0  0  0  0  0  0  0  0  0  0  0  0
   16.6030  -58.3450   36.5470 C   0  0  0  0  0  2  0  0  0  0  0  0
   15.1040  -58.3630   36.7580 C   0  0  0  0  0  2  0  0  0  0  0  0
   14.8760  -57.5750   37.9120 O   0  0  0  0  0  0  0  0  0  0  0  0
   15.1030  -56.2570   37.4780 C   0  0  0  0  0  2  0  0  0  0  0  0
   16.5930  -56.1200   37.1540 C   0  0  0  0  0  2  0  0  0  0  0  0
   17.8540  -55.2620   34.9270 C   0  0  0  0  0  2  0  0  0  0  0  0
   19.2210  -55.0590   35.2940 N   0  0  0  0  0  0  0  0  0  0  0  0
   20.1090  -54.5300   34.3300 C   0  0  0  0  0  2  0  0  0  0  0  0
   19.8830  -53.0210   34.1580 C   0  0  0  0  0  2  0  0  0  0  0  0
   20.2610  -52.4450   35.3750 O   0  0  0  0  0  0  0  0  0  0  0  0
   19.2960  -52.8220   36.3170 C   0  0  0  0  0  2  0  0  0  0  0  0
   19.2630  -54.3020   36.5470 C   0  0  0  0  0  2  0  0  0  0  0  0
  1  2  1  0  0  0  0
  2  3  1  0  0  0  0
  3  4  2  0  0  0  0
  4 12  1  0  0  0  0
  5  4  1  0  0  0  0
  5  9  1  0  0  0  0
  6  5  2  0  0  0  0
  7  6  1  0  0  0  0
  7  2  2  0  0  0  0
  8  7  1  0  0  0  0
  9 10  1  0  0  0  0
 10 11  1  0  0  0  0
 11 20  1  1  0  0  0
 11 14  1  0  0  0  0
 12 13  2  0  0  0  0
 12 11  1  0  0  0  0
 14 15  1  0  0  0  0
 14 19  1  0  0  0  0
 15 16  1  0  0  0  0
 16 17  1  0  0  0  0
 18 17  1  0  0  0  0
 19 18  1  0  0  0  0
 20 21  1  0  0  0  0
 21 26  1  0  0  0  0
 22 21  1  0  0  0  0
 23 22  1  0  0  0  0
 23 24  1  0  0  0  0
 24 25  1  0  0  0  0
 25 26  1  0  0  0  0
M  END
>  <Pose>
1

>  <Score>
-7.450

$$$$
