MODEL 1
REMARK VINA RESULT:    -5.297      0.000      0.000
REMARK INTER + INTRA:          -5.452
REMARK INTER:                  -5.452
REMARK INTRA:                   0.000
REMARK UNBOUND:                 0.000
REMARK  1 active torsions:
REMARK  status: ('A' for Active; 'I' for Inactive)
REMARK    1  A    between atoms: C_19  and  N_23 
ROOT
ATOM      1 Br   UNK d   1      13.237 -58.750  36.450  0.00  0.00    -0.051 Br
ATOM      2  C   UNK d   1      13.049 -60.236  35.237  0.00  0.00     0.011 A 
ATOM      3  C   UNK d   1      14.145 -60.917  34.779  0.00  0.00     0.030 A 
ATOM      4  C   UNK d   1      13.986 -61.977  33.912  0.00  0.00    -0.002 A 
ATOM      5  C   UNK d   1      12.711 -62.309  33.540  0.00  0.00     0.045 A 
ATOM      6  C   UNK d   1      11.584 -61.607  34.013  0.00  0.00     0.031 A 
ATOM      7  C   UNK d   1      11.760 -60.557  34.874  0.00  0.00     0.021 A 
ATOM      8  N   UNK d   1      12.709 -63.418  32.647  0.00  0.00    -0.320 N 
ATOM      9  C   UNK d   1      14.039 -63.808  32.442  0.00  0.00     0.247 A 
ATOM     10  O   UNK d   1      14.413 -64.767  31.699  0.00  0.00    -0.271 OA
ATOM     11  C   UNK d   1      14.934 -62.902  33.244  0.00  0.00     0.145 A 
ATOM     12  C   UNK d   1      15.643 -63.768  34.179  0.00  0.00     0.049 A 
ATOM     13  C   UNK d   1      16.995 -63.908  34.126  0.00  0.00     0.200 A 
ATOM     14  N   UNK d   1      17.337 -64.776  35.123  0.00  0.00    -0.148 NA
ATOM     15  N   UNK d   1      16.262 -65.167  35.775  0.00  0.00    -0.280 N 
ATOM     16  C   UNK d   1      15.201 -64.576  35.231  0.00  0.00     0.036 A 
ATOM     17  C   UNK d   1      13.757 -64.691  35.608  0.00  0.00     0.070 C 
ATOM     18  O   UNK d   1      17.789 -63.241  33.187  0.00  0.00    -0.272 OA
ATOM     19  C   UNK d   1      17.110 -62.416  32.296  0.00  0.00     0.162 A 
ATOM     20  C   UNK d   1      15.814 -62.242  32.298  0.00  0.00     0.100 A 
ATOM     21  C   UNK d   1      15.264 -61.329  31.280  0.00  0.00     0.101 C 
ATOM     22  N   UNK d   1      14.807 -60.609  30.482  0.00  0.00    -0.191 NA
ATOM     23  C   UNK d   1      11.529 -64.051  32.039  0.00  0.00     0.159 C 
ATOM     24  H   UNK d   1      16.195 -65.829  36.590  0.00  0.00     0.189 HD
ENDROOT
BRANCH  19  25
ATOM     25  N   UNK d   1      17.883 -61.695  31.296  0.00  0.00    -0.379 N 
ATOM     26  H   UNK d   1      17.614 -61.896  30.312  0.00  0.00     0.158 HD
ATOM     27  H   UNK d   1      18.631 -61.044  31.526  0.00  0.00     0.158 HD
ENDBRANCH  19  25
TORSDOF 1
ENDMDL
