/Users/jonathanwahrer/Desktop/Msc/3_Semester/Drug_Design_Praktikum/waehrer_HTS_screening/HTS_experiment/out/docking_results/vina_output/6s1j/1415_docked.pdbqt
 OpenBabel03222222053D

 32 35  0  0  1  0  0  0  0  0999 V2000
   17.3370  -62.6570   32.4280 Br  0  0  0  0  0  0  0  0  0  0  0  0
   17.1680  -60.9480   31.5760 C   0  0  0  0  0  0  0  0  0  0  0  0
   17.3670  -59.7990   32.3020 C   0  0  0  0  0  0  0  0  0  0  0  0
   17.2520  -58.5270   31.7160 C   0  0  0  0  0  0  0  0  0  0  0  0
   16.9310  -58.4950   30.3770 C   0  0  0  0  0  3  0  0  0  0  0  0
   16.7260  -59.6320   29.6260 C   0  0  0  0  0  0  0  0  0  0  0  0
   16.8440  -60.8660   30.2220 C   0  0  0  0  0  0  0  0  0  0  0  0
   16.6430  -62.1480   29.4980 C   0  0  0  0  0  1  0  0  0  0  0  0
   16.2820  -59.5560   27.7720 Br  0  0  0  0  0  0  0  0  0  0  0  0
   17.4670  -57.3420   32.5200 C   0  0  0  0  0  0  0  0  0  0  0  0
   17.4710  -56.2250   31.9930 O   0  0  0  0  0  0  0  0  0  0  0  0
   17.6810  -57.4790   33.9720 C   0  0  1  0  0  0  0  0  0  0  0  0
   18.4160  -58.7830   34.1930 C   0  0  0  0  0  2  0  0  0  0  0  0
   17.6910  -59.8720   33.6540 O   0  0  0  0  0  0  0  0  0  0  0  0
   18.4100  -56.3230   34.5860 C   0  0  0  0  0  2  0  0  0  0  0  0
   18.0840  -55.0450   34.0810 N   0  0  0  0  0  4  0  0  0  0  0  0
   17.3630  -54.2970   35.0680 C   0  0  0  0  0  2  0  0  0  0  0  0
   18.1690  -53.8440   36.2330 C   0  0  2  0  0  3  0  0  0  0  0  0
   19.6350  -54.0220   36.1390 C   0  0  0  0  0  2  0  0  0  0  0  0
   17.6850  -54.6230   37.4610 C   0  0  0  0  0  1  0  0  0  0  0  0
   20.2060  -54.1290   34.7790 C   0  0  0  0  0  2  0  0  0  0  0  0
   19.1960  -54.2310   33.6750 C   0  0  0  0  0  2  0  0  0  0  0  0
   17.4550  -55.1390   33.2440 H   0  0  0  0  0  0  0  0  0  0  0  0
   16.3020  -57.6080   34.5860 C   0  0  0  0  0  2  0  0  0  0  0  0
   16.1580  -58.6510   35.5440 N   0  0  0  0  0  4  0  0  0  0  0  0
   14.9170  -59.3860   35.3080 C   0  0  0  0  0  2  0  0  0  0  0  0
   13.8190  -58.9810   36.2480 C   0  0  1  0  0  3  0  0  0  0  0  0
   13.8260  -57.4780   36.4160 C   0  0  0  0  0  2  0  0  0  0  0  0
   12.4910  -59.3310   35.5620 C   0  0  0  0  0  1  0  0  0  0  0  0
   15.0850  -57.1040   37.1340 C   0  0  0  0  0  2  0  0  0  0  0  0
   16.1060  -58.1940   36.9160 C   0  0  0  0  0  2  0  0  0  0  0  0
   16.9180  -59.3310   35.4570 H   0  0  0  0  0  0  0  0  0  0  0  0
  2  3  1  0  0  0  0
  2  1  1  0  0  0  0
  3 14  1  0  0  0  0
  4  3  2  0  0  0  0
  4 10  1  0  0  0  0
  5  4  1  0  0  0  0
  6  7  1  0  0  0  0
  6  5  2  0  0  0  0
  7  2  2  0  0  0  0
  8  7  1  0  0  0  0
  9  6  1  0  0  0  0
 10 12  1  0  0  0  0
 11 10  2  0  0  0  0
 12 13  1  0  0  0  0
 12 24  1  1  0  0  0
 12 15  1  0  0  0  0
 14 13  1  0  0  0  0
 16 15  1  0  0  0  0
 16 17  1  0  0  0  0
 17 18  1  0  0  0  0
 18 20  1  1  0  0  0
 19 18  1  0  0  0  0
 21 19  1  0  0  0  0
 22 16  1  0  0  0  0
 22 21  1  0  0  0  0
 23 16  1  0  0  0  0
 24 25  1  0  0  0  0
 25 31  1  0  0  0  0
 26 25  1  0  0  0  0
 26 27  1  0  0  0  0
 27 29  1  6  0  0  0
 27 28  1  0  0  0  0
 28 30  1  0  0  0  0
 31 30  1  0  0  0  0
 32 25  1  0  0  0  0
M  END
>  <Pose>
1

>  <Score>
-7.721

$$$$
