MODEL 1
REMARK VINA RESULT:    -7.721      0.000      0.000
REMARK INTER + INTRA:         -10.487
REMARK INTER:                  -9.526
REMARK INTRA:                  -0.961
REMARK UNBOUND:                -0.961
REMARK  4 active torsions:
REMARK  status: ('A' for Active; 'I' for Inactive)
REMARK    1  A    between atoms: C_12  and  C_15 
REMARK    2  A    between atoms: C_12  and  C_23 
REMARK    3  A    between atoms: C_15  and  N_16 
REMARK    4  A    between atoms: C_23  and  N_24 
ROOT
ATOM      1 Br   UNK d   1      17.337 -62.657  32.428  0.00  0.00    -0.048 Br
ATOM      2  C   UNK d   1      17.168 -60.948  31.576  0.00  0.00     0.052 A 
ATOM      3  C   UNK d   1      17.367 -59.799  32.302  0.00  0.00     0.100 A 
ATOM      4  C   UNK d   1      17.252 -58.527  31.716  0.00  0.00     0.047 A 
ATOM      5  C   UNK d   1      16.931 -58.495  30.377  0.00  0.00     0.038 A 
ATOM      6  C   UNK d   1      16.726 -59.632  29.626  0.00  0.00     0.019 A 
ATOM      7  C   UNK d   1      16.844 -60.866  30.222  0.00  0.00    -0.024 A 
ATOM      8  C   UNK d   1      16.643 -62.148  29.498  0.00  0.00     0.051 C 
ATOM      9 Br   UNK d   1      16.282 -59.556  27.772  0.00  0.00    -0.051 Br
ATOM     10  C   UNK d   1      17.467 -57.342  32.520  0.00  0.00     0.176 C 
ATOM     11  O   UNK d   1      17.471 -56.225  31.993  0.00  0.00    -0.291 OA
ATOM     12  C   UNK d   1      17.681 -57.479  33.972  0.00  0.00     0.095 C 
ATOM     13  C   UNK d   1      18.416 -58.783  34.193  0.00  0.00     0.197 C 
ATOM     14  O   UNK d   1      17.691 -59.872  33.654  0.00  0.00    -0.347 OA
ENDROOT
BRANCH  12  15
ATOM     15  C   UNK d   1      18.410 -56.323  34.586  0.00  0.00     0.256 C 
BRANCH  15  16
ATOM     16  N   UNK d   1      18.084 -55.045  34.081  0.00  0.00    -0.069 N 
ATOM     17  C   UNK d   1      17.363 -54.297  35.068  0.00  0.00     0.239 C 
ATOM     18  C   UNK d   1      18.169 -53.844  36.233  0.00  0.00     0.007 C 
ATOM     19  C   UNK d   1      19.635 -54.022  36.139  0.00  0.00     0.007 C 
ATOM     20  C   UNK d   1      17.685 -54.623  37.461  0.00  0.00     0.011 C 
ATOM     21  C   UNK d   1      20.206 -54.129  34.779  0.00  0.00     0.028 C 
ATOM     22  C   UNK d   1      19.196 -54.231  33.675  0.00  0.00     0.235 C 
ATOM     23  H   UNK d   1      17.455 -55.139  33.244  0.00  0.00     0.279 HD
ENDBRANCH  15  16
ENDBRANCH  12  15
BRANCH  12  24
ATOM     24  C   UNK d   1      16.302 -57.608  34.586  0.00  0.00     0.256 C 
BRANCH  24  25
ATOM     25  N   UNK d   1      16.158 -58.651  35.544  0.00  0.00    -0.069 N 
ATOM     26  C   UNK d   1      14.917 -59.386  35.308  0.00  0.00     0.239 C 
ATOM     27  C   UNK d   1      13.819 -58.981  36.248  0.00  0.00     0.007 C 
ATOM     28  C   UNK d   1      13.826 -57.478  36.416  0.00  0.00     0.007 C 
ATOM     29  C   UNK d   1      12.491 -59.331  35.562  0.00  0.00     0.011 C 
ATOM     30  C   UNK d   1      15.085 -57.104  37.134  0.00  0.00     0.028 C 
ATOM     31  C   UNK d   1      16.106 -58.194  36.916  0.00  0.00     0.235 C 
ATOM     32  H   UNK d   1      16.918 -59.331  35.457  0.00  0.00     0.279 HD
ENDBRANCH  24  25
ENDBRANCH  12  24
TORSDOF 4
ENDMDL
