/Users/jonathanwahrer/Desktop/Msc/3_Semester/Drug_Design_Praktikum/waehrer_HTS_screening/HTS_experiment/out/docking_results/vina_output/6s1j/1428_docked.pdbqt
 OpenBabel03222222053D

 37 40  0  0  1  0  0  0  0  0999 V2000
   14.2510  -57.4080   38.8160 Cl  0  0  0  0  0  0  0  0  0  0  0  0
   13.3790  -58.5280   37.7730 C   0  0  0  0  0  0  0  0  0  0  0  0
   13.9520  -59.0800   36.6590 C   0  0  0  0  0  3  0  0  0  0  0  0
   13.2240  -59.9500   35.8780 C   0  0  0  0  0  0  0  0  0  0  0  0
   11.9370  -60.2350   36.2500 C   0  0  0  0  0  0  0  0  0  0  0  0
   11.3550  -59.6700   37.3890 C   0  0  0  0  0  3  0  0  0  0  0  0
   12.0850  -58.8090   38.1550 C   0  0  0  0  0  3  0  0  0  0  0  0
   11.3090  -61.1550   35.3650 N   0  0  0  0  0  0  0  0  0  0  0  0
   12.2610  -61.4620   34.3840 C   0  0  0  0  0  0  0  0  0  0  0  0
   12.0120  -62.2810   33.4390 O   0  0  0  0  0  0  0  0  0  0  0  0
   13.5000  -60.7140   34.6380 C   0  0  2  0  0  0  0  0  0  0  0  0
   14.5610  -61.6660   34.8100 N   0  0  0  0  0  0  0  0  0  0  0  0
   15.4600  -61.5640   33.7030 C   0  0  2  0  0  3  0  0  0  0  0  0
   14.7850  -60.7390   32.6550 C   0  0  0  0  0  2  0  0  0  0  0  0
   13.8430  -59.8960   33.4690 C   0  0  2  0  0  3  0  0  0  0  0  0
   10.3270  -61.5340   35.4290 H   0  0  0  0  0  0  0  0  0  0  0  0
   15.0170  -61.5590   35.7410 H   0  0  0  0  0  0  0  0  0  0  0  0
   14.3800  -58.5390   33.7480 C   0  0  0  0  0  0  0  0  0  0  0  0
   13.5650  -57.5920   33.6340 O   0  0  0  0  0  0  0  0  0  0  0  0
   15.7070  -58.2870   34.1150 N   0  0  0  0  0  0  0  0  0  0  0  0
   16.3130  -59.1600   34.1940 H   0  0  0  0  0  0  0  0  0  0  0  0
   16.3220  -57.0660   34.3950 C   0  0  0  0  0  0  0  0  0  0  0  0
   16.6650  -56.2240   33.3470 C   0  0  0  0  0  0  0  0  0  0  0  0
   17.2740  -55.0020   33.5500 C   0  0  0  0  0  3  0  0  0  0  0  0
   17.5730  -54.5590   34.8140 C   0  0  0  0  0  3  0  0  0  0  0  0
   17.2480  -55.3670   35.8650 C   0  0  0  0  0  0  0  0  0  0  0  0
   16.6330  -56.5970   35.6460 C   0  0  0  0  0  3  0  0  0  0  0  0
   16.3960  -56.6000   32.0430 O   0  0  0  0  0  0  0  0  0  0  0  0
   17.3620  -57.0470   31.1410 C   0  0  0  0  0  1  0  0  0  0  0  0
   17.5310  -54.9570   37.1550 O   0  0  0  0  0  0  0  0  0  0  0  0
   16.5220  -54.6500   38.1000 C   0  0  0  0  0  1  0  0  0  0  0  0
   15.8680  -62.9310   33.1800 C   0  0  0  0  0  2  0  0  0  0  0  0
   15.1230  -64.0160   33.8340 C   0  0  0  0  0  0  0  0  0  0  0  0
   15.4610  -64.4210   34.9570 O   0  0  0  0  0  0  0  0  0  0  0  0
   14.0210  -64.5980   33.1810 N   0  0  0  0  0  0  0  0  0  0  0  0
   13.1390  -64.7260   33.7220 H   0  0  0  0  0  0  0  0  0  0  0  0
   14.0230  -64.9150   32.1810 H   0  0  0  0  0  0  0  0  0  0  0  0
  2  7  1  0  0  0  0
  2  1  1  0  0  0  0
  3  2  2  0  0  0  0
  4  5  2  0  0  0  0
  4  3  1  0  0  0  0
  5  6  1  0  0  0  0
  6  7  2  0  0  0  0
  8 16  1  0  0  0  0
  8  5  1  0  0  0  0
  9  8  1  0  0  0  0
 10  9  2  0  0  0  0
 11  9  1  6  0  0  0
 11 12  1  0  0  0  0
 11  4  1  0  0  0  0
 12 17  1  0  0  0  0
 13 32  1  6  0  0  0
 13 12  1  0  0  0  0
 14 15  1  0  0  0  0
 14 13  1  0  0  0  0
 15 18  1  1  0  0  0
 15 11  1  0  0  0  0
 18 20  1  0  0  0  0
 19 18  2  0  0  0  0
 20 21  1  0  0  0  0
 20 22  1  0  0  0  0
 22 27  1  0  0  0  0
 23 24  1  0  0  0  0
 23 22  2  0  0  0  0
 24 25  2  0  0  0  0
 25 26  1  0  0  0  0
 26 30  1  0  0  0  0
 27 26  2  0  0  0  0
 28 23  1  0  0  0  0
 29 28  1  0  0  0  0
 30 31  1  0  0  0  0
 32 33  1  0  0  0  0
 33 34  2  0  0  0  0
 35 36  1  0  0  0  0
 35 33  1  0  0  0  0
 37 35  1  0  0  0  0
M  END
>  <Pose>
1

>  <Score>
-8.160

$$$$
