MODEL 1
REMARK VINA RESULT:    -8.116      0.000      0.000
REMARK INTER + INTRA:          -8.949
REMARK INTER:                  -9.064
REMARK INTRA:                   0.115
REMARK UNBOUND:                 0.115
REMARK  2 active torsions:
REMARK  status: ('A' for Active; 'I' for Inactive)
REMARK    1  A    between atoms: N_4  and  C_8 
REMARK    2  A    between atoms: C_8  and  C_9 
ROOT
ATOM      1  C   UNK d   1      15.477 -55.443  38.739  0.00  0.00     0.168 A 
ATOM      2  N   UNK d   1      15.387 -54.148  39.087  0.00  0.00    -0.148 NA
ATOM      3  N   UNK d   1      16.359 -53.432  38.497  0.00  0.00    -0.206 N 
ATOM      4  C   UNK d   1      17.084 -54.289  37.756  0.00  0.00     0.169 A 
ATOM      5  N   UNK d   1      16.540 -55.511  37.909  0.00  0.00    -0.209 NA
ATOM      6  C   UNK d   1      18.153 -53.778  37.045  0.00  0.00     0.079 A 
ATOM      7  C   UNK d   1      18.486 -52.437  37.079  0.00  0.00     0.162 A 
ATOM      8  N   UNK d   1      19.566 -52.204  36.302  0.00  0.00    -0.256 N 
ATOM      9  N   UNK d   1      19.902 -53.373  35.791  0.00  0.00    -0.182 NA
ATOM     10  C   UNK d   1      19.081 -54.354  36.210  0.00  0.00     0.158 A 
ATOM     11  C   UNK d   1      20.207 -50.908  36.090  0.00  0.00     0.182 C 
ATOM     12  N   UNK d   1      17.718 -51.639  37.840  0.00  0.00    -0.222 NA
ATOM     13  C   UNK d   1      16.676 -52.124  38.535  0.00  0.00     0.239 A 
ENDROOT
BRANCH   1  14
ATOM     14  C   UNK d   1      14.612 -56.580  39.158  0.00  0.00     0.232 C 
BRANCH  14  15
ATOM     15  N   UNK d   1      14.107 -57.321  38.013  0.00  0.00    -0.272 N 
ATOM     16  C   UNK d   1      13.180 -58.300  38.031  0.00  0.00     0.134 A 
ATOM     17  C   UNK d   1      12.984 -58.741  36.724  0.00  0.00     0.054 A 
ATOM     18 Br   UNK d   1      11.803 -60.104  36.107  0.00  0.00    -0.047 Br
ATOM     19  C   UNK d   1      13.828 -57.987  35.937  0.00  0.00     0.069 A 
ATOM     20  N   UNK d   1      14.490 -57.140  36.749  0.00  0.00    -0.176 NA
ATOM     21  C   UNK d   1      13.933 -58.139  34.467  0.00  0.00     0.074 C 
ENDBRANCH  14  15
ENDBRANCH   1  14
TORSDOF 2
ENDMDL
