/Users/jonathanwahrer/Desktop/Msc/3_Semester/Drug_Design_Praktikum/waehrer_HTS_screening/HTS_experiment/out/docking_results/vina_output/6s1j/1433_docked.pdbqt
 OpenBabel03222222063D

 28 31  0  0  1  0  0  0  0  0999 V2000
   14.1490  -59.1430   33.5950 Br  0  0  0  0  0  0  0  0  0  0  0  0
   14.3430  -58.5710   35.3930 C   0  0  0  0  0  0  0  0  0  0  0  0
   13.5510  -59.1460   36.3920 C   0  0  0  0  0  0  0  0  0  0  0  0
   13.6720  -58.7650   37.7060 C   0  0  0  0  0  0  0  0  0  0  0  0
   14.6000  -57.7950   38.0040 C   0  0  0  0  0  3  0  0  0  0  0  0
   15.4020  -57.2050   37.0280 C   0  0  0  0  0  0  0  0  0  0  0  0
   15.2690  -57.6060   35.6950 C   0  0  0  0  0  0  0  0  0  0  0  0
   16.1240  -56.9870   34.6450 C   0  0  0  0  0  1  0  0  0  0  0  0
   16.3760  -56.1450   37.3980 C   0  0  0  0  0  1  0  0  0  0  0  0
   12.8990  -59.3500   38.8380 C   0  0  2  0  0  3  0  0  0  0  0  0
   11.7830  -60.2600   38.4250 C   0  0  2  0  0  0  0  0  0  0  0  0
   11.4170  -59.9610   36.9830 C   0  0  0  0  0  2  0  0  0  0  0  0
   12.5930  -60.1200   36.1480 O   0  0  0  0  0  0  0  0  0  0  0  0
   10.6470  -59.9110   39.2510 N   0  0  0  0  0  0  0  0  0  0  0  0
   10.5150  -60.7200   40.4160 C   0  0  0  0  0  2  0  0  0  0  0  0
    9.1710  -60.6770   41.0870 C   0  0  0  0  0  2  0  0  0  0  0  0
    8.0980  -60.5910   40.2410 O   0  0  0  0  0  0  0  0  0  0  0  0
    8.2630  -59.4450   39.4520 C   0  0  0  0  0  2  0  0  0  0  0  0
    9.4290  -59.8230   38.5010 C   0  0  0  0  0  2  0  0  0  0  0  0
   12.0860  -61.7100   38.4400 C   0  0  0  0  0  2  0  0  0  0  0  0
   11.5120  -62.6340   37.5750 N   0  0  0  0  0  0  0  0  0  0  0  0
   12.4620  -63.7790   37.3630 C   0  0  0  0  0  2  0  0  0  0  0  0
   12.8600  -64.3920   38.6540 C   0  0  0  0  0  2  0  0  0  0  0  0
   11.9080  -64.3440   39.6360 O   0  0  0  0  0  0  0  0  0  0  0  0
   10.6140  -64.2470   39.2130 C   0  0  0  0  0  2  0  0  0  0  0  0
   10.3540  -63.3890   38.0170 C   0  0  0  0  0  2  0  0  0  0  0  0
   12.3810  -58.2540   39.5970 O   0  0  0  0  0  0  0  0  0  0  0  0
   12.2100  -57.5210   38.9570 H   0  0  0  0  0  0  0  0  0  0  0  0
  1  2  1  0  0  0  0
  2  7  2  0  0  0  0
  2  3  1  0  0  0  0
  3  4  2  0  0  0  0
  4  5  1  0  0  0  0
  4 10  1  0  0  0  0
  6  9  1  0  0  0  0
  6  5  2  0  0  0  0
  7  6  1  0  0  0  0
  8  7  1  0  0  0  0
 10 27  1  6  0  0  0
 11 20  1  1  0  0  0
 11 10  1  0  0  0  0
 11 14  1  0  0  0  0
 12 11  1  0  0  0  0
 13  3  1  0  0  0  0
 13 12  1  0  0  0  0
 14 15  1  0  0  0  0
 15 16  1  0  0  0  0
 17 16  1  0  0  0  0
 18 17  1  0  0  0  0
 19 14  1  0  0  0  0
 19 18  1  0  0  0  0
 21 26  1  0  0  0  0
 21 20  1  0  0  0  0
 22 21  1  0  0  0  0
 22 23  1  0  0  0  0
 23 24  1  0  0  0  0
 25 24  1  0  0  0  0
 26 25  1  0  0  0  0
 28 27  1  0  0  0  0
M  END
>  <Pose>
1

>  <Score>
-6.512

$$$$
