MODEL 1
REMARK VINA RESULT:    -6.512      0.000      0.000
REMARK INTER + INTRA:          -8.549
REMARK INTER:                  -7.844
REMARK INTRA:                  -0.705
REMARK UNBOUND:                -0.705
REMARK  4 active torsions:
REMARK  status: ('A' for Active; 'I' for Inactive)
REMARK    1  A    between atoms: C_10  and  O_27 
REMARK    2  A    between atoms: C_11  and  N_14 
REMARK    3  A    between atoms: C_11  and  C_20 
REMARK    4  A    between atoms: C_20  and  N_21 
ROOT
ATOM      1 Br   UNK d   1      14.149 -59.143  33.595  0.00  0.00    -0.048 Br
ATOM      2  C   UNK d   1      14.343 -58.571  35.393  0.00  0.00     0.051 A 
ATOM      3  C   UNK d   1      13.551 -59.146  36.392  0.00  0.00     0.095 A 
ATOM      4  C   UNK d   1      13.672 -58.765  37.706  0.00  0.00     0.008 A 
ATOM      5  C   UNK d   1      14.600 -57.795  38.004  0.00  0.00     0.020 A 
ATOM      6  C   UNK d   1      15.402 -57.205  37.028  0.00  0.00    -0.054 A 
ATOM      7  C   UNK d   1      15.269 -57.606  35.695  0.00  0.00    -0.036 A 
ATOM      8  C   UNK d   1      16.124 -56.987  34.645  0.00  0.00     0.050 C 
ATOM      9  C   UNK d   1      16.376 -56.145  37.398  0.00  0.00     0.049 C 
ATOM     10  C   UNK d   1      12.899 -59.350  38.838  0.00  0.00     0.197 C 
ATOM     11  C   UNK d   1      11.783 -60.260  38.425  0.00  0.00     0.236 C 
ATOM     12  C   UNK d   1      11.417 -59.961  36.983  0.00  0.00     0.222 C 
ATOM     13  O   UNK d   1      12.593 -60.120  36.148  0.00  0.00    -0.346 OA
ENDROOT
BRANCH  11  14
ATOM     14  N   UNK d   1      10.647 -59.911  39.251  0.00  0.00     0.109 N 
ATOM     15  C   UNK d   1      10.515 -60.720  40.416  0.00  0.00     0.299 C 
ATOM     16  C   UNK d   1       9.171 -60.677  41.087  0.00  0.00     0.198 C 
ATOM     17  O   UNK d   1       8.098 -60.591  40.241  0.00  0.00    -0.388 OA
ATOM     18  C   UNK d   1       8.263 -59.445  39.452  0.00  0.00     0.198 C 
ATOM     19  C   UNK d   1       9.429 -59.823  38.501  0.00  0.00     0.299 C 
ENDBRANCH  11  14
BRANCH  11  20
ATOM     20  C   UNK d   1      12.086 -61.710  38.440  0.00  0.00     0.319 C 
BRANCH  20  21
ATOM     21  N   UNK d   1      11.512 -62.634  37.575  0.00  0.00     0.095 N 
ATOM     22  C   UNK d   1      12.462 -63.779  37.363  0.00  0.00     0.298 C 
ATOM     23  C   UNK d   1      12.860 -64.392  38.654  0.00  0.00     0.198 C 
ATOM     24  O   UNK d   1      11.908 -64.344  39.636  0.00  0.00    -0.388 OA
ATOM     25  C   UNK d   1      10.614 -64.247  39.213  0.00  0.00     0.198 C 
ATOM     26  C   UNK d   1      10.354 -63.389  38.017  0.00  0.00     0.298 C 
ENDBRANCH  20  21
ENDBRANCH  11  20
BRANCH  10  27
ATOM     27  O   UNK d   1      12.381 -58.254  39.597  0.00  0.00    -0.388 OA
ATOM     28  H   UNK d   1      12.210 -57.521  38.957  0.00  0.00     0.210 HD
ENDBRANCH  10  27
TORSDOF 4
ENDMDL
