/Users/jonathanwahrer/Desktop/Msc/3_Semester/Drug_Design_Praktikum/waehrer_HTS_screening/HTS_experiment/out/docking_results/vina_output/6s1j/1434_docked.pdbqt
 OpenBabel03222222063D

 28 31  0  0  1  0  0  0  0  0999 V2000
   18.1550  -55.7050   34.2620 C   0  0  0  0  0  0  0  0  0  0  0  0
   17.5870  -54.6030   33.7860 O   0  0  0  0  0  0  0  0  0  0  0  0
   18.2470  -56.7420   33.3470 N   0  0  0  0  0  0  0  0  0  0  0  0
   18.7920  -58.0380   33.5420 C   0  0  0  0  0  2  0  0  0  0  0  0
   17.6690  -59.0750   33.5770 C   0  0  0  0  0  2  0  0  0  0  0  0
   16.5390  -58.6320   32.6620 C   0  0  1  0  0  0  0  0  0  0  0  0
   15.9910  -59.8540   32.0990 N   0  0  0  0  0  0  0  0  0  0  0  0
   14.9590  -60.2920   33.0070 C   0  0  0  0  0  0  0  0  0  0  0  0
   14.4670  -61.4470   33.0640 O   0  0  0  0  0  0  0  0  0  0  0  0
   14.6080  -59.1620   33.8280 N   0  0  0  0  0  0  0  0  0  0  0  0
   15.4110  -58.0600   33.4260 C   0  0  0  0  0  0  0  0  0  0  0  0
   15.1730  -56.8580   33.6880 O   0  0  0  0  0  0  0  0  0  0  0  0
   17.0120  -57.7640   31.5390 C   0  0  0  0  0  2  0  0  0  0  0  0
   17.7130  -56.5210   31.9810 C   0  0  0  0  0  2  0  0  0  0  0  0
   16.2750  -60.3300   31.2170 H   0  0  0  0  0  0  0  0  0  0  0  0
   13.8980  -59.1600   34.5740 H   0  0  0  0  0  0  0  0  0  0  0  0
   18.5450  -55.5530   35.6490 C   0  0  0  0  0  2  0  0  0  0  0  0
   17.5540  -55.3390   36.6450 N   0  0  0  0  0  0  0  0  0  0  0  0
   17.3700  -54.1380   37.2700 C   0  0  0  0  0  0  0  0  0  0  0  0
   16.3300  -54.2490   38.1570 C   0  0  0  0  0  0  0  0  0  0  0  0
   18.0350  -52.9180   37.1450 C   0  0  0  0  0  3  0  0  0  0  0  0
   15.8720  -55.5400   38.0720 C   0  0  0  0  0  0  0  0  0  0  0  0
   15.9520  -53.1520   38.9170 C   0  0  0  0  0  3  0  0  0  0  0  0
   14.4160  -56.2020   39.1190 Br  0  0  0  0  0  0  0  0  0  0  0  0
   16.6300  -56.1950   37.1420 C   0  0  0  0  0  0  0  0  0  0  0  0
   16.4760  -57.6100   36.7340 C   0  0  0  0  0  1  0  0  0  0  0  0
   16.6140  -51.9530   38.7870 C   0  0  0  0  0  3  0  0  0  0  0  0
   17.6530  -51.8230   37.9080 C   0  0  0  0  0  3  0  0  0  0  0  0
  1 17  1  0  0  0  0
  2  1  2  0  0  0  0
  3  4  1  0  0  0  0
  3  1  1  0  0  0  0
  4  5  1  0  0  0  0
  6 13  1  6  0  0  0
  6 11  1  0  0  0  0
  6  5  1  0  0  0  0
  7  6  1  0  0  0  0
  7  8  1  0  0  0  0
  8  9  2  0  0  0  0
  8 10  1  0  0  0  0
 10 16  1  0  0  0  0
 11 12  2  0  0  0  0
 11 10  1  0  0  0  0
 13 14  1  0  0  0  0
 14  3  1  0  0  0  0
 15  7  1  0  0  0  0
 17 18  1  0  0  0  0
 18 25  1  0  0  0  0
 18 19  1  0  0  0  0
 19 20  1  0  0  0  0
 20 23  2  0  0  0  0
 21 19  2  0  0  0  0
 21 28  1  0  0  0  0
 22 20  1  0  0  0  0
 22 24  1  0  0  0  0
 25 22  2  0  0  0  0
 26 25  1  0  0  0  0
 27 23  1  0  0  0  0
 28 27  2  0  0  0  0
M  END
>  <Pose>
1

>  <Score>
-9.785

$$$$
