MODEL 1
REMARK VINA RESULT:    -9.785      0.000      0.000
REMARK INTER + INTRA:         -11.635
REMARK INTER:                 -10.929
REMARK INTRA:                  -0.706
REMARK UNBOUND:                -0.706
REMARK  2 active torsions:
REMARK  status: ('A' for Active; 'I' for Inactive)
REMARK    1  A    between atoms: N_5  and  C_8 
REMARK    2  A    between atoms: C_8  and  C_9 
REMARK       I    between atoms: C_9  and  N_11 
ROOT
ATOM      1  C   UNK d   1      18.155 -55.705  34.262  0.00  0.00     0.171 C 
ATOM      2  O   UNK d   1      17.587 -54.603  33.786  0.00  0.00    -0.175 OA
ATOM      3  N   UNK d   1      18.247 -56.742  33.347  0.00  0.00    -0.361 N 
ATOM      4  C   UNK d   1      18.792 -58.038  33.542  0.00  0.00     0.127 C 
ATOM      5  C   UNK d   1      17.669 -59.075  33.577  0.00  0.00     0.061 C 
ATOM      6  C   UNK d   1      16.539 -58.632  32.662  0.00  0.00     0.118 C 
ATOM      7  N   UNK d   1      15.991 -59.854  32.099  0.00  0.00    -0.324 N 
ATOM      8  C   UNK d   1      14.959 -60.292  33.007  0.00  0.00     0.323 C 
ATOM      9  O   UNK d   1      14.467 -61.447  33.064  0.00  0.00    -0.247 OA
ATOM     10  N   UNK d   1      14.608 -59.162  33.828  0.00  0.00    -0.277 N 
ATOM     11  C   UNK d   1      15.411 -58.060  33.426  0.00  0.00     0.254 C 
ATOM     12  O   UNK d   1      15.173 -56.858  33.688  0.00  0.00    -0.270 OA
ATOM     13  C   UNK d   1      17.012 -57.764  31.539  0.00  0.00     0.061 C 
ATOM     14  C   UNK d   1      17.713 -56.521  31.981  0.00  0.00     0.127 C 
ATOM     15  H   UNK d   1      16.275 -60.330  31.217  0.00  0.00     0.165 HD
ATOM     16  H   UNK d   1      13.898 -59.160  34.574  0.00  0.00     0.173 HD
ENDROOT
BRANCH   1  17
ATOM     17  C   UNK d   1      18.545 -55.553  35.649  0.00  0.00     0.216 C 
BRANCH  17  18
ATOM     18  N   UNK d   1      17.554 -55.339  36.645  0.00  0.00    -0.341 N 
ATOM     19  C   UNK d   1      17.370 -54.138  37.270  0.00  0.00     0.046 A 
ATOM     20  C   UNK d   1      16.330 -54.249  38.157  0.00  0.00     0.010 A 
ATOM     21  C   UNK d   1      18.035 -52.918  37.145  0.00  0.00     0.030 A 
ATOM     22  C   UNK d   1      15.872 -55.540  38.072  0.00  0.00     0.045 A 
ATOM     23  C   UNK d   1      15.952 -53.152  38.917  0.00  0.00     0.015 A 
ATOM     24 Br   UNK d   1      14.416 -56.202  39.119  0.00  0.00    -0.048 Br
ATOM     25  C   UNK d   1      16.630 -56.195  37.142  0.00  0.00     0.027 A 
ATOM     26  C   UNK d   1      16.476 -57.610  36.734  0.00  0.00     0.070 C 
ATOM     27  C   UNK d   1      16.614 -51.953  38.787  0.00  0.00     0.001 A 
ATOM     28  C   UNK d   1      17.653 -51.823  37.908  0.00  0.00     0.002 A 
ENDBRANCH  17  18
ENDBRANCH   1  17
TORSDOF 2
ENDMDL
