MODEL 1
REMARK VINA RESULT:    -8.902      0.000      0.000
REMARK INTER + INTRA:         -12.432
REMARK INTER:                 -11.504
REMARK INTRA:                  -0.928
REMARK UNBOUND:                -0.928
REMARK  5 active torsions:
REMARK  status: ('A' for Active; 'I' for Inactive)
REMARK    1  A    between atoms: N_3  and  C_14 
REMARK    2  A    between atoms: C_14  and  C_15 
REMARK    3  A    between atoms: C_15  and  C_16 
REMARK    4  A    between atoms: C_16  and  C_17 
REMARK    5  A    between atoms: C_17  and  N_18 
ROOT
ATOM      1  C   UNK d   1      16.853 -56.702  32.988  0.00  0.00     0.022 C 
ENDROOT
BRANCH   1   2
ATOM      2  C   UNK d   1      18.253 -57.264  32.782  0.00  0.00     0.132 C 
BRANCH   2   3
ATOM      3  N   UNK d   1      18.512 -57.536  31.388  0.00  0.00    -0.318 N 
ATOM      4  C   UNK d   1      18.075 -58.569  30.628  0.00  0.00     0.180 A 
ATOM      5 Br   UNK d   1      16.956 -59.962  31.301  0.00  0.00    -0.008 Br
ATOM      6  N   UNK d   1      18.542 -58.458  29.371  0.00  0.00    -0.203 NA
ATOM      7  C   UNK d   1      19.298 -57.338  29.289  0.00  0.00     0.169 A 
ATOM      8  C   UNK d   1      19.264 -56.785  30.553  0.00  0.00     0.152 A 
ATOM      9  N   UNK d   1      19.984 -56.777  28.267  0.00  0.00    -0.286 N 
ATOM     10  C   UNK d   1      19.963 -55.609  30.765  0.00  0.00     0.280 A 
ATOM     11  N   UNK d   1      20.641 -55.061  29.746  0.00  0.00    -0.273 N 
ATOM     12  O   UNK d   1      19.923 -55.120  31.916  0.00  0.00    -0.265 OA
ATOM     13  C   UNK d   1      20.652 -55.636  28.512  0.00  0.00     0.330 A 
ATOM     14  H   UNK d   1      21.173 -54.172  29.897  0.00  0.00     0.173 HD
ATOM     15  O   UNK d   1      21.313 -55.057  27.610  0.00  0.00    -0.246 OA
ATOM     16  C   UNK d   1      20.010 -57.373  26.945  0.00  0.00     0.163 C 
ENDBRANCH   2   3
ENDBRANCH   1   2
BRANCH   1  17
ATOM     17  C   UNK d   1      16.265 -57.178  34.290  0.00  0.00     0.022 C 
BRANCH  17  18
ATOM     18  C   UNK d   1      17.234 -57.241  35.432  0.00  0.00     0.132 C 
BRANCH  18  19
ATOM     19  N   UNK d   1      16.904 -56.269  36.421  0.00  0.00    -0.318 N 
ATOM     20  C   UNK d   1      17.329 -55.018  36.589  0.00  0.00     0.152 A 
ATOM     21  C   UNK d   1      16.676 -54.468  37.686  0.00  0.00     0.169 A 
ATOM     22  C   UNK d   1      18.234 -54.222  35.938  0.00  0.00     0.280 A 
ATOM     23  N   UNK d   1      15.872 -55.423  38.144  0.00  0.00    -0.203 NA
ATOM     24  N   UNK d   1      16.928 -53.214  38.075  0.00  0.00    -0.286 N 
ATOM     25  C   UNK d   1      15.994 -56.520  37.395  0.00  0.00     0.180 A 
ATOM     26 Br   UNK d   1      15.025 -58.134  37.695  0.00  0.00    -0.008 Br
ATOM     27  C   UNK d   1      17.822 -52.451  37.416  0.00  0.00     0.330 A 
ATOM     28  C   UNK d   1      16.257 -52.612  39.221  0.00  0.00     0.163 C 
ATOM     29  O   UNK d   1      18.053 -51.274  37.788  0.00  0.00    -0.246 OA
ATOM     30  N   UNK d   1      18.458 -52.969  36.361  0.00  0.00    -0.273 N 
ATOM     31  H   UNK d   1      19.169 -52.403  35.815  0.00  0.00     0.173 HD
ATOM     32  O   UNK d   1      18.839 -54.688  34.952  0.00  0.00    -0.265 OA
ENDBRANCH  18  19
ENDBRANCH  17  18
ENDBRANCH   1  17
TORSDOF 5
ENDMDL
