/Users/jonathanwahrer/Desktop/Msc/3_Semester/Drug_Design_Praktikum/waehrer_HTS_screening/HTS_experiment/out/docking_results/vina_output/6s1j/1436_docked.pdbqt
 OpenBabel03222222063D

 33 36  0  0  0  0  0  0  0  0999 V2000
   18.1310  -57.2310   32.6020 O   0  0  0  0  0  0  0  0  0  0  0  0
   17.5940  -58.4030   33.0220 C   0  0  0  0  0  2  0  0  0  0  0  0
   16.4650  -59.0470   32.3310 C   0  0  0  0  0  2  0  0  0  0  0  0
   15.6880  -60.0030   33.0450 N   0  0  0  0  0  0  0  0  0  0  0  0
   15.8530  -61.3120   33.2270 C   0  0  0  0  0  0  0  0  0  0  0  0
   17.2150  -62.4250   32.4760 Br  0  0  0  0  0  0  0  0  0  0  0  0
   14.8800  -61.8290   34.0120 N   0  0  0  0  0  0  0  0  0  0  0  0
   14.0820  -60.8180   34.3270 C   0  0  0  0  0  0  0  0  0  0  0  0
   14.5630  -59.6700   33.7360 C   0  0  0  0  0  0  0  0  0  0  0  0
   12.9480  -60.7480   35.0790 N   0  0  0  0  0  0  0  0  0  0  0  0
   13.9280  -58.4530   33.8840 C   0  0  0  0  0  0  0  0  0  0  0  0
   12.7980  -58.4490   34.6470 N   0  0  0  0  0  0  0  0  0  0  0  0
   14.3490  -57.3970   33.3510 O   0  0  0  0  0  0  0  0  0  0  0  0
   12.3380  -59.5730   35.2190 C   0  0  0  0  0  0  0  0  0  0  0  0
   12.3100  -57.5360   34.7650 H   0  0  0  0  0  0  0  0  0  0  0  0
   11.2870  -59.5390   35.9230 O   0  0  0  0  0  0  0  0  0  0  0  0
   12.4100  -61.9320   35.7170 C   0  0  0  0  0  1  0  0  0  0  0  0
   17.7530  -56.1780   33.4200 C   0  0  0  0  0  2  0  0  0  0  0  0
   18.4790  -56.2860   34.7270 C   0  0  0  0  0  2  0  0  0  0  0  0
   18.0750  -55.2750   35.6520 N   0  0  0  0  0  0  0  0  0  0  0  0
   17.1380  -55.4090   36.6000 C   0  0  0  0  0  0  0  0  0  0  0  0
   17.0450  -54.2240   37.2620 C   0  0  0  0  0  0  0  0  0  0  0  0
   16.3350  -56.4680   36.9730 C   0  0  0  0  0  0  0  0  0  0  0  0
   17.9250  -53.3990   36.7010 N   0  0  0  0  0  0  0  0  0  0  0  0
   16.1720  -54.0850   38.2750 N   0  0  0  0  0  0  0  0  0  0  0  0
   18.5810  -54.0120   35.7020 C   0  0  0  0  0  0  0  0  0  0  0  0
   19.9370  -53.3390   34.5550 Br  0  0  0  0  0  0  0  0  0  0  0  0
   15.4070  -55.1190   38.6170 C   0  0  0  0  0  0  0  0  0  0  0  0
   16.0580  -52.8310   38.9900 C   0  0  0  0  0  1  0  0  0  0  0  0
   14.5940  -54.9750   39.5680 O   0  0  0  0  0  0  0  0  0  0  0  0
   15.4840  -56.2840   37.9850 N   0  0  0  0  0  0  0  0  0  0  0  0
   14.8760  -57.0820   38.2680 H   0  0  0  0  0  0  0  0  0  0  0  0
   16.3780  -57.6000   36.3930 O   0  0  0  0  0  0  0  0  0  0  0  0
  1  2  1  0  0  0  0
  1 18  1  0  0  0  0
  3  2  1  0  0  0  0
  3  4  1  0  0  0  0
  4  5  1  0  0  0  0
  4  9  1  0  0  0  0
  5  7  2  0  0  0  0
  6  5  1  0  0  0  0
  7  8  1  0  0  0  0
  8 10  1  0  0  0  0
  9 11  1  0  0  0  0
  9  8  2  0  0  0  0
 10 14  1  0  0  0  0
 10 17  1  0  0  0  0
 11 12  1  0  0  0  0
 12 15  1  0  0  0  0
 12 14  1  0  0  0  0
 13 11  2  0  0  0  0
 14 16  2  0  0  0  0
 18 19  1  0  0  0  0
 19 20  1  0  0  0  0
 20 26  1  0  0  0  0
 20 21  1  0  0  0  0
 21 23  1  0  0  0  0
 21 22  2  0  0  0  0
 22 25  1  0  0  0  0
 23 31  1  0  0  0  0
 24 22  1  0  0  0  0
 25 28  1  0  0  0  0
 25 29  1  0  0  0  0
 26 24  2  0  0  0  0
 27 26  1  0  0  0  0
 28 30  2  0  0  0  0
 31 32  1  0  0  0  0
 31 28  1  0  0  0  0
 33 23  2  0  0  0  0
M  END
>  <Pose>
1

>  <Score>
-8.632

$$$$
