MODEL 1
REMARK VINA RESULT:    -8.632      0.000      0.000
REMARK INTER + INTRA:         -12.848
REMARK INTER:                 -11.660
REMARK INTRA:                  -1.188
REMARK UNBOUND:                -1.188
REMARK  6 active torsions:
REMARK  status: ('A' for Active; 'I' for Inactive)
REMARK    1  A    between atoms: N_3  and  C_14 
REMARK    2  A    between atoms: C_14  and  C_15 
REMARK    3  A    between atoms: C_15  and  O_16 
REMARK    4  A    between atoms: O_16  and  C_17 
REMARK    5  A    between atoms: C_17  and  C_18 
REMARK    6  A    between atoms: C_18  and  N_19 
ROOT
ATOM      1  O   UNK d   1      18.131 -57.231  32.602  0.00  0.00    -0.388 OA
ENDROOT
BRANCH   1   2
ATOM      2  C   UNK d   1      17.594 -58.403  33.022  0.00  0.00     0.188 C 
BRANCH   2   3
ATOM      3  C   UNK d   1      16.465 -59.047  32.331  0.00  0.00     0.158 C 
BRANCH   3   4
ATOM      4  N   UNK d   1      15.688 -60.003  33.045  0.00  0.00    -0.316 N 
ATOM      5  C   UNK d   1      15.853 -61.312  33.227  0.00  0.00     0.180 A 
ATOM      6 Br   UNK d   1      17.215 -62.425  32.476  0.00  0.00    -0.008 Br
ATOM      7  N   UNK d   1      14.880 -61.829  34.012  0.00  0.00    -0.203 NA
ATOM      8  C   UNK d   1      14.082 -60.818  34.327  0.00  0.00     0.169 A 
ATOM      9  C   UNK d   1      14.563 -59.670  33.736  0.00  0.00     0.152 A 
ATOM     10  N   UNK d   1      12.948 -60.748  35.079  0.00  0.00    -0.286 N 
ATOM     11  C   UNK d   1      13.928 -58.453  33.884  0.00  0.00     0.280 A 
ATOM     12  N   UNK d   1      12.798 -58.449  34.647  0.00  0.00    -0.273 N 
ATOM     13  O   UNK d   1      14.349 -57.397  33.351  0.00  0.00    -0.265 OA
ATOM     14  C   UNK d   1      12.338 -59.573  35.219  0.00  0.00     0.330 A 
ATOM     15  H   UNK d   1      12.310 -57.536  34.765  0.00  0.00     0.173 HD
ATOM     16  O   UNK d   1      11.287 -59.539  35.923  0.00  0.00    -0.246 OA
ATOM     17  C   UNK d   1      12.410 -61.932  35.717  0.00  0.00     0.163 C 
ENDBRANCH   3   4
ENDBRANCH   2   3
ENDBRANCH   1   2
BRANCH   1  18
ATOM     18  C   UNK d   1      17.753 -56.178  33.420  0.00  0.00     0.188 C 
BRANCH  18  19
ATOM     19  C   UNK d   1      18.479 -56.286  34.727  0.00  0.00     0.158 C 
BRANCH  19  20
ATOM     20  N   UNK d   1      18.075 -55.275  35.652  0.00  0.00    -0.316 N 
ATOM     21  C   UNK d   1      17.138 -55.409  36.600  0.00  0.00     0.152 A 
ATOM     22  C   UNK d   1      17.045 -54.224  37.262  0.00  0.00     0.169 A 
ATOM     23  C   UNK d   1      16.335 -56.468  36.973  0.00  0.00     0.280 A 
ATOM     24  N   UNK d   1      17.925 -53.399  36.701  0.00  0.00    -0.203 NA
ATOM     25  N   UNK d   1      16.172 -54.085  38.275  0.00  0.00    -0.286 N 
ATOM     26  C   UNK d   1      18.581 -54.012  35.702  0.00  0.00     0.180 A 
ATOM     27 Br   UNK d   1      19.937 -53.339  34.555  0.00  0.00    -0.008 Br
ATOM     28  C   UNK d   1      15.407 -55.119  38.617  0.00  0.00     0.330 A 
ATOM     29  C   UNK d   1      16.058 -52.831  38.990  0.00  0.00     0.163 C 
ATOM     30  O   UNK d   1      14.594 -54.975  39.568  0.00  0.00    -0.246 OA
ATOM     31  N   UNK d   1      15.484 -56.284  37.985  0.00  0.00    -0.273 N 
ATOM     32  H   UNK d   1      14.876 -57.082  38.268  0.00  0.00     0.173 HD
ATOM     33  O   UNK d   1      16.378 -57.600  36.393  0.00  0.00    -0.265 OA
ENDBRANCH  19  20
ENDBRANCH  18  19
ENDBRANCH   1  18
TORSDOF 6
ENDMDL
