MODEL 1
REMARK VINA RESULT:    -8.841      0.000      0.000
REMARK INTER + INTRA:         -12.838
REMARK INTER:                 -11.942
REMARK INTRA:                  -0.897
REMARK UNBOUND:                -0.897
REMARK  6 active torsions:
REMARK  status: ('A' for Active; 'I' for Inactive)
REMARK    1  A    between atoms: C_6  and  C_8 
REMARK       I    between atoms: C_8  and  N_10 
REMARK    2  A    between atoms: N_10  and  C_11 
REMARK    3  A    between atoms: C_11  and  C_12 
REMARK    4  A    between atoms: C_12  and  N_13 
REMARK    5  A    between atoms: C_16  and  C_18 
REMARK    6  A    between atoms: C_20  and  C_23 
ROOT
ATOM      1  N   UNK d   1      14.762 -57.745  37.460  0.00  0.00    -0.281 N 
ATOM      2  N   UNK d   1      15.722 -58.637  37.643  0.00  0.00     0.005 NA
ATOM      3  N   UNK d   1      16.446 -58.773  36.540  0.00  0.00    -0.154 NA
ATOM      4  C   UNK d   1      15.964 -57.955  35.590  0.00  0.00     0.146 A 
ATOM      5  C   UNK d   1      14.902 -57.311  36.179  0.00  0.00     0.145 A 
ENDROOT
BRANCH   1   6
ATOM      6  C   UNK d   1      13.744 -57.298  38.418  0.00  0.00     0.165 C 
BRANCH   6   7
ATOM      7  C   UNK d   1      14.394 -56.208  39.240  0.00  0.00     0.144 C 
BRANCH   7   8
ATOM      8  N   UNK d   1      15.496 -55.599  38.511  0.00  0.00    -0.355 N 
ATOM      9  C   UNK d   1      15.775 -54.226  38.747  0.00  0.00     0.253 C 
ATOM     10  O   UNK d   1      15.064 -53.571  39.579  0.00  0.00    -0.268 OA
ATOM     11  H   UNK d   1      16.066 -56.146  37.836  0.00  0.00     0.162 HD
BRANCH   9  12
ATOM     12  C   UNK d   1      16.852 -53.517  38.073  0.00  0.00     0.050 A 
ATOM     13  C   UNK d   1      17.064 -52.193  38.334  0.00  0.00     0.133 A 
ATOM     14  N   UNK d   1      18.032 -51.450  37.765  0.00  0.00    -0.271 NA
ATOM     15  C   UNK d   1      18.857 -52.041  36.869  0.00  0.00     0.135 A 
ATOM     16  C   UNK d   1      18.697 -53.373  36.560  0.00  0.00     0.029 A 
ATOM     17 Br   UNK d   1      19.884 -54.165  35.291  0.00  0.00    -0.050 Br
ATOM     18  C   UNK d   1      17.689 -54.128  37.160  0.00  0.00     0.039 A 
ENDBRANCH   9  12
ENDBRANCH   7   8
ENDBRANCH   6   7
ENDBRANCH   1   6
BRANCH   4  19
ATOM     19  C   UNK d   1      16.455 -57.785  34.234  0.00  0.00     0.228 A 
ATOM     20  N   UNK d   1      17.644 -57.283  33.857  0.00  0.00    -0.198 NA
ATOM     21  C   UNK d   1      17.723 -57.289  32.516  0.00  0.00     0.191 A 
ATOM     22  N   UNK d   1      16.561 -57.804  32.085  0.00  0.00    -0.105 NA
ATOM     23  O   UNK d   1      15.835 -58.086  33.123  0.00  0.00    -0.189 OA
BRANCH  21  24
ATOM     24  C   UNK d   1      18.856 -56.824  31.687  0.00  0.00     0.032 A 
ATOM     25  C   UNK d   1      19.482 -57.700  30.831  0.00  0.00     0.131 A 
ATOM     26  N   UNK d   1      20.514 -57.288  30.070  0.00  0.00    -0.272 NA
ATOM     27  C   UNK d   1      20.988 -56.026  30.096  0.00  0.00     0.116 A 
ATOM     28  C   UNK d   1      20.352 -55.153  30.958  0.00  0.00     0.020 A 
ATOM     29  C   UNK d   1      19.299 -55.531  31.750  0.00  0.00     0.018 A 
ENDBRANCH  21  24
ENDBRANCH   4  19
TORSDOF 6
ENDMDL
