MODEL 1
REMARK VINA RESULT:    -8.801      0.000      0.000
REMARK INTER + INTRA:         -13.023
REMARK INTER:                 -11.888
REMARK INTRA:                  -1.134
REMARK UNBOUND:                -1.134
REMARK  6 active torsions:
REMARK  status: ('A' for Active; 'I' for Inactive)
REMARK    1  A    between atoms: C_3  and  N_8 
REMARK       I    between atoms: N_11  and  C_14 
REMARK    2  A    between atoms: C_14  and  C_16 
REMARK    3  A    between atoms: N_18  and  C_26 
REMARK    4  A    between atoms: C_26  and  C_27 
REMARK    5  A    between atoms: C_27  and  C_28 
REMARK    6  A    between atoms: C_28  and  O_29 
ROOT
ATOM      1  C   UNK d   1      18.107 -56.460  34.790  0.00  0.00     0.079 A 
ATOM      2  C   UNK d   1      17.692 -56.064  36.031  0.00  0.00     0.110 A 
ATOM      3  N   UNK d   1      17.977 -54.845  36.585  0.00  0.00    -0.364 N 
ATOM      4  C   UNK d   1      18.704 -54.001  35.859  0.00  0.00     0.110 A 
ATOM      5  C   UNK d   1      19.165 -54.308  34.606  0.00  0.00     0.080 A 
ATOM      6  C   UNK d   1      18.853 -55.604  34.034  0.00  0.00     0.111 A 
ATOM      7  N   UNK d   1      19.426 -55.621  32.816  0.00  0.00    -0.170 NA
ATOM      8  N   UNK d   1      20.048 -54.476  32.593  0.00  0.00    -0.242 N 
ATOM      9  C   UNK d   1      19.917 -53.656  33.644  0.00  0.00     0.275 A 
ATOM     10  O   UNK d   1      20.367 -52.482  33.810  0.00  0.00    -0.266 OA
ATOM     11  H   UNK d   1      20.589 -54.189  31.730  0.00  0.00     0.192 HD
ENDROOT
BRANCH   1  12
ATOM     12  C   UNK d   1      17.758 -57.775  34.276  0.00  0.00     0.257 C 
ATOM     13  N   UNK d   1      16.553 -58.017  33.582  0.00  0.00    -0.345 N 
ATOM     14  C   UNK d   1      16.179 -59.305  33.061  0.00  0.00     0.146 C 
ATOM     15  C   UNK d   1      15.638 -56.924  33.375  0.00  0.00     0.146 C 
ATOM     16  C   UNK d   1      14.723 -59.536  33.377  0.00  0.00     0.143 C 
ATOM     17  N   UNK d   1      14.207 -58.634  34.373  0.00  0.00    -0.376 N 
ATOM     18  C   UNK d   1      14.448 -57.185  34.309  0.00  0.00     0.143 C 
ATOM     19  O   UNK d   1      18.595 -58.703  34.483  0.00  0.00    -0.267 OA
BRANCH  17  20
ATOM     20  C   UNK d   1      13.442 -59.099  35.460  0.00  0.00     0.052 A 
ATOM     21  C   UNK d   1      13.957 -59.171  36.736  0.00  0.00     0.060 A 
ATOM     22 Cl   UNK d   1      15.625 -58.669  37.027  0.00  0.00    -0.082 Cl
ATOM     23  C   UNK d   1      13.198 -59.629  37.792  0.00  0.00     0.026 A 
ATOM     24  C   UNK d   1      11.902 -60.021  37.570  0.00  0.00     0.002 A 
ATOM     25  C   UNK d   1      11.341 -59.963  36.289  0.00  0.00     0.002 A 
ATOM     26  C   UNK d   1      12.147 -59.495  35.263  0.00  0.00     0.031 A 
ENDBRANCH  17  20
ENDBRANCH   1  12
BRANCH   3  27
ATOM     27  C   UNK d   1      17.517 -54.541  37.931  0.00  0.00     0.130 C 
BRANCH  27  28
ATOM     28  C   UNK d   1      16.289 -53.751  38.029  0.00  0.00     0.046 C 
BRANCH  28  29
ATOM     29  C   UNK d   1      15.419 -53.719  39.206  0.00  0.00     0.168 C 
BRANCH  29  30
ATOM     30  O   UNK d   1      14.671 -54.773  39.571  0.00  0.00    -0.396 OA
ATOM     31  C   UNK d   1      14.317 -55.755  38.740  0.00  0.00     0.201 C 
ENDBRANCH  29  30
ENDBRANCH  28  29
ENDBRANCH  27  28
ENDBRANCH   3  27
TORSDOF 6
ENDMDL
