/Users/jonathanwahrer/Desktop/Msc/3_Semester/Drug_Design_Praktikum/waehrer_HTS_screening/HTS_experiment/out/docking_results/vina_output/6s1j/1471_docked.pdbqt
 OpenBabel03222222083D

 31 34  0  0  0  0  0  0  0  0999 V2000
   18.1070  -56.4600   34.7900 C   0  0  0  0  0  0  0  0  0  0  0  0
   17.6920  -56.0640   36.0310 C   0  0  0  0  0  2  0  0  0  0  0  0
   17.9770  -54.8450   36.5850 N   0  0  0  0  0  0  0  0  0  0  0  0
   18.7040  -54.0010   35.8590 C   0  0  0  0  0  3  0  0  0  0  0  0
   19.1650  -54.3080   34.6060 C   0  0  0  0  0  0  0  0  0  0  0  0
   18.8530  -55.6040   34.0340 C   0  0  0  0  0  0  0  0  0  0  0  0
   19.4260  -55.6210   32.8160 N   0  0  0  0  0  2  0  0  0  0  0  0
   20.0480  -54.4760   32.5930 N   0  0  0  0  0  0  0  0  0  0  0  0
   19.9170  -53.6560   33.6440 C   0  0  0  0  0  0  0  0  0  0  0  0
   20.3670  -52.4820   33.8100 O   0  0  0  0  0  0  0  0  0  0  0  0
   20.5890  -54.1890   31.7300 H   0  0  0  0  0  0  0  0  0  0  0  0
   17.7580  -57.7750   34.2760 C   0  0  0  0  0  0  0  0  0  0  0  0
   16.5530  -58.0170   33.5820 N   0  0  0  0  0  0  0  0  0  0  0  0
   16.1790  -59.3050   33.0610 C   0  0  0  0  0  2  0  0  0  0  0  0
   15.6380  -56.9240   33.3750 C   0  0  0  0  0  2  0  0  0  0  0  0
   14.7230  -59.5360   33.3770 C   0  0  0  0  0  2  0  0  0  0  0  0
   14.2070  -58.6340   34.3730 N   0  0  0  0  0  0  0  0  0  0  0  0
   14.4480  -57.1850   34.3090 C   0  0  0  0  0  2  0  0  0  0  0  0
   18.5950  -58.7030   34.4830 O   0  0  0  0  0  0  0  0  0  0  0  0
   13.4420  -59.0990   35.4600 C   0  0  0  0  0  0  0  0  0  0  0  0
   13.9570  -59.1710   36.7360 C   0  0  0  0  0  0  0  0  0  0  0  0
   15.6250  -58.6690   37.0270 Cl  0  0  0  0  0  0  0  0  0  0  0  0
   13.1980  -59.6290   37.7920 C   0  0  0  0  0  3  0  0  0  0  0  0
   11.9020  -60.0210   37.5700 C   0  0  0  0  0  3  0  0  0  0  0  0
   11.3410  -59.9630   36.2890 C   0  0  0  0  0  3  0  0  0  0  0  0
   12.1470  -59.4950   35.2630 C   0  0  0  0  0  3  0  0  0  0  0  0
   17.5170  -54.5410   37.9310 C   0  0  0  0  0  2  0  0  0  0  0  0
   16.2890  -53.7510   38.0290 C   0  0  0  0  0  2  0  0  0  0  0  0
   15.4190  -53.7190   39.2060 C   0  0  0  0  0  2  0  0  0  0  0  0
   14.6710  -54.7730   39.5710 O   0  0  0  0  0  0  0  0  0  0  0  0
   14.3170  -55.7550   38.7400 C   0  0  0  0  0  1  0  0  0  0  0  0
  1  2  1  0  0  0  0
  2  3  1  0  0  0  0
  3 27  1  0  0  0  0
  4  3  1  0  0  0  0
  5  4  2  0  0  0  0
  6  5  1  0  0  0  0
  6  1  2  0  0  0  0
  7  6  1  0  0  0  0
  8  7  1  0  0  0  0
  8  9  1  0  0  0  0
  9 10  2  0  0  0  0
  9  5  1  0  0  0  0
 11  8  1  0  0  0  0
 12 19  2  0  0  0  0
 12  1  1  0  0  0  0
 13 12  1  0  0  0  0
 14 16  1  0  0  0  0
 14 13  1  0  0  0  0
 15 13  1  0  0  0  0
 15 18  1  0  0  0  0
 16 17  1  0  0  0  0
 17 20  1  0  0  0  0
 18 17  1  0  0  0  0
 20 21  1  0  0  0  0
 21 22  1  0  0  0  0
 21 23  2  0  0  0  0
 24 23  1  0  0  0  0
 25 24  2  0  0  0  0
 26 20  2  0  0  0  0
 26 25  1  0  0  0  0
 27 28  1  0  0  0  0
 28 29  1  0  0  0  0
 29 30  1  0  0  0  0
 31 30  1  0  0  0  0
M  END
>  <Pose>
1

>  <Score>
-8.801

$$$$
