/Users/jonathanwahrer/Desktop/Msc/3_Semester/Drug_Design_Praktikum/waehrer_HTS_screening/HTS_experiment/out/docking_results/vina_output/6s1j/1477_docked.pdbqt
 OpenBabel03222222083D

 35 39  0  0  1  0  0  0  0  0999 V2000
   15.4930  -56.9170   35.5630 C   0  0  2  0  0  3  0  0  0  0  0  0
   15.6000  -56.4580   36.8780 N   0  0  0  0  0  0  0  0  0  0  0  0
   14.9030  -57.4210   37.7250 C   0  0  0  0  0  0  0  0  0  0  0  0
   14.8750  -57.4600   38.9810 O   0  0  0  0  0  0  0  0  0  0  0  0
   14.2000  -58.3850   36.8930 C   0  0  0  0  0  0  0  0  0  0  0  0
   13.4950  -59.3670   37.3020 O   0  0  0  0  0  0  0  0  0  0  0  0
   14.4660  -58.0080   35.5300 C   0  0  2  0  0  3  0  0  0  0  0  0
   13.9310  -58.5660   34.4640 C   0  0  2  0  0  3  0  0  0  0  0  0
   13.3000  -57.6710   33.5690 O   0  0  0  0  0  1  0  0  0  0  0  0
   13.9290  -59.9810   34.1440 C   0  0  0  0  0  0  0  0  0  0  0  0
   14.8500  -60.7930   33.6020 N   0  0  0  0  0  0  0  0  0  0  0  0
   14.4020  -62.0470   33.4390 C   0  0  0  0  0  0  0  0  0  0  0  0
   16.1260  -60.4920   33.2380 C   0  0  0  0  0  3  0  0  0  0  0  0
   13.1300  -62.0470   33.8980 N   0  0  0  0  0  0  0  0  0  0  0  0
   15.1900  -63.0530   32.9130 C   0  0  0  0  0  3  0  0  0  0  0  0
   12.8110  -60.8240   34.3300 C   0  0  0  0  0  0  0  0  0  0  0  0
   11.5280  -60.3970   34.9040 C   0  0  0  0  0  1  0  0  0  0  0  0
   16.4750  -62.7600   32.5420 C   0  0  0  0  0  3  0  0  0  0  0  0
   16.9370  -61.4690   32.7100 C   0  0  0  0  0  3  0  0  0  0  0  0
   16.6410  -57.2260   34.7330 C   0  0  0  0  0  0  0  0  0  0  0  0
   16.7750  -56.6470   33.4640 C   0  0  0  0  0  3  0  0  0  0  0  0
   17.8870  -56.8920   32.6890 C   0  0  0  0  0  0  0  0  0  0  0  0
   18.0650  -56.1020   30.9730 Br  0  0  0  0  0  0  0  0  0  0  0  0
   18.9020  -57.7150   33.1360 C   0  0  0  0  0  3  0  0  0  0  0  0
   18.8050  -58.3050   34.3830 C   0  0  0  0  0  3  0  0  0  0  0  0
   17.6870  -58.0340   35.1180 C   0  0  0  0  0  3  0  0  0  0  0  0
   16.1600  -55.2520   37.3700 C   0  0  0  0  0  2  0  0  0  0  0  0
   17.6010  -55.0160   37.3570 C   0  0  0  0  0  2  0  0  0  0  0  0
   18.2230  -54.2140   38.3690 N   0  0  0  0  0  4  0  0  0  0  0  0
   19.5480  -53.8550   37.8640 C   0  0  0  0  0  2  0  0  0  0  0  0
   19.5430  -52.5890   37.0690 C   0  0  0  0  0  2  0  0  0  0  0  0
   18.2320  -52.1950   36.7600 O   0  0  0  0  0  0  0  0  0  0  0  0
   17.6490  -51.8840   37.9680 C   0  0  0  0  0  2  0  0  0  0  0  0
   17.4360  -53.1030   38.7860 C   0  0  0  0  0  2  0  0  0  0  0  0
   18.4550  -54.7850   39.2350 H   0  0  0  0  0  0  0  0  0  0  0  0
  1 20  1  1  0  0  0
  1  2  1  0  0  0  0
  2 27  1  0  0  0  0
  2  3  1  0  0  0  0
  3  4  2  0  0  0  0
  5  6  2  0  0  0  0
  5  3  1  0  0  0  0
  7  8  1  6  0  0  0
  7  1  1  0  0  0  0
  7  5  1  0  0  0  0
  8  9  1  1  0  0  0
 10 16  2  0  0  0  0
 10  8  1  0  0  0  0
 11 10  1  0  0  0  0
 12 11  1  0  0  0  0
 12 14  2  0  0  0  0
 13 11  1  0  0  0  0
 14 16  1  0  0  0  0
 15 12  1  0  0  0  0
 16 17  1  0  0  0  0
 18 19  1  0  0  0  0
 18 15  2  0  0  0  0
 19 13  2  0  0  0  0
 20 26  1  0  0  0  0
 21 20  2  0  0  0  0
 22 24  2  0  0  0  0
 22 21  1  0  0  0  0
 23 22  1  0  0  0  0
 24 25  1  0  0  0  0
 25 26  2  0  0  0  0
 28 27  1  0  0  0  0
 28 29  1  0  0  0  0
 29 34  1  0  0  0  0
 29 35  1  0  0  0  0
 30 29  1  0  0  0  0
 31 30  1  0  0  0  0
 32 31  1  0  0  0  0
 32 33  1  0  0  0  0
 33 34  1  0  0  0  0
M  END
>  <Pose>
1

>  <Score>
-8.720

$$$$
