MODEL 1
REMARK VINA RESULT:    -8.720      0.000      0.000
REMARK INTER + INTRA:         -13.674
REMARK INTER:                 -11.779
REMARK INTRA:                  -1.895
REMARK UNBOUND:                -1.895
REMARK  6 active torsions:
REMARK  status: ('A' for Active; 'I' for Inactive)
REMARK    1  A    between atoms: C_4  and  C_8 
REMARK    2  A    between atoms: N_9  and  C_27 
REMARK    3  A    between atoms: C_14  and  C_15 
REMARK    4  A    between atoms: C_15  and  C_17 
REMARK    5  A    between atoms: C_27  and  C_28 
REMARK    6  A    between atoms: C_28  and  N_29 
ROOT
ATOM      1  C   UNK d   1      15.493 -56.917  35.563  0.00  0.00     0.161 C 
ATOM      2  N   UNK d   1      15.600 -56.458  36.878  0.00  0.00    -0.331 N 
ATOM      3  C   UNK d   1      14.903 -57.421  37.725  0.00  0.00     0.295 C 
ATOM      4  O   UNK d   1      14.875 -57.460  38.981  0.00  0.00    -0.264 OA
ATOM      5  C   UNK d   1      14.200 -58.385  36.893  0.00  0.00     0.251 C 
ATOM      6  O   UNK d   1      13.495 -59.367  37.302  0.00  0.00    -0.282 OA
ATOM      7  C   UNK d   1      14.466 -58.008  35.530  0.00  0.00     0.064 C 
ENDROOT
BRANCH   7   8
ATOM      8  C   UNK d   1      13.931 -58.566  34.464  0.00  0.00     0.149 C 
ATOM      9  O   UNK d   1      13.300 -57.671  33.569  0.00  0.00    -0.189 OA
BRANCH   8  10
ATOM     10  C   UNK d   1      13.929 -59.981  34.144  0.00  0.00     0.102 A 
ATOM     11  N   UNK d   1      14.850 -60.793  33.602  0.00  0.00    -0.302 N 
ATOM     12  C   UNK d   1      14.402 -62.047  33.439  0.00  0.00     0.134 A 
ATOM     13  C   UNK d   1      16.126 -60.492  33.238  0.00  0.00     0.099 A 
ATOM     14  N   UNK d   1      13.130 -62.047  33.898  0.00  0.00    -0.233 NA
ATOM     15  C   UNK d   1      15.190 -63.053  32.913  0.00  0.00     0.051 A 
ATOM     16  C   UNK d   1      12.811 -60.824  34.330  0.00  0.00     0.063 A 
ATOM     17  C   UNK d   1      11.528 -60.397  34.904  0.00  0.00     0.073 C 
ATOM     18  C   UNK d   1      16.475 -62.760  32.542  0.00  0.00     0.005 A 
ATOM     19  C   UNK d   1      16.937 -61.469  32.710  0.00  0.00     0.018 A 
ENDBRANCH   8  10
ENDBRANCH   7   8
BRANCH   1  20
ATOM     20  C   UNK d   1      16.641 -57.226  34.733  0.00  0.00    -0.029 A 
ATOM     21  C   UNK d   1      16.775 -56.647  33.464  0.00  0.00     0.028 A 
ATOM     22  C   UNK d   1      17.887 -56.892  32.689  0.00  0.00     0.011 A 
ATOM     23 Br   UNK d   1      18.065 -56.102  30.973  0.00  0.00    -0.051 Br
ATOM     24  C   UNK d   1      18.902 -57.715  33.136  0.00  0.00     0.019 A 
ATOM     25  C   UNK d   1      18.805 -58.305  34.383  0.00  0.00     0.002 A 
ATOM     26  C   UNK d   1      17.687 -58.034  35.118  0.00  0.00     0.009 A 
ENDBRANCH   1  20
BRANCH   2  27
ATOM     27  C   UNK d   1      16.160 -55.252  37.370  0.00  0.00     0.155 C 
BRANCH  27  28
ATOM     28  C   UNK d   1      17.601 -55.016  37.357  0.00  0.00     0.255 C 
BRANCH  28  29
ATOM     29  N   UNK d   1      18.223 -54.214  38.369  0.00  0.00    -0.066 N 
ATOM     30  C   UNK d   1      19.548 -53.855  37.864  0.00  0.00     0.261 C 
ATOM     31  C   UNK d   1      19.543 -52.589  37.069  0.00  0.00     0.195 C 
ATOM     32  O   UNK d   1      18.232 -52.195  36.760  0.00  0.00    -0.388 OA
ATOM     33  C   UNK d   1      17.649 -51.884  37.968  0.00  0.00     0.195 C 
ATOM     34  C   UNK d   1      17.436 -53.103  38.786  0.00  0.00     0.261 C 
ATOM     35  H   UNK d   1      18.455 -54.785  39.235  0.00  0.00     0.280 HD
ENDBRANCH  28  29
ENDBRANCH  27  28
ENDBRANCH   2  27
TORSDOF 6
ENDMDL
