MODEL 1
REMARK VINA RESULT:    -8.156      0.000      0.000
REMARK INTER + INTRA:         -10.651
REMARK INTER:                  -9.825
REMARK INTRA:                  -0.826
REMARK UNBOUND:                -0.826
REMARK  4 active torsions:
REMARK  status: ('A' for Active; 'I' for Inactive)
REMARK    1  A    between atoms: C_4  and  N_8 
REMARK    2  A    between atoms: C_10  and  O_18 
REMARK    3  A    between atoms: C_10  and  C_19 
REMARK    4  A    between atoms: C_21  and  N_25 
ROOT
ATOM      1  N   UNK d   1      16.598 -57.848  36.814  0.00  0.00     0.009 N 
ATOM      2  C   UNK d   1      17.753 -57.567  35.998  0.00  0.00     0.316 C 
ATOM      3  C   UNK d   1      17.587 -58.083  34.630  0.00  0.00     0.189 C 
ATOM      4  N   UNK d   1      16.302 -58.722  34.666  0.00  0.00    -0.324 N 
ATOM      5  C   UNK d   1      15.706 -59.754  33.852  0.00  0.00     0.128 C 
ATOM      6  C   UNK d   1      14.456 -59.354  33.137  0.00  0.00     0.020 C 
ATOM      7  C   UNK d   1      13.880 -58.045  33.549  0.00  0.00     0.005 C 
ATOM      8  C   UNK d   1      13.199 -58.236  34.923  0.00  0.00     0.031 C 
ATOM      9  C   UNK d   1      14.304 -57.944  35.922  0.00  0.00     0.030 C 
ATOM     10  C   UNK d   1      15.595 -58.157  35.804  0.00  0.00     0.208 C 
ATOM     11  H   UNK d   1      16.642 -58.653  37.429  0.00  0.00     0.295 HD
ENDROOT
BRANCH   3  12
ATOM     12  O   UNK d   1      18.540 -59.113  34.394  0.00  0.00    -0.365 OA
ATOM     13  H   UNK d   1      18.273 -59.525  33.507  0.00  0.00     0.213 HD
ENDBRANCH   3  12
BRANCH   3  14
ATOM     14  C   UNK d   1      17.761 -57.150  33.543  0.00  0.00     0.001 A 
ATOM     15  C   UNK d   1      18.494 -57.442  32.392  0.00  0.00     0.048 A 
ATOM     16  C   UNK d   1      18.637 -56.550  31.338  0.00  0.00     0.103 A 
ATOM     17  C   UNK d   1      18.020 -55.303  31.430  0.00  0.00     0.036 A 
ATOM     18  C   UNK d   1      17.295 -54.977  32.540  0.00  0.00     0.003 A 
ATOM     19  C   UNK d   1      17.173 -55.906  33.585  0.00  0.00     0.012 A 
BRANCH  16  20
ATOM     20  N   UNK d   1      19.395 -56.913  30.201  0.00  0.00    -0.116 N 
ATOM     21  O   UNK d   1      19.352 -56.186  29.160  0.00  0.00    -0.532 OA
ATOM     22  O   UNK d   1      20.175 -58.007  30.147  0.00  0.00    -0.532 OA
ENDBRANCH  16  20
ENDBRANCH   3  14
BRANCH   1  23
ATOM     23  C   UNK d   1      16.070 -56.739  37.526  0.00  0.00     0.143 A 
ATOM     24  C   UNK d   1      16.487 -55.449  37.312  0.00  0.00     0.061 A 
ATOM     25  C   UNK d   1      16.047 -54.381  38.089  0.00  0.00     0.036 A 
ATOM     26 Cl   UNK d   1      16.588 -52.744  37.749  0.00  0.00    -0.084 Cl
ATOM     27  C   UNK d   1      15.155 -54.599  39.120  0.00  0.00     0.024 A 
ATOM     28  C   UNK d   1      14.716 -55.872  39.369  0.00  0.00     0.004 A 
ATOM     29  C   UNK d   1      15.169 -56.925  38.582  0.00  0.00     0.038 A 
ENDBRANCH   1  23
TORSDOF 4
ENDMDL
