/Users/jonathanwahrer/Desktop/Msc/3_Semester/Drug_Design_Praktikum/waehrer_HTS_screening/HTS_experiment/out/docking_results/vina_output/6s1j/1487_docked.pdbqt
 OpenBabel03222222093D

 29 32  0  0  1  0  0  0  0  0999 V2000
   16.5980  -57.8480   36.8140 N   0  0  0  0  0  4  0  0  0  0  0  0
   17.7530  -57.5670   35.9980 C   0  0  0  0  0  2  0  0  0  0  0  0
   17.5870  -58.0830   34.6300 C   0  0  2  0  0  0  0  0  0  0  0  0
   16.3020  -58.7220   34.6660 N   0  0  0  0  0  0  0  0  0  0  0  0
   15.7060  -59.7540   33.8520 C   0  0  0  0  0  3  0  0  0  0  0  0
   14.4560  -59.3540   33.1370 C   0  0  0  0  0  3  0  0  0  0  0  0
   13.8800  -58.0450   33.5490 C   0  0  0  0  0  2  0  0  0  0  0  0
   13.1990  -58.2360   34.9230 C   0  0  0  0  0  2  0  0  0  0  0  0
   14.3040  -57.9440   35.9220 C   0  0  0  0  0  3  0  0  0  0  0  0
   15.5950  -58.1570   35.8040 C   0  0  0  0  0  0  0  0  0  0  0  0
   16.6420  -58.6530   37.4290 H   0  0  0  0  0  0  0  0  0  0  0  0
   18.5400  -59.1130   34.3940 O   0  0  0  0  0  0  0  0  0  0  0  0
   18.2730  -59.5250   33.5070 H   0  0  0  0  0  0  0  0  0  0  0  0
   17.7610  -57.1500   33.5430 C   0  0  0  0  0  0  0  0  0  0  0  0
   18.4940  -57.4420   32.3920 C   0  0  0  0  0  3  0  0  0  0  0  0
   18.6370  -56.5500   31.3380 C   0  0  0  0  0  0  0  0  0  0  0  0
   18.0200  -55.3030   31.4300 C   0  0  0  0  0  3  0  0  0  0  0  0
   17.2950  -54.9770   32.5400 C   0  0  0  0  0  3  0  0  0  0  0  0
   17.1730  -55.9060   33.5850 C   0  0  0  0  0  3  0  0  0  0  0  0
   19.3950  -56.9130   30.2010 N   0  0  0  0  0  0  0  0  0  0  0  0
   19.3520  -56.1860   29.1600 O   0  0  0  0  0  0  0  0  0  0  0  0
   20.1750  -58.0070   30.1470 O   0  0  0  0  0  0  0  0  0  0  0  0
   16.0700  -56.7390   37.5260 C   0  0  0  0  0  0  0  0  0  0  0  0
   16.4870  -55.4490   37.3120 C   0  0  0  0  0  3  0  0  0  0  0  0
   16.0470  -54.3810   38.0890 C   0  0  0  0  0  0  0  0  0  0  0  0
   16.5880  -52.7440   37.7490 Cl  0  0  0  0  0  0  0  0  0  0  0  0
   15.1550  -54.5990   39.1200 C   0  0  0  0  0  3  0  0  0  0  0  0
   14.7160  -55.8720   39.3690 C   0  0  0  0  0  3  0  0  0  0  0  0
   15.1690  -56.9250   38.5820 C   0  0  0  0  0  3  0  0  0  0  0  0
  1 11  1  0  0  0  0
  1 23  1  0  0  0  0
  2  1  1  0  0  0  0
  3 12  1  6  0  0  0
  3  4  1  0  0  0  0
  3  2  1  0  0  0  0
  4 10  1  0  0  0  0
  5  4  1  0  0  0  0
  6  7  1  0  0  0  0
  6  5  2  0  0  0  0
  7  8  1  0  0  0  0
  8  9  1  0  0  0  0
 10  9  2  0  0  0  0
 10  1  1  0  0  0  0
 13 12  1  0  0  0  0
 14 19  1  0  0  0  0
 14  3  1  0  0  0  0
 15 14  2  0  0  0  0
 16 17  2  0  0  0  0
 16 15  1  0  0  0  0
 17 18  1  0  0  0  0
 18 19  2  0  0  0  0
 20 16  1  0  0  0  0
 21 20  2  0  0  0  0
 22 20  2  0  0  0  0
 23 29  1  0  0  0  0
 24 23  2  0  0  0  0
 24 25  1  0  0  0  0
 25 27  2  0  0  0  0
 26 25  1  0  0  0  0
 27 28  1  0  0  0  0
 29 28  2  0  0  0  0
M  END
>  <Pose>
1

>  <Score>
-8.156

$$$$
