MODEL 1
REMARK VINA RESULT:    -9.431      0.000      0.000
REMARK INTER + INTRA:         -12.297
REMARK INTER:                 -11.637
REMARK INTRA:                  -0.660
REMARK UNBOUND:                -0.660
REMARK  4 active torsions:
REMARK  status: ('A' for Active; 'I' for Inactive)
REMARK    1  A    between atoms: C_7  and  N_8 
REMARK    2  A    between atoms: C_14  and  C_16 
REMARK    3  A    between atoms: N_23  and  C_31 
REMARK    4  A    between atoms: C_25  and  C_28 
ROOT
ATOM      1  F   UNK d   1      20.814 -53.929  32.509  0.00  0.00    -0.204 F 
ATOM      2  C   UNK d   1      19.876 -54.477  33.302  0.00  0.00     0.151 A 
ATOM      3  C   UNK d   1      19.816 -53.923  34.578  0.00  0.00     0.062 A 
ATOM      4  C   UNK d   1      18.897 -54.380  35.496  0.00  0.00     0.045 A 
ATOM      5  C   UNK d   1      18.049 -55.391  35.113  0.00  0.00     0.051 A 
ATOM      6  C   UNK d   1      18.123 -55.931  33.833  0.00  0.00     0.071 A 
ATOM      7  C   UNK d   1      19.033 -55.486  32.912  0.00  0.00     0.175 A 
ATOM      8  N   UNK d   1      17.157 -55.822  36.028  0.00  0.00    -0.350 N 
ATOM      9  C   UNK d   1      17.080 -55.303  37.266  0.00  0.00     0.114 A 
ATOM     10  C   UNK d   1      17.916 -54.290  37.681  0.00  0.00     0.107 A 
ATOM     11  C   UNK d   1      18.842 -53.819  36.780  0.00  0.00     0.202 A 
ATOM     12  O   UNK d   1      19.632 -52.898  37.092  0.00  0.00    -0.286 OA
ENDROOT
BRANCH   7  13
ATOM     13  N   UNK d   1      19.083 -56.059  31.641  0.00  0.00    -0.035 N 
ATOM     14  C   UNK d   1      17.809 -56.299  31.014  0.00  0.00     0.261 C 
ATOM     15  C   UNK d   1      18.023 -56.793  29.564  0.00  0.00     0.153 C 
ATOM     16  N   UNK d   1      18.694 -58.027  29.681  0.00  0.00    -0.356 N 
ATOM     17  C   UNK d   1      20.102 -57.808  30.195  0.00  0.00     0.153 C 
ATOM     18  C   UNK d   1      18.321 -59.313  29.482  0.00  0.00     0.187 C 
ATOM     19  C   UNK d   1      19.869 -57.247  31.564  0.00  0.00     0.261 C 
ATOM     20  O   UNK d   1      19.274 -60.203  29.626  0.00  0.00    -0.171 OA
ATOM     21  H   UNK d   1      19.571 -55.348  31.014  0.00  0.00     0.287 HD
BRANCH  18  22
ATOM     22  C   UNK d   1      17.053 -59.890  29.134  0.00  0.00     0.019 A 
ATOM     23  C   UNK d   1      16.388 -60.796  29.896  0.00  0.00     0.039 A 
ATOM     24  C   UNK d   1      15.136 -61.286  29.547  0.00  0.00     0.035 A 
ATOM     25  C   UNK d   1      14.545 -60.846  28.391  0.00  0.00     0.024 A 
ATOM     26 Cl   UNK d   1      14.309 -62.461  30.572  0.00  0.00    -0.084 Cl
ATOM     27  C   UNK d   1      15.171 -59.937  27.586  0.00  0.00     0.003 A 
ATOM     28  C   UNK d   1      16.397 -59.474  27.956  0.00  0.00     0.016 A 
ENDBRANCH  18  22
ENDBRANCH   7  13
BRANCH   8  29
ATOM     29  C   UNK d   1      16.259 -56.902  35.601  0.00  0.00     0.090 A 
ATOM     30  C   UNK d   1      15.355 -57.554  36.553  0.00  0.00     0.028 A 
ATOM     31  C   UNK d   1      16.589 -58.283  36.259  0.00  0.00     0.028 A 
ENDBRANCH   8  29
BRANCH  10  32
ATOM     32  C   UNK d   1      17.819 -53.732  39.044  0.00  0.00     0.214 C 
ATOM     33  O   UNK d   1      18.586 -54.071  39.959  0.00  0.00    -0.644 OA
ATOM     34  O   UNK d   1      16.837 -52.800  39.292  0.00  0.00    -0.644 OA
ENDBRANCH  10  32
TORSDOF 4
ENDMDL
