MODEL 1
REMARK VINA RESULT:   -10.282      0.000      0.000
REMARK INTER + INTRA:         -15.396
REMARK INTER:                 -13.888
REMARK INTRA:                  -1.507
REMARK UNBOUND:                -1.507
REMARK  6 active torsions:
REMARK  status: ('A' for Active; 'I' for Inactive)
REMARK    1  A    between atoms: C_5  and  C_8 
REMARK       I    between atoms: C_8  and  N_10 
REMARK    2  A    between atoms: N_10  and  C_11 
REMARK    3  A    between atoms: C_11  and  C_12 
REMARK    4  A    between atoms: C_12  and  N_13 
REMARK       I    between atoms: N_13  and  C_14 
REMARK    5  A    between atoms: C_14  and  C_16 
REMARK    6  A    between atoms: N_19  and  C_22 
ROOT
ATOM      1  N   UNK d   1      13.750 -57.146  37.145  0.00  0.00    -0.359 N 
ATOM      2  C   UNK d   1      13.856 -58.507  36.680  0.00  0.00     0.222 C 
ATOM      3  O   UNK d   1      13.806 -59.432  37.505  0.00  0.00    -0.273 OA
ATOM      4  H   UNK d   1      13.769 -56.442  36.412  0.00  0.00     0.162 HD
ENDROOT
BRANCH   2   5
ATOM      5  C   UNK d   1      14.022 -58.824  35.242  0.00  0.00     0.081 C 
ATOM      6  C   UNK d   1      15.446 -59.285  35.026  0.00  0.00     0.034 C 
ATOM      7  C   UNK d   1      16.336 -58.070  35.169  0.00  0.00     0.125 C 
ATOM      8  N   UNK d   1      16.066 -57.245  33.996  0.00  0.00    -0.364 N 
ATOM      9  C   UNK d   1      14.751 -57.185  33.454  0.00  0.00     0.125 C 
ATOM     10  C   UNK d   1      13.673 -57.701  34.337  0.00  0.00     0.034 C 
BRANCH   8  11
ATOM     11  C   UNK d   1      17.150 -56.527  33.440  0.00  0.00     0.148 A 
ATOM     12  N   UNK d   1      17.740 -56.873  32.280  0.00  0.00    -0.129 NA
ATOM     13  N   UNK d   1      18.753 -56.215  31.749  0.00  0.00    -0.108 N 
ATOM     14  N   UNK d   1      19.449 -56.406  30.633  0.00  0.00    -0.021 NA
ATOM     15  C   UNK d   1      19.286 -55.133  32.327  0.00  0.00     0.196 A 
ATOM     16  N   UNK d   1      20.376 -55.495  30.508  0.00  0.00    -0.021 NA
ATOM     17  N   UNK d   1      20.295 -54.691  31.548  0.00  0.00    -0.107 NA
ATOM     18  C   UNK d   1      18.724 -54.726  33.524  0.00  0.00     0.060 A 
ATOM     19  C   UNK d   1      17.664 -55.413  34.081  0.00  0.00     0.056 A 
ENDBRANCH   8  11
ENDBRANCH   2   5
BRANCH   1  20
ATOM     20  C   UNK d   1      13.593 -56.950  38.532  0.00  0.00     0.142 C 
BRANCH  20  21
ATOM     21  C   UNK d   1      14.704 -56.511  39.391  0.00  0.00     0.142 C 
BRANCH  21  22
ATOM     22  N   UNK d   1      15.682 -55.648  38.847  0.00  0.00    -0.355 N 
ATOM     23  C   UNK d   1      15.853 -54.276  38.945  0.00  0.00     0.251 C 
ATOM     24  O   UNK d   1      15.079 -53.559  39.615  0.00  0.00    -0.268 OA
ATOM     25  H   UNK d   1      16.468 -56.118  38.216  0.00  0.00     0.162 HD
BRANCH  23  26
ATOM     26  C   UNK d   1      16.960 -53.560  38.268  0.00  0.00     0.032 A 
ATOM     27  C   UNK d   1      16.969 -52.183  38.242  0.00  0.00     0.018 A 
ATOM     28  C   UNK d   1      17.978 -51.476  37.633  0.00  0.00     0.025 A 
ATOM     29  C   UNK d   1      19.017 -52.163  37.027  0.00  0.00     0.034 A 
ATOM     30 Cl   UNK d   1      20.312 -51.271  36.245  0.00  0.00    -0.084 Cl
ATOM     31  C   UNK d   1      19.041 -53.532  37.035  0.00  0.00     0.025 A 
ATOM     32  C   UNK d   1      17.999 -54.218  37.663  0.00  0.00     0.018 A 
ENDBRANCH  23  26
ENDBRANCH  21  22
ENDBRANCH  20  21
ENDBRANCH   1  20
TORSDOF 6
ENDMDL
