/Users/jonathanwahrer/Desktop/Msc/3_Semester/Drug_Design_Praktikum/waehrer_HTS_screening/HTS_experiment/out/docking_results/vina_output/6s1j/1511_docked.pdbqt
 OpenBabel03222222103D

 34 37  0  0  0  0  0  0  0  0999 V2000
   15.7070  -57.7700   34.5000 N   0  0  0  0  0  0  0  0  0  0  0  0
   16.1840  -57.1950   35.6160 C   0  0  0  0  0  0  0  0  0  0  0  0
   17.3760  -56.8050   35.7180 O   0  0  0  0  0  0  0  0  0  0  0  0
   15.2040  -57.1040   36.5900 C   0  0  0  0  0  0  0  0  0  0  0  0
   14.1110  -57.6330   36.0540 C   0  0  0  0  0  0  0  0  0  0  0  0
   13.1620  -57.5440   36.9990 N   0  0  0  0  0  0  0  0  0  0  0  0
   13.6620  -56.9770   38.0820 N   0  0  0  0  0  0  0  0  0  0  0  0
   14.9170  -56.6980   37.8500 N   0  0  0  0  0  0  0  0  0  0  0  0
   14.4120  -58.0440   34.7730 C   0  0  0  0  0  0  0  0  0  0  0  0
   13.5950  -58.5980   33.9650 O   0  0  0  0  0  0  0  0  0  0  0  0
   12.1760  -57.8630   36.9270 H   0  0  0  0  0  0  0  0  0  0  0  0
   13.1560  -56.7710   38.9940 H   0  0  0  0  0  0  0  0  0  0  0  0
   15.8620  -56.0730   38.7460 C   0  0  0  0  0  2  0  0  0  0  0  0
   16.4300  -54.8400   38.0830 C   0  0  0  0  0  0  0  0  0  0  0  0
   15.6850  -53.8540   37.8870 O   0  0  0  0  0  0  0  0  0  0  0  0
   17.7780  -54.8080   37.6950 N   0  0  0  0  0  0  0  0  0  0  0  0
   18.3560  -55.6870   37.8950 H   0  0  0  0  0  0  0  0  0  0  0  0
   18.4330  -53.7240   37.0770 C   0  0  0  0  0  0  0  0  0  0  0  0
   19.1610  -53.7800   35.9150 C   0  0  0  0  0  3  0  0  0  0  0  0
   19.7950  -52.6830   35.3690 C   0  0  0  0  0  0  0  0  0  0  0  0
   19.6870  -51.4770   36.0280 C   0  0  0  0  0  0  0  0  0  0  0  0
   18.9600  -51.3780   37.2040 C   0  0  0  0  0  3  0  0  0  0  0  0
   18.3400  -52.4790   37.7280 C   0  0  0  0  0  3  0  0  0  0  0  0
   20.5280  -52.7710   34.1880 O   0  0  0  0  0  0  0  0  0  0  0  0
   20.2260  -53.8550   33.3000 C   0  0  0  0  0  1  0  0  0  0  0  0
   20.3190  -50.3580   35.4940 O   0  0  0  0  0  0  0  0  0  0  0  0
   20.0950  -49.0920   36.0840 C   0  0  0  0  0  1  0  0  0  0  0  0
   16.3580  -58.0580   33.2680 C   0  0  0  0  0  0  0  0  0  0  0  0
   16.6780  -59.3390   32.8690 C   0  0  0  0  0  3  0  0  0  0  0  0
   17.3150  -59.5840   31.6570 C   0  0  0  0  0  3  0  0  0  0  0  0
   17.6530  -58.5490   30.8070 C   0  0  0  0  0  0  0  0  0  0  0  0
   18.5310  -58.8790   29.1380 Br  0  0  0  0  0  0  0  0  0  0  0  0
   17.3300  -57.2700   31.2140 C   0  0  0  0  0  3  0  0  0  0  0  0
   16.6970  -57.0290   32.4160 C   0  0  0  0  0  3  0  0  0  0  0  0
  1  9  1  0  0  0  0
  1  2  1  0  0  0  0
  2  3  2  0  0  0  0
  2  4  1  0  0  0  0
  4  8  1  0  0  0  0
  5  4  2  0  0  0  0
  5  6  1  0  0  0  0
  6  7  1  0  0  0  0
  7 12  1  0  0  0  0
  8  7  1  0  0  0  0
  8 13  1  0  0  0  0
  9  5  1  0  0  0  0
 10  9  2  0  0  0  0
 11  6  1  0  0  0  0
 14 13  1  0  0  0  0
 15 14  2  0  0  0  0
 16 17  1  0  0  0  0
 16 14  1  0  0  0  0
 18 16  1  0  0  0  0
 18 23  1  0  0  0  0
 19 18  2  0  0  0  0
 20 19  1  0  0  0  0
 20 21  2  0  0  0  0
 21 22  1  0  0  0  0
 22 23  2  0  0  0  0
 24 20  1  0  0  0  0
 25 24  1  0  0  0  0
 26 21  1  0  0  0  0
 26 27  1  0  0  0  0
 28  1  1  0  0  0  0
 29 28  1  0  0  0  0
 30 29  2  0  0  0  0
 31 33  2  0  0  0  0
 31 30  1  0  0  0  0
 32 31  1  0  0  0  0
 33 34  1  0  0  0  0
 34 28  2  0  0  0  0
M  END
>  <Pose>
1

>  <Score>
-8.877

$$$$
