/Users/jonathanwahrer/Desktop/Msc/3_Semester/Drug_Design_Praktikum/waehrer_HTS_screening/HTS_experiment/out/docking_results/vina_output/6s1j/1516_docked.pdbqt
 OpenBabel03222222103D

 30 33  0  0  1  0  0  0  0  0999 V2000
   15.8210  -57.6870   36.7180 C   0  0  0  0  0  0  0  0  0  0  0  0
   16.1880  -58.7840   37.3390 O   0  0  0  0  0  0  0  0  0  0  0  0
   16.4730  -57.4750   35.5120 N   0  0  0  0  0  0  0  0  0  0  0  0
   16.2230  -56.3740   34.6400 C   0  0  0  0  0  2  0  0  0  0  0  0
   16.8940  -56.6800   33.2820 C   0  0  0  0  0  2  0  0  0  0  0  0
   18.3910  -56.6320   33.5250 C   0  0  2  0  0  0  0  0  0  0  0  0
   18.7470  -55.3490   33.9720 N   0  0  0  0  0  0  0  0  0  0  0  0
   19.0070  -54.3190   33.0610 C   0  0  0  0  0  2  0  0  0  0  0  0
   19.6970  -54.6740   31.7970 C   0  0  0  0  0  2  0  0  0  0  0  0
   19.6690  -56.1190   31.4900 C   0  0  0  0  0  0  0  0  0  0  0  0
   20.2070  -56.7530   30.4300 N   0  0  0  0  0  0  0  0  0  0  0  0
   19.9450  -58.0580   30.5500 C   0  0  0  0  0  3  0  0  0  0  0  0
   19.2420  -58.2450   31.6900 N   0  0  0  0  0  0  0  0  0  0  0  0
   19.0610  -57.0510   32.2850 C   0  0  0  0  0  0  0  0  0  0  0  0
   18.7050  -57.6210   34.6620 C   0  0  0  0  0  2  0  0  0  0  0  0
   17.5000  -58.4270   35.0580 C   0  0  0  0  0  2  0  0  0  0  0  0
   18.6530  -55.1210   34.9540 H   0  0  0  0  0  0  0  0  0  0  0  0
   18.9000  -59.1590   32.0380 H   0  0  0  0  0  0  0  0  0  0  0  0
   14.7980  -56.9170   37.4230 C   0  0  0  0  0  2  0  0  0  0  0  0
   15.1870  -55.7830   38.0840 N   0  0  0  0  0  0  0  0  0  0  0  0
   15.5710  -54.6610   38.7380 C   0  0  0  0  0  0  0  0  0  0  0  0
   15.0780  -54.1860   39.7950 O   0  0  0  0  0  0  0  0  0  0  0  0
   14.1610  -55.9820   38.9790 H   0  0  0  0  0  0  0  0  0  0  0  0
   16.7100  -53.8720   38.1650 C   0  0  0  0  0  0  0  0  0  0  0  0
   16.6860  -52.5130   38.2680 C   0  0  0  0  0  3  0  0  0  0  0  0
   17.7420  -51.7640   37.7370 C   0  0  0  0  0  3  0  0  0  0  0  0
   18.7720  -52.4230   37.1270 C   0  0  0  0  0  0  0  0  0  0  0  0
   20.0950  -51.4780   36.4560 Cl  0  0  0  0  0  0  0  0  0  0  0  0
   18.7950  -53.7830   37.0230 C   0  0  0  0  0  3  0  0  0  0  0  0
   17.7280  -54.5290   37.5610 C   0  0  0  0  0  3  0  0  0  0  0  0
  1  2  2  0  0  0  0
  1 19  1  0  0  0  0
  3  1  1  0  0  0  0
  4  3  1  0  0  0  0
  5  4  1  0  0  0  0
  6  5  1  6  0  0  0
  6  7  1  0  0  0  0
  6 15  1  0  0  0  0
  7 17  1  0  0  0  0
  8  7  1  0  0  0  0
  9  8  1  0  0  0  0
 10  9  1  0  0  0  0
 10 14  2  0  0  0  0
 11 12  2  0  0  0  0
 11 10  1  0  0  0  0
 12 13  1  0  0  0  0
 13 18  1  0  0  0  0
 13 14  1  0  0  0  0
 14  6  1  0  0  0  0
 15 16  1  0  0  0  0
 16  3  1  0  0  0  0
 19 20  1  0  0  0  0
 20 21  1  0  0  0  0
 20 23  1  0  0  0  0
 21 22  2  0  0  0  0
 24 25  1  0  0  0  0
 24 21  1  0  0  0  0
 26 25  2  0  0  0  0
 27 26  1  0  0  0  0
 28 27  1  0  0  0  0
 29 27  2  0  0  0  0
 29 30  1  0  0  0  0
 30 24  2  0  0  0  0
M  END
>  <Pose>
1

>  <Score>
-10.400

$$$$
