MODEL 1
REMARK VINA RESULT:   -10.269      0.000      0.000
REMARK INTER + INTRA:         -13.415
REMARK INTER:                 -12.670
REMARK INTRA:                  -0.745
REMARK UNBOUND:                -0.745
REMARK  4 active torsions:
REMARK  status: ('A' for Active; 'I' for Inactive)
REMARK    1  A    between atoms: C_5  and  C_8 
REMARK       I    between atoms: C_8  and  N_10 
REMARK    2  A    between atoms: N_10  and  C_11 
REMARK    3  A    between atoms: C_11  and  C_12 
REMARK    4  A    between atoms: C_12  and  C_13 
REMARK       I    between atoms: C_13  and  N_15 
ROOT
ATOM      1  C   UNK d   1      15.659 -58.013  36.245  0.00  0.00     0.221 C 
ATOM      2  O   UNK d   1      15.751 -59.191  36.668  0.00  0.00    -0.273 OA
ATOM      3  N   UNK d   1      16.382 -57.606  35.099  0.00  0.00    -0.352 N 
ATOM      4  C   UNK d   1      16.320 -56.262  34.563  0.00  0.00     0.129 C 
ATOM      5  C   UNK d   1      16.478 -56.359  33.053  0.00  0.00     0.068 C 
ATOM      6  C   UNK d   1      17.858 -56.912  32.698  0.00  0.00     0.206 C 
ATOM      7  N   UNK d   1      17.694 -57.702  31.512  0.00  0.00     0.099 N 
ATOM      8  C   UNK d   1      18.943 -57.884  30.804  0.00  0.00     0.277 C 
ATOM      9  C   UNK d   1      19.338 -56.553  30.167  0.00  0.00     0.089 C 
ATOM     10  C   UNK d   1      19.496 -55.585  31.291  0.00  0.00     0.039 A 
ATOM     11  N   UNK d   1      20.253 -54.454  31.416  0.00  0.00    -0.352 N 
ATOM     12  C   UNK d   1      20.031 -53.943  32.640  0.00  0.00     0.207 A 
ATOM     13  N   UNK d   1      19.150 -54.743  33.269  0.00  0.00    -0.244 NA
ATOM     14  C   UNK d   1      18.791 -55.781  32.457  0.00  0.00     0.097 A 
ATOM     15  C   UNK d   1      18.384 -57.792  33.812  0.00  0.00     0.068 C 
ATOM     16  C   UNK d   1      17.234 -58.551  34.404  0.00  0.00     0.129 C 
ATOM     17  H   UNK d   1      17.261 -58.623  31.719  0.00  0.00     0.317 HD
ATOM     18  H   UNK d   1      20.870 -54.116  30.644  0.00  0.00     0.166 HD
ENDROOT
BRANCH   1  19
ATOM     19  C   UNK d   1      14.781 -57.074  36.978  0.00  0.00     0.122 C 
BRANCH  19  20
ATOM     20  C   UNK d   1      15.451 -56.459  38.166  0.00  0.00     0.132 C 
BRANCH  20  21
ATOM     21  N   UNK d   1      16.445 -55.502  37.722  0.00  0.00    -0.356 N 
ATOM     22  C   UNK d   1      16.434 -54.150  38.069  0.00  0.00     0.251 C 
ATOM     23  O   UNK d   1      15.525 -53.696  38.809  0.00  0.00    -0.268 OA
ATOM     24  H   UNK d   1      17.198 -55.895  37.108  0.00  0.00     0.162 HD
BRANCH  22  25
ATOM     25  C   UNK d   1      17.452 -53.212  37.602  0.00  0.00     0.032 A 
ATOM     26  C   UNK d   1      17.383 -51.862  37.867  0.00  0.00     0.018 A 
ATOM     27  C   UNK d   1      18.380 -51.020  37.397  0.00  0.00     0.025 A 
ATOM     28  C   UNK d   1      19.452 -51.503  36.660  0.00  0.00     0.034 A 
ATOM     29 Cl   UNK d   1      20.667 -50.369  36.104  0.00  0.00    -0.084 Cl
ATOM     30  C   UNK d   1      19.531 -52.853  36.388  0.00  0.00     0.025 A 
ATOM     31  C   UNK d   1      18.540 -53.669  36.861  0.00  0.00     0.018 A 
ENDBRANCH  22  25
ENDBRANCH  20  21
ENDBRANCH  19  20
ENDBRANCH   1  19
TORSDOF 4
ENDMDL
