/Users/jonathanwahrer/Desktop/Msc/3_Semester/Drug_Design_Praktikum/waehrer_HTS_screening/HTS_experiment/out/docking_results/vina_output/6s1j/1521_docked.pdbqt
 OpenBabel03222222113D

 24 27  0  0  1  0  0  0  0  0999 V2000
   16.3040  -51.9030   38.9590 Cl  0  0  0  0  0  0  0  0  0  0  0  0
   17.4480  -52.5160   37.7830 C   0  0  0  0  0  0  0  0  0  0  0  0
   17.3140  -53.8010   37.3170 C   0  0  0  0  0  0  0  0  0  0  0  0
   16.4530  -54.8050   37.5520 N   0  0  0  0  0  0  0  0  0  0  0  0
   16.7560  -55.8970   36.8250 C   0  0  0  0  0  0  0  0  0  0  0  0
   17.8740  -55.5540   36.0940 C   0  0  0  0  0  0  0  0  0  0  0  0
   18.2340  -54.2570   36.3870 C   0  0  0  0  0  0  0  0  0  0  0  0
   19.2430  -53.4150   35.9640 C   0  0  0  0  0  3  0  0  0  0  0  0
   19.3980  -52.1280   36.4140 C   0  0  0  0  0  3  0  0  0  0  0  0
   18.4720  -51.6740   37.3480 C   0  0  0  0  0  3  0  0  0  0  0  0
   18.4060  -56.6120   35.1990 C   0  0  0  0  0  2  0  0  0  0  0  0
   17.2620  -57.0580   34.4360 N   0  0  0  0  0  0  0  0  0  0  0  0
   16.2740  -57.7310   35.1860 C   0  0  0  0  0  2  0  0  0  0  0  0
   16.2440  -57.2690   36.6250 C   0  0  0  0  0  2  0  0  0  0  0  0
   15.6270  -54.7860   38.2140 H   0  0  0  0  0  0  0  0  0  0  0  0
   17.5530  -57.5060   33.1410 C   0  0  0  0  0  2  0  0  0  0  0  0
   17.2700  -56.4810   32.0850 C   0  0  1  0  0  0  0  0  0  0  0  0
   18.1280  -55.2670   32.1880 C   0  0  0  0  0  2  0  0  0  0  0  0
   18.8260  -55.0470   30.9680 N   0  0  0  0  0  0  0  0  0  0  0  0
   18.5230  -56.1020   30.0560 C   0  0  0  0  0  3  0  0  0  0  0  0
   18.6670  -54.0990   30.5530 H   0  0  0  0  0  0  0  0  0  0  0  0
   17.6170  -57.0680   30.7430 C   0  0  0  0  0  3  0  0  0  0  0  0
   15.9070  -56.1620   32.0450 O   0  0  0  0  0  0  0  0  0  0  0  0
   15.8360  -55.2310   32.3820 H   0  0  0  0  0  0  0  0  0  0  0  0
  2  1  1  0  0  0  0
  3  4  1  0  0  0  0
  3  2  2  0  0  0  0
  4 15  1  0  0  0  0
  5  4  1  0  0  0  0
  6  7  1  0  0  0  0
  6  5  2  0  0  0  0
  7  3  1  0  0  0  0
  8  7  2  0  0  0  0
  8  9  1  0  0  0  0
  9 10  2  0  0  0  0
 10  2  1  0  0  0  0
 11  6  1  0  0  0  0
 12 13  1  0  0  0  0
 12 11  1  0  0  0  0
 13 14  1  0  0  0  0
 14  5  1  0  0  0  0
 16 12  1  0  0  0  0
 17 18  1  0  0  0  0
 17 16  1  1  0  0  0
 19 18  1  0  0  0  0
 20 22  2  0  0  0  0
 20 19  1  0  0  0  0
 21 19  1  0  0  0  0
 22 17  1  0  0  0  0
 23 17  1  0  0  0  0
 23 24  1  0  0  0  0
M  END
>  <Pose>
1

>  <Score>
-8.716

$$$$
