MODEL 1
REMARK VINA RESULT:    -8.716      0.000      0.000
REMARK INTER + INTRA:         -10.197
REMARK INTER:                  -9.990
REMARK INTRA:                  -0.207
REMARK UNBOUND:                -0.207
REMARK  3 active torsions:
REMARK  status: ('A' for Active; 'I' for Inactive)
REMARK    1  A    between atoms: N_12  and  C_15 
REMARK    2  A    between atoms: C_15  and  C_16 
REMARK    3  A    between atoms: C_16  and  O_21 
ROOT
ATOM      1 Cl   UNK d   1      16.304 -51.903  38.959  0.00  0.00    -0.082 Cl
ATOM      2  C   UNK d   1      17.448 -52.516  37.783  0.00  0.00     0.061 A 
ATOM      3  C   UNK d   1      17.314 -53.801  37.317  0.00  0.00     0.065 A 
ATOM      4  N   UNK d   1      16.453 -54.805  37.552  0.00  0.00    -0.357 N 
ATOM      5  C   UNK d   1      16.756 -55.897  36.825  0.00  0.00     0.020 A 
ATOM      6  C   UNK d   1      17.874 -55.554  36.094  0.00  0.00    -0.006 A 
ATOM      7  C   UNK d   1      18.234 -54.257  36.387  0.00  0.00     0.002 A 
ATOM      8  C   UNK d   1      19.243 -53.415  35.964  0.00  0.00     0.014 A 
ATOM      9  C   UNK d   1      19.398 -52.128  36.414  0.00  0.00     0.003 A 
ATOM     10  C   UNK d   1      18.472 -51.674  37.348  0.00  0.00     0.026 A 
ATOM     11  C   UNK d   1      18.406 -56.612  35.199  0.00  0.00     0.158 C 
ATOM     12  N   UNK d   1      17.262 -57.058  34.436  0.00  0.00    -0.405 N 
ATOM     13  C   UNK d   1      16.274 -57.731  35.186  0.00  0.00     0.123 C 
ATOM     14  C   UNK d   1      16.244 -57.269  36.625  0.00  0.00     0.077 C 
ATOM     15  H   UNK d   1      15.627 -54.786  38.214  0.00  0.00     0.166 HD
ENDROOT
BRANCH  12  16
ATOM     16  C   UNK d   1      17.553 -57.506  33.141  0.00  0.00     0.156 C 
BRANCH  16  17
ATOM     17  C   UNK d   1      17.270 -56.481  32.085  0.00  0.00     0.101 A 
ATOM     18  C   UNK d   1      18.128 -55.267  32.188  0.00  0.00     0.308 A 
ATOM     19  N   UNK d   1      18.826 -55.047  30.968  0.00  0.00     0.086 N 
ATOM     20  C   UNK d   1      18.523 -56.102  30.056  0.00  0.00     0.272 A 
ATOM     21  H   UNK d   1      18.667 -54.099  30.553  0.00  0.00     0.315 HD
ATOM     22  C   UNK d   1      17.617 -57.068  30.743  0.00  0.00     0.071 A 
BRANCH  17  23
ATOM     23  O   UNK d   1      15.907 -56.162  32.045  0.00  0.00    -0.386 OA
ATOM     24  H   UNK d   1      15.836 -55.231  32.382  0.00  0.00     0.210 HD
ENDBRANCH  17  23
ENDBRANCH  16  17
ENDBRANCH  12  16
TORSDOF 3
ENDMDL
