/Users/jonathanwahrer/Desktop/Msc/3_Semester/Drug_Design_Praktikum/waehrer_HTS_screening/HTS_experiment/out/docking_results/vina_output/6s1j/1525_docked.pdbqt
 OpenBabel03222222113D

 26 29  0  0  1  0  0  0  0  0999 V2000
   17.0720  -55.9270   34.3830 N   0  0  0  0  0  0  0  0  0  0  0  0
   17.2030  -56.0190   32.9700 C   0  0  0  0  0  0  0  0  0  0  0  0
   17.6480  -55.0890   32.2550 O   0  0  0  0  0  0  0  0  0  0  0  0
   16.7330  -57.3450   32.5880 C   0  0  2  0  0  3  0  0  0  0  0  0
   15.6980  -57.6600   33.6470 C   0  0  0  0  0  2  0  0  0  0  0  0
   16.0950  -56.8740   34.8300 C   0  0  0  0  0  0  0  0  0  0  0  0
   15.6710  -56.9940   36.0100 O   0  0  0  0  0  0  0  0  0  0  0  0
   17.7120  -58.3490   32.4590 N   0  0  2  0  0  0  0  0  0  0  0  0
   18.7480  -58.1490   31.5290 C   0  0  0  0  0  2  0  0  0  0  0  0
   18.3860  -58.8780   30.2270 C   0  0  0  0  0  2  0  0  0  0  0  0
   17.3350  -59.8490   30.4840 N   0  0  0  0  0  0  0  0  0  0  0  0
   17.2620  -60.5910   31.7270 C   0  0  0  0  0  2  0  0  0  0  0  0
   17.4650  -59.6520   32.8920 C   0  0  0  0  0  2  0  0  0  0  0  0
   16.3070  -60.0970   29.5150 C   0  0  0  0  0  0  0  0  0  0  0  0
   16.0930  -59.2410   28.4940 N   0  0  0  0  0  0  0  0  0  0  0  0
   15.1370  -59.4880   27.5770 C   0  0  0  0  0  3  0  0  0  0  0  0
   14.3420  -60.6260   27.6460 C   0  0  0  0  0  3  0  0  0  0  0  0
   14.5670  -61.5000   28.6960 C   0  0  0  0  0  3  0  0  0  0  0  0
   15.5350  -61.1970   29.5780 N   0  0  0  0  0  0  0  0  0  0  0  0
   17.8200  -55.0250   35.2000 C   0  0  0  0  0  0  0  0  0  0  0  0
   17.2330  -54.1120   36.0520 C   0  0  0  0  0  3  0  0  0  0  0  0
   18.0060  -53.2560   36.8310 C   0  0  0  0  0  0  0  0  0  0  0  0
   17.2060  -51.9920   38.0090 Br  0  0  0  0  0  0  0  0  0  0  0  0
   19.3820  -53.3000   36.7700 C   0  0  0  0  0  3  0  0  0  0  0  0
   19.9860  -54.2010   35.9280 C   0  0  0  0  0  3  0  0  0  0  0  0
   19.2100  -55.0350   35.1710 C   0  0  0  0  0  3  0  0  0  0  0  0
  1  6  1  0  0  0  0
  1 20  1  0  0  0  0
  2  1  1  0  0  0  0
  3  2  2  0  0  0  0
  4  2  1  0  0  0  0
  4  5  1  1  0  0  0
  5  6  1  0  0  0  0
  6  7  2  0  0  0  0
  8  9  1  6  0  0  0
  8  4  1  0  0  0  0
  8 13  1  0  0  0  0
 10 11  1  0  0  0  0
 10  9  1  0  0  0  0
 11 12  1  0  0  0  0
 12 13  1  0  0  0  0
 14 19  1  0  0  0  0
 14 11  1  0  0  0  0
 15 14  2  0  0  0  0
 16 17  2  0  0  0  0
 16 15  1  0  0  0  0
 17 18  1  0  0  0  0
 18 19  2  0  0  0  0
 20 21  1  0  0  0  0
 21 22  2  0  0  0  0
 22 23  1  0  0  0  0
 24 22  1  0  0  0  0
 25 24  2  0  0  0  0
 26 20  2  0  0  0  0
 26 25  1  0  0  0  0
M  END
>  <Pose>
1

>  <Score>
-8.128

$$$$
