MODEL 1
REMARK VINA RESULT:    -8.128      0.000      0.000
REMARK INTER + INTRA:         -10.241
REMARK INTER:                  -9.554
REMARK INTRA:                  -0.687
REMARK UNBOUND:                -0.687
REMARK  3 active torsions:
REMARK  status: ('A' for Active; 'I' for Inactive)
REMARK    1  A    between atoms: C_4  and  N_8 
REMARK    2  A    between atoms: C_11  and  N_15 
REMARK    3  A    between atoms: N_18  and  C_21 
ROOT
ATOM      1  N   UNK d   1      17.072 -55.927  34.383  0.00  0.00    -0.251 N 
ATOM      2  C   UNK d   1      17.203 -56.019  32.970  0.00  0.00     0.254 C 
ATOM      3  O   UNK d   1      17.648 -55.089  32.255  0.00  0.00    -0.270 OA
ATOM      4  C   UNK d   1      16.733 -57.345  32.588  0.00  0.00     0.181 C 
ATOM      5  C   UNK d   1      15.698 -57.660  33.647  0.00  0.00     0.138 C 
ATOM      6  C   UNK d   1      16.095 -56.874  34.830  0.00  0.00     0.233 C 
ATOM      7  O   UNK d   1      15.671 -56.994  36.010  0.00  0.00    -0.273 OA
ENDROOT
BRANCH   4   8
ATOM      8  N   UNK d   1      17.712 -58.349  32.459  0.00  0.00    -0.397 N 
ATOM      9  C   UNK d   1      18.748 -58.149  31.529  0.00  0.00     0.138 C 
ATOM     10  C   UNK d   1      18.386 -58.878  30.227  0.00  0.00     0.161 C 
ATOM     11  N   UNK d   1      17.335 -59.849  30.484  0.00  0.00    -0.211 N 
ATOM     12  C   UNK d   1      17.262 -60.591  31.727  0.00  0.00     0.161 C 
ATOM     13  C   UNK d   1      17.465 -59.652  32.892  0.00  0.00     0.138 C 
BRANCH  11  14
ATOM     14  C   UNK d   1      16.307 -60.097  29.515  0.00  0.00     0.724 A 
ATOM     15  N   UNK d   1      16.093 -59.241  28.494  0.00  0.00    -0.075 NA
ATOM     16  C   UNK d   1      15.137 -59.488  27.577  0.00  0.00     0.138 A 
ATOM     17  C   UNK d   1      14.342 -60.626  27.646  0.00  0.00     0.040 A 
ATOM     18  C   UNK d   1      14.567 -61.500  28.696  0.00  0.00     0.138 A 
ATOM     19  N   UNK d   1      15.535 -61.197  29.578  0.00  0.00    -0.075 NA
ENDBRANCH  11  14
ENDBRANCH   4   8
BRANCH   1  20
ATOM     20  C   UNK d   1      17.820 -55.025  35.200  0.00  0.00     0.046 A 
ATOM     21  C   UNK d   1      17.233 -54.112  36.052  0.00  0.00     0.049 A 
ATOM     22  C   UNK d   1      18.006 -53.256  36.831  0.00  0.00     0.013 A 
ATOM     23 Br   UNK d   1      17.206 -51.992  38.009  0.00  0.00    -0.051 Br
ATOM     24  C   UNK d   1      19.382 -53.300  36.770  0.00  0.00     0.019 A 
ATOM     25  C   UNK d   1      19.986 -54.201  35.928  0.00  0.00     0.004 A 
ATOM     26  C   UNK d   1      19.210 -55.035  35.171  0.00  0.00     0.030 A 
ENDBRANCH   1  20
TORSDOF 3
ENDMDL
