/Users/jonathanwahrer/Desktop/Msc/3_Semester/Drug_Design_Praktikum/waehrer_HTS_screening/HTS_experiment/out/docking_results/vina_output/6s1j/1533_docked.pdbqt
 OpenBabel03222222113D

 28 31  0  0  1  0  0  0  0  0999 V2000
   17.2630  -55.8700   34.0580 C   0  0  0  0  0  0  0  0  0  0  0  0
   18.0330  -55.9480   32.9420 N   0  0  0  0  0  0  0  0  0  0  0  0
   18.9470  -54.9720   32.9660 C   0  0  2  0  0  3  0  0  0  0  0  0
   18.8040  -54.2260   34.1040 N   0  0  0  0  0  0  0  0  0  0  0  0
   17.7730  -54.7870   34.7580 C   0  0  0  0  0  3  0  0  0  0  0  0
   19.8010  -55.0160   31.7580 C   0  0  0  0  0  2  0  0  0  0  0  0
   19.6260  -56.4410   31.3140 C   0  0  0  0  0  2  0  0  0  0  0  0
   18.2040  -56.7460   31.7280 C   0  0  0  0  0  2  0  0  0  0  0  0
   19.5630  -53.0670   34.4740 C   0  0  0  0  0  3  0  0  0  0  0  0
   19.7030  -52.6370   35.8390 C   0  0  0  0  0  0  0  0  0  0  0  0
   20.4550  -51.5480   35.9680 O   0  0  0  0  0  1  0  0  0  0  0  0
   19.2070  -53.1240   37.1010 C   0  0  0  0  0  0  0  0  0  0  0  0
   17.9370  -52.7100   37.5620 C   0  0  0  0  0  3  0  0  0  0  0  0
   17.3810  -53.1200   38.7460 C   0  0  0  0  0  0  0  0  0  0  0  0
   18.1300  -53.9890   39.5120 C   0  0  0  0  0  3  0  0  0  0  0  0
   19.3700  -54.4080   39.0850 C   0  0  0  0  0  3  0  0  0  0  0  0
   19.9320  -53.9860   37.8780 C   0  0  0  0  0  3  0  0  0  0  0  0
   16.1070  -52.6920   39.1890 N   0  0  0  0  0  0  0  0  0  0  0  0
   15.8800  -51.4820   39.3010 O   0  0  0  0  0  0  0  0  0  0  0  0
   15.1170  -53.5780   39.4980 O   0  0  0  0  0  0  0  0  0  0  0  0
   16.1400  -56.7020   34.4930 C   0  0  0  0  0  0  0  0  0  0  0  0
   15.1280  -56.9610   33.5970 C   0  0  0  0  0  3  0  0  0  0  0  0
   14.0350  -57.7600   33.9410 C   0  0  0  0  0  3  0  0  0  0  0  0
   13.9720  -58.2980   35.2060 C   0  0  0  0  0  0  0  0  0  0  0  0
   14.9720  -58.0450   36.0990 C   0  0  0  0  0  0  0  0  0  0  0  0
   12.5840  -59.3050   35.6200 Cl  0  0  0  0  0  0  0  0  0  0  0  0
   14.8600  -58.7470   37.6980 Cl  0  0  0  0  0  0  0  0  0  0  0  0
   16.0540  -57.2480   35.7400 C   0  0  0  0  0  3  0  0  0  0  0  0
  1 21  1  0  0  0  0
  1  5  2  0  0  0  0
  2  3  1  0  0  0  0
  2  1  1  0  0  0  0
  3  6  1  6  0  0  0
  3  4  1  0  0  0  0
  4  9  1  0  0  0  0
  4  5  1  0  0  0  0
  7  8  1  0  0  0  0
  7  6  1  0  0  0  0
  8  2  1  0  0  0  0
  9 10  2  0  0  0  0
 10 11  1  0  0  0  0
 10 12  1  0  0  0  0
 12 13  2  0  0  0  0
 12 17  1  0  0  0  0
 13 14  1  0  0  0  0
 14 18  1  0  0  0  0
 14 15  2  0  0  0  0
 16 15  1  0  0  0  0
 17 16  2  0  0  0  0
 18 19  2  0  0  0  0
 18 20  2  0  0  0  0
 21 28  1  0  0  0  0
 22 23  1  0  0  0  0
 22 21  2  0  0  0  0
 23 24  2  0  0  0  0
 24 26  1  0  0  0  0
 24 25  1  0  0  0  0
 25 27  1  0  0  0  0
 28 25  2  0  0  0  0
M  END
>  <Pose>
1

>  <Score>
-10.070

$$$$
