MODEL 1
REMARK VINA RESULT:   -10.070      0.000      0.000
REMARK INTER + INTRA:         -13.038
REMARK INTER:                 -12.424
REMARK INTRA:                  -0.613
REMARK UNBOUND:                -0.613
REMARK  4 active torsions:
REMARK  status: ('A' for Active; 'I' for Inactive)
REMARK    1  A    between atoms: C_6  and  C_8 
REMARK    2  A    between atoms: N_11  and  C_13 
REMARK    3  A    between atoms: C_14  and  C_16 
REMARK    4  A    between atoms: C_18  and  N_22 
ROOT
ATOM      1  C   UNK d   1      17.263 -55.870  34.058  0.00  0.00     0.061 A 
ATOM      2  N   UNK d   1      18.033 -55.948  32.942  0.00  0.00    -0.335 N 
ATOM      3  C   UNK d   1      18.947 -54.972  32.966  0.00  0.00     0.086 A 
ATOM      4  N   UNK d   1      18.804 -54.226  34.104  0.00  0.00    -0.338 N 
ATOM      5  C   UNK d   1      17.773 -54.787  34.758  0.00  0.00     0.123 A 
ATOM      6  C   UNK d   1      19.801 -55.016  31.758  0.00  0.00     0.078 C 
ATOM      7  C   UNK d   1      19.626 -56.441  31.314  0.00  0.00     0.028 C 
ATOM      8  C   UNK d   1      18.204 -56.746  31.728  0.00  0.00     0.131 C 
ENDROOT
BRANCH   4   9
ATOM      9  C   UNK d   1      19.563 -53.067  34.474  0.00  0.00     0.198 C 
ATOM     10  C   UNK d   1      19.703 -52.637  35.839  0.00  0.00     0.113 C 
ATOM     11  O   UNK d   1      20.455 -51.548  35.968  0.00  0.00    -0.194 OA
BRANCH  10  12
ATOM     12  C   UNK d   1      19.207 -53.124  37.101  0.00  0.00     0.000 A 
ATOM     13  C   UNK d   1      17.937 -52.710  37.562  0.00  0.00     0.050 A 
ATOM     14  C   UNK d   1      17.381 -53.120  38.746  0.00  0.00     0.103 A 
ATOM     15  C   UNK d   1      18.130 -53.989  39.512  0.00  0.00     0.036 A 
ATOM     16  C   UNK d   1      19.370 -54.408  39.085  0.00  0.00     0.003 A 
ATOM     17  C   UNK d   1      19.932 -53.986  37.878  0.00  0.00     0.014 A 
BRANCH  14  18
ATOM     18  N   UNK d   1      16.107 -52.692  39.189  0.00  0.00    -0.116 N 
ATOM     19  O   UNK d   1      15.880 -51.482  39.301  0.00  0.00    -0.532 OA
ATOM     20  O   UNK d   1      15.117 -53.578  39.498  0.00  0.00    -0.532 OA
ENDBRANCH  14  18
ENDBRANCH  10  12
ENDBRANCH   4   9
BRANCH   1  21
ATOM     21  C   UNK d   1      16.140 -56.702  34.493  0.00  0.00    -0.006 A 
ATOM     22  C   UNK d   1      15.128 -56.961  33.597  0.00  0.00     0.015 A 
ATOM     23  C   UNK d   1      14.035 -57.760  33.941  0.00  0.00     0.026 A 
ATOM     24  C   UNK d   1      13.972 -58.298  35.206  0.00  0.00     0.055 A 
ATOM     25  C   UNK d   1      14.972 -58.045  36.099  0.00  0.00     0.056 A 
ATOM     26 Cl   UNK d   1      12.584 -59.305  35.620  0.00  0.00    -0.083 Cl
ATOM     27 Cl   UNK d   1      14.860 -58.747  37.698  0.00  0.00    -0.083 Cl
ATOM     28  C   UNK d   1      16.054 -57.248  35.740  0.00  0.00     0.039 A 
ENDBRANCH   1  21
TORSDOF 4
ENDMDL
