/Users/jonathanwahrer/Desktop/Msc/3_Semester/Drug_Design_Praktikum/waehrer_HTS_screening/HTS_experiment/out/docking_results/vina_output/6s1j/1535_docked.pdbqt
 OpenBabel03222222123D

 28 31  0  0  1  0  0  0  0  0999 V2000
   16.9200  -55.1470   37.3570 C   0  0  0  0  0  0  0  0  0  0  0  0
   17.1260  -53.8980   37.8050 N   0  0  0  0  0  0  0  0  0  0  0  0
   18.2370  -53.3920   37.2300 C   0  0  2  0  0  3  0  0  0  0  0  0
   18.7430  -54.3280   36.4080 N   0  0  0  0  0  0  0  0  0  0  0  0
   17.9540  -55.4390   36.4540 C   0  0  0  0  0  3  0  0  0  0  0  0
   18.4820  -52.0170   37.7250 C   0  0  0  0  0  2  0  0  0  0  0  0
   17.0640  -51.5940   38.0090 C   0  0  0  0  0  2  0  0  0  0  0  0
   16.5600  -52.8760   38.6930 C   0  0  0  0  0  2  0  0  0  0  0  0
   19.9290  -54.2120   35.6420 C   0  0  0  0  0  2  0  0  0  0  0  0
   19.9380  -53.9370   34.2340 C   0  0  2  0  0  3  0  0  0  0  0  0
   20.4370  -52.7460   33.9710 O   0  0  0  0  0  1  0  0  0  0  0  0
   19.5140  -54.6970   33.0820 C   0  0  0  0  0  0  0  0  0  0  0  0
   18.3770  -55.4570   33.0150 C   0  0  0  0  0  3  0  0  0  0  0  0
   18.0290  -56.1670   31.8620 C   0  0  0  0  0  0  0  0  0  0  0  0
   18.8260  -56.1170   30.7640 C   0  0  0  0  0  3  0  0  0  0  0  0
   19.9760  -55.3590   30.8030 C   0  0  0  0  0  3  0  0  0  0  0  0
   20.3260  -54.6600   31.9260 C   0  0  0  0  0  3  0  0  0  0  0  0
   16.8290  -56.9420   31.8580 N   0  0  0  0  0  0  0  0  0  0  0  0
   16.8180  -58.0490   31.2920 O   0  0  0  0  0  0  0  0  0  0  0  0
   15.6900  -56.5060   32.4550 O   0  0  0  0  0  0  0  0  0  0  0  0
   15.8630  -56.1100   37.6720 C   0  0  0  0  0  0  0  0  0  0  0  0
   15.1560  -56.0130   38.8750 C   0  0  0  0  0  3  0  0  0  0  0  0
   14.1460  -56.8750   39.2110 C   0  0  0  0  0  3  0  0  0  0  0  0
   13.7810  -57.8920   38.3620 C   0  0  0  0  0  0  0  0  0  0  0  0
   14.4520  -58.0150   37.1750 C   0  0  0  0  0  0  0  0  0  0  0  0
   12.4890  -58.9870   38.8020 Cl  0  0  0  0  0  0  0  0  0  0  0  0
   14.0440  -59.2730   36.0520 Cl  0  0  0  0  0  0  0  0  0  0  0  0
   15.4870  -57.1170   36.8470 C   0  0  0  0  0  3  0  0  0  0  0  0
  1 21  1  0  0  0  0
  1  2  1  0  0  0  0
  2  8  1  0  0  0  0
  3  6  1  1  0  0  0
  3  2  1  0  0  0  0
  4  5  1  0  0  0  0
  4  3  1  0  0  0  0
  5  1  2  0  0  0  0
  6  7  1  0  0  0  0
  7  8  1  0  0  0  0
  9  4  1  0  0  0  0
 10 11  1  1  0  0  0
 10  9  1  0  0  0  0
 12 10  1  0  0  0  0
 13 12  1  0  0  0  0
 14 13  2  0  0  0  0
 15 16  2  0  0  0  0
 15 14  1  0  0  0  0
 16 17  1  0  0  0  0
 17 12  2  0  0  0  0
 18 14  1  0  0  0  0
 18 20  2  0  0  0  0
 19 18  2  0  0  0  0
 21 22  1  0  0  0  0
 22 23  2  0  0  0  0
 24 26  1  0  0  0  0
 24 23  1  0  0  0  0
 25 24  2  0  0  0  0
 27 25  1  0  0  0  0
 28 25  1  0  0  0  0
 28 21  2  0  0  0  0
M  END
>  <Pose>
1

>  <Score>
-9.998

$$$$
