MODEL 1
REMARK VINA RESULT:    -9.998      0.000      0.000
REMARK INTER + INTRA:         -13.689
REMARK INTER:                 -12.921
REMARK INTRA:                  -0.769
REMARK UNBOUND:                -0.769
REMARK  5 active torsions:
REMARK  status: ('A' for Active; 'I' for Inactive)
REMARK    1  A    between atoms: C_6  and  C_8 
REMARK    2  A    between atoms: N_11  and  C_13 
REMARK    3  A    between atoms: C_13  and  C_14 
REMARK    4  A    between atoms: C_14  and  C_16 
REMARK    5  A    between atoms: C_18  and  N_22 
ROOT
ATOM      1  C   UNK d   1      16.920 -55.147  37.357  0.00  0.00     0.061 A 
ATOM      2  N   UNK d   1      17.126 -53.898  37.805  0.00  0.00    -0.335 N 
ATOM      3  C   UNK d   1      18.237 -53.392  37.230  0.00  0.00     0.086 A 
ATOM      4  N   UNK d   1      18.743 -54.328  36.408  0.00  0.00    -0.338 N 
ATOM      5  C   UNK d   1      17.954 -55.439  36.454  0.00  0.00     0.123 A 
ATOM      6  C   UNK d   1      18.482 -52.017  37.725  0.00  0.00     0.078 C 
ATOM      7  C   UNK d   1      17.064 -51.594  38.009  0.00  0.00     0.028 C 
ATOM      8  C   UNK d   1      16.560 -52.876  38.693  0.00  0.00     0.131 C 
ENDROOT
BRANCH   4   9
ATOM      9  C   UNK d   1      19.929 -54.212  35.642  0.00  0.00     0.198 C 
BRANCH   9  10
ATOM     10  C   UNK d   1      19.938 -53.937  34.234  0.00  0.00     0.113 C 
ATOM     11  O   UNK d   1      20.437 -52.746  33.971  0.00  0.00    -0.194 OA
BRANCH  10  12
ATOM     12  C   UNK d   1      19.514 -54.697  33.082  0.00  0.00     0.000 A 
ATOM     13  C   UNK d   1      18.377 -55.457  33.015  0.00  0.00     0.050 A 
ATOM     14  C   UNK d   1      18.029 -56.167  31.862  0.00  0.00     0.103 A 
ATOM     15  C   UNK d   1      18.826 -56.117  30.764  0.00  0.00     0.036 A 
ATOM     16  C   UNK d   1      19.976 -55.359  30.803  0.00  0.00     0.003 A 
ATOM     17  C   UNK d   1      20.326 -54.660  31.926  0.00  0.00     0.014 A 
BRANCH  14  18
ATOM     18  N   UNK d   1      16.829 -56.942  31.858  0.00  0.00    -0.116 N 
ATOM     19  O   UNK d   1      16.818 -58.049  31.292  0.00  0.00    -0.532 OA
ATOM     20  O   UNK d   1      15.690 -56.506  32.455  0.00  0.00    -0.532 OA
ENDBRANCH  14  18
ENDBRANCH  10  12
ENDBRANCH   9  10
ENDBRANCH   4   9
BRANCH   1  21
ATOM     21  C   UNK d   1      15.863 -56.110  37.672  0.00  0.00    -0.006 A 
ATOM     22  C   UNK d   1      15.156 -56.013  38.875  0.00  0.00     0.015 A 
ATOM     23  C   UNK d   1      14.146 -56.875  39.211  0.00  0.00     0.026 A 
ATOM     24  C   UNK d   1      13.781 -57.892  38.362  0.00  0.00     0.055 A 
ATOM     25  C   UNK d   1      14.452 -58.015  37.175  0.00  0.00     0.056 A 
ATOM     26 Cl   UNK d   1      12.489 -58.987  38.802  0.00  0.00    -0.083 Cl
ATOM     27 Cl   UNK d   1      14.044 -59.273  36.052  0.00  0.00    -0.083 Cl
ATOM     28  C   UNK d   1      15.487 -57.117  36.847  0.00  0.00     0.039 A 
ENDBRANCH   1  21
TORSDOF 5
ENDMDL
