MODEL 1
REMARK VINA RESULT:    -9.274      0.000      0.000
REMARK INTER + INTRA:         -11.759
REMARK INTER:                 -10.901
REMARK INTRA:                  -0.858
REMARK UNBOUND:                -0.858
REMARK  3 active torsions:
REMARK  status: ('A' for Active; 'I' for Inactive)
REMARK    1  A    between atoms: S_1  and  N_4 
REMARK    2  A    between atoms: S_1  and  C_19 
REMARK    3  A    between atoms: C_7  and  C_10 
REMARK       I    between atoms: C_10  and  N_12 
ROOT
ATOM      1  S   UNK d   1      14.274 -58.733  34.737  0.00  0.00     0.262 S 
ATOM      2  O   UNK d   1      13.242 -57.650  34.407  0.00  0.00    -0.200 OA
ATOM      3  O   UNK d   1      13.649 -59.999  34.146  0.00  0.00    -0.200 OA
ENDROOT
BRANCH   1   4
ATOM      4  N   UNK d   1      14.372 -58.875  36.381  0.00  0.00    -0.307 N 
ATOM      5  C   UNK d   1      13.365 -58.504  37.264  0.00  0.00     0.136 C 
ATOM      6  C   UNK d   1      13.427 -57.114  37.810  0.00  0.00     0.034 C 
ATOM      7  C   UNK d   1      14.864 -56.606  37.714  0.00  0.00     0.081 C 
ATOM      8  C   UNK d   1      15.704 -57.821  38.140  0.00  0.00     0.034 C 
ATOM      9  C   UNK d   1      15.717 -58.736  36.927  0.00  0.00     0.136 C 
BRANCH   7  10
ATOM     10  C   UNK d   1      15.100 -55.455  38.568  0.00  0.00     0.224 C 
ATOM     11  O   UNK d   1      14.486 -55.357  39.663  0.00  0.00    -0.273 OA
ATOM     12  N   UNK d   1      16.000 -54.446  38.208  0.00  0.00    -0.348 N 
ATOM     13  C   UNK d   1      16.291 -53.291  39.065  0.00  0.00     0.156 C 
ATOM     14  C   UNK d   1      16.684 -54.475  36.946  0.00  0.00     0.156 C 
ATOM     15  C   UNK d   1      17.137 -52.348  38.235  0.00  0.00     0.291 C 
ATOM     16  N   UNK d   1      18.391 -52.981  37.873  0.00  0.00     0.087 N 
ATOM     17  C   UNK d   1      18.168 -54.192  37.102  0.00  0.00     0.291 C 
ATOM     18  C   UNK d   1      19.246 -52.064  37.151  0.00  0.00     0.310 C 
ENDBRANCH   7  10
ENDBRANCH   1   4
BRANCH   1  19
ATOM     19  C   UNK d   1      15.704 -58.301  33.845  0.00  0.00     0.104 A 
ATOM     20  C   UNK d   1      16.041 -56.943  33.708  0.00  0.00     0.066 A 
ATOM     21  C   UNK d   1      17.122 -56.522  32.979  0.00  0.00     0.097 A 
ATOM     22  C   UNK d   1      17.913 -57.438  32.357  0.00  0.00     0.070 A 
ATOM     23  O   UNK d   1      17.426 -55.159  32.865  0.00  0.00    -0.340 OA
ATOM     24  C   UNK d   1      17.634 -58.778  32.456  0.00  0.00     0.058 A 
ATOM     25  N   UNK d   1      19.040 -56.977  31.592  0.00  0.00    -0.323 N 
ATOM     26  C   UNK d   1      16.528 -59.181  33.206  0.00  0.00     0.059 A 
ATOM     27 Cl   UNK d   1      16.263 -60.909  33.364  0.00  0.00    -0.083 Cl
ATOM     28  C   UNK d   1      19.302 -55.587  31.503  0.00  0.00     0.246 C 
ATOM     29  H   UNK d   1      19.650 -57.670  31.115  0.00  0.00     0.169 HD
ATOM     30  O   UNK d   1      20.430 -55.151  31.194  0.00  0.00    -0.271 OA
ATOM     31  C   UNK d   1      18.178 -54.658  31.791  0.00  0.00     0.278 C 
ENDBRANCH   1  19
TORSDOF 3
ENDMDL
