/Users/jonathanwahrer/Desktop/Msc/3_Semester/Drug_Design_Praktikum/waehrer_HTS_screening/HTS_experiment/out/docking_results/vina_output/6s1j/1539_docked.pdbqt
 OpenBabel03222222123D

 34 37  0  0  1  0  0  0  0  0999 V2000
   16.5320  -59.3410   33.7190 C   0  0  2  0  0  3  0  0  0  0  0  0
   15.1140  -59.2370   34.0850 N   0  0  0  0  0  0  0  0  0  0  0  0
   14.7020  -57.9670   33.6010 C   0  0  0  0  0  0  0  0  0  0  0  0
   13.5560  -57.6370   33.2550 O   0  0  0  0  0  0  0  0  0  0  0  0
   15.8960  -57.1280   33.5920 C   0  0  0  0  0  0  0  0  0  0  0  0
   16.0490  -55.9190   33.2440 O   0  0  0  0  0  0  0  0  0  0  0  0
   16.9930  -57.9720   34.0900 C   0  0  0  0  0  0  0  0  0  0  0  0
   18.0980  -57.5610   34.6800 C   0  0  0  0  0  0  0  0  0  0  0  0
   19.0490  -58.5160   35.0470 O   0  0  0  0  0  1  0  0  0  0  0  0
   16.5580  -59.5290   32.2480 C   0  0  0  0  0  0  0  0  0  0  0  0
   15.8380  -60.5310   31.6340 C   0  0  0  0  0  3  0  0  0  0  0  0
   15.8450  -60.7280   30.2700 C   0  0  0  0  0  3  0  0  0  0  0  0
   16.5920  -59.9050   29.4460 C   0  0  0  0  0  0  0  0  0  0  0  0
   16.6140  -60.1390   27.6990 Cl  0  0  0  0  0  0  0  0  0  0  0  0
   17.3180  -58.9000   30.0360 C   0  0  0  0  0  3  0  0  0  0  0  0
   17.3090  -58.7070   31.3980 C   0  0  0  0  0  3  0  0  0  0  0  0
   18.3680  -56.1600   34.9710 C   0  0  0  0  0  0  0  0  0  0  0  0
   19.2080  -55.3910   34.1830 C   0  0  0  0  0  3  0  0  0  0  0  0
   19.4820  -54.0710   34.4770 C   0  0  0  0  0  0  0  0  0  0  0  0
   18.9170  -53.4600   35.5880 C   0  0  0  0  0  0  0  0  0  0  0  0
   20.3870  -53.2890   33.6070 C   0  0  0  0  0  1  0  0  0  0  0  0
   18.0810  -54.2140   36.3790 C   0  0  0  0  0  3  0  0  0  0  0  0
   17.8110  -55.5510   36.0710 C   0  0  0  0  0  3  0  0  0  0  0  0
   19.1830  -52.1290   35.8980 O   0  0  0  0  0  0  0  0  0  0  0  0
   18.7330  -51.6120   37.1190 C   0  0  0  0  0  1  0  0  0  0  0  0
   14.3090  -60.2350   34.7910 C   0  0  0  0  0  2  0  0  0  0  0  0
   13.5240  -59.4880   35.8440 C   0  0  0  0  0  2  0  0  0  0  0  0
   14.1370  -59.5550   37.1420 N   0  0  0  0  0  4  0  0  0  0  0  0
   13.1520  -59.5760   38.1740 C   0  0  0  0  0  2  0  0  0  0  0  0
   12.8370  -58.2610   38.8070 C   0  0  0  0  0  2  0  0  0  0  0  0
   13.8840  -57.3820   38.8800 O   0  0  0  0  0  0  0  0  0  0  0  0
   14.5130  -57.1740   37.6600 C   0  0  0  0  0  2  0  0  0  0  0  0
   15.1030  -58.4970   37.2460 C   0  0  0  0  0  2  0  0  0  0  0  0
   14.6420  -60.4860   37.1690 H   0  0  0  0  0  0  0  0  0  0  0  0
  1 10  1  6  0  0  0
  1  2  1  0  0  0  0
  1  7  1  0  0  0  0
  2 26  1  0  0  0  0
  3  2  1  0  0  0  0
  4  3  2  0  0  0  0
  5  3  1  0  0  0  0
  5  7  1  0  0  0  0
  6  5  2  0  0  0  0
  7  8  2  0  0  0  0
  8 17  1  0  0  0  0
  8  9  1  0  0  0  0
 11 10  1  0  0  0  0
 12 11  2  0  0  0  0
 13 15  2  0  0  0  0
 13 12  1  0  0  0  0
 14 13  1  0  0  0  0
 15 16  1  0  0  0  0
 16 10  2  0  0  0  0
 17 23  1  0  0  0  0
 18 19  1  0  0  0  0
 18 17  2  0  0  0  0
 19 20  2  0  0  0  0
 20 24  1  0  0  0  0
 20 22  1  0  0  0  0
 21 19  1  0  0  0  0
 23 22  2  0  0  0  0
 24 25  1  0  0  0  0
 26 27  1  0  0  0  0
 27 28  1  0  0  0  0
 28 34  1  0  0  0  0
 28 33  1  0  0  0  0
 28 29  1  0  0  0  0
 29 30  1  0  0  0  0
 30 31  1  0  0  0  0
 32 31  1  0  0  0  0
 33 32  1  0  0  0  0
M  END
>  <Pose>
1

>  <Score>
-8.861

$$$$
