MODEL 1
REMARK VINA RESULT:    -8.861      0.000      0.000
REMARK INTER + INTRA:         -12.627
REMARK INTER:                 -11.969
REMARK INTRA:                  -0.659
REMARK UNBOUND:                -0.659
REMARK  6 active torsions:
REMARK  status: ('A' for Active; 'I' for Inactive)
REMARK    1  A    between atoms: C_5  and  C_8 
REMARK    2  A    between atoms: N_9  and  C_26 
REMARK    3  A    between atoms: C_15  and  C_17 
REMARK    4  A    between atoms: C_20  and  O_23 
REMARK    5  A    between atoms: C_26  and  C_27 
REMARK    6  A    between atoms: C_27  and  N_28 
ROOT
ATOM      1  C   UNK d   1      16.532 -59.341  33.719  0.00  0.00     0.161 C 
ATOM      2  N   UNK d   1      15.114 -59.237  34.085  0.00  0.00    -0.331 N 
ATOM      3  C   UNK d   1      14.702 -57.967  33.601  0.00  0.00     0.295 C 
ATOM      4  O   UNK d   1      13.556 -57.637  33.255  0.00  0.00    -0.264 OA
ATOM      5  C   UNK d   1      15.896 -57.128  33.592  0.00  0.00     0.250 C 
ATOM      6  O   UNK d   1      16.049 -55.919  33.244  0.00  0.00    -0.282 OA
ATOM      7  C   UNK d   1      16.993 -57.972  34.090  0.00  0.00     0.062 C 
ATOM      8  C   UNK d   1      18.098 -57.561  34.680  0.00  0.00     0.130 C 
ATOM      9  O   UNK d   1      19.049 -58.516  35.047  0.00  0.00    -0.190 OA
ENDROOT
BRANCH   1  10
ATOM     10  C   UNK d   1      16.558 -59.529  32.248  0.00  0.00    -0.030 A 
ATOM     11  C   UNK d   1      15.838 -60.531  31.634  0.00  0.00     0.011 A 
ATOM     12  C   UNK d   1      15.845 -60.728  30.270  0.00  0.00     0.024 A 
ATOM     13  C   UNK d   1      16.592 -59.905  29.446  0.00  0.00     0.034 A 
ATOM     14 Cl   UNK d   1      16.614 -60.139  27.699  0.00  0.00    -0.084 Cl
ATOM     15  C   UNK d   1      17.318 -58.900  30.036  0.00  0.00     0.024 A 
ATOM     16  C   UNK d   1      17.309 -58.707  31.398  0.00  0.00     0.011 A 
ENDBRANCH   1  10
BRANCH   8  17
ATOM     17  C   UNK d   1      18.368 -56.160  34.971  0.00  0.00     0.002 A 
ATOM     18  C   UNK d   1      19.208 -55.391  34.183  0.00  0.00     0.024 A 
ATOM     19  C   UNK d   1      19.482 -54.071  34.477  0.00  0.00    -0.028 A 
ATOM     20  C   UNK d   1      18.917 -53.460  35.588  0.00  0.00     0.074 A 
ATOM     21  C   UNK d   1      20.387 -53.289  33.607  0.00  0.00     0.051 C 
ATOM     22  C   UNK d   1      18.081 -54.214  36.379  0.00  0.00     0.038 A 
ATOM     23  C   UNK d   1      17.811 -55.551  36.071  0.00  0.00     0.017 A 
BRANCH  20  24
ATOM     24  O   UNK d   1      19.183 -52.129  35.898  0.00  0.00    -0.355 OA
ATOM     25  C   UNK d   1      18.733 -51.612  37.119  0.00  0.00     0.210 C 
ENDBRANCH  20  24
ENDBRANCH   8  17
BRANCH   2  26
ATOM     26  C   UNK d   1      14.309 -60.235  34.791  0.00  0.00     0.155 C 
BRANCH  26  27
ATOM     27  C   UNK d   1      13.524 -59.488  35.844  0.00  0.00     0.255 C 
BRANCH  27  28
ATOM     28  N   UNK d   1      14.137 -59.555  37.142  0.00  0.00    -0.066 N 
ATOM     29  C   UNK d   1      13.152 -59.576  38.174  0.00  0.00     0.261 C 
ATOM     30  C   UNK d   1      12.837 -58.261  38.807  0.00  0.00     0.195 C 
ATOM     31  O   UNK d   1      13.884 -57.382  38.880  0.00  0.00    -0.388 OA
ATOM     32  C   UNK d   1      14.513 -57.174  37.660  0.00  0.00     0.195 C 
ATOM     33  C   UNK d   1      15.103 -58.497  37.246  0.00  0.00     0.261 C 
ATOM     34  H   UNK d   1      14.642 -60.486  37.169  0.00  0.00     0.280 HD
ENDBRANCH  27  28
ENDBRANCH  26  27
ENDBRANCH   2  26
TORSDOF 6
ENDMDL
