MODEL 1
REMARK VINA RESULT:    -8.378      0.000      0.000
REMARK INTER + INTRA:          -8.540
REMARK INTER:                  -8.868
REMARK INTRA:                   0.329
REMARK UNBOUND:                 0.329
REMARK  1 active torsions:
REMARK  status: ('A' for Active; 'I' for Inactive)
REMARK       I    between atoms: N_10  and  C_13 
REMARK    1  A    between atoms: C_13  and  C_15 
ROOT
ATOM      1 Cl   UNK d   1      19.964 -51.573  36.579  0.00  0.00    -0.083 Cl
ATOM      2  C   UNK d   1      18.939 -52.996  36.707  0.00  0.00     0.050 A 
ATOM      3  C   UNK d   1      18.415 -53.624  35.598  0.00  0.00     0.125 A 
ATOM      4  N   UNK d   1      17.619 -54.729  35.701  0.00  0.00    -0.271 N 
ATOM      5  C   UNK d   1      17.307 -55.260  36.897  0.00  0.00     0.137 A 
ATOM      6  N   UNK d   1      16.516 -56.358  37.001  0.00  0.00    -0.234 NA
ATOM      7  C   UNK d   1      16.006 -56.968  35.910  0.00  0.00     0.051 A 
ATOM      8  C   UNK d   1      16.302 -56.456  34.681  0.00  0.00     0.053 A 
ATOM      9  C   UNK d   1      15.763 -57.094  33.437  0.00  0.00     0.172 C 
ATOM     10  N   UNK d   1      15.570 -58.510  33.793  0.00  0.00    -0.342 N 
ATOM     11  C   UNK d   1      14.623 -58.721  34.851  0.00  0.00     0.132 C 
ATOM     12  C   UNK d   1      15.155 -58.162  36.159  0.00  0.00     0.080 C 
ATOM     13  C   UNK d   1      16.304 -59.461  33.090  0.00  0.00     0.274 C 
ATOM     14  O   UNK d   1      17.100 -59.063  32.170  0.00  0.00    -0.266 OA
ATOM     15  C   UNK d   1      17.114 -55.332  34.609  0.00  0.00     0.263 A 
ATOM     16  O   UNK d   1      17.390 -54.856  33.491  0.00  0.00    -0.267 OA
ATOM     17  C   UNK d   1      17.831 -54.634  38.018  0.00  0.00     0.053 A 
ATOM     18  C   UNK d   1      18.637 -53.518  37.945  0.00  0.00     0.029 A 
ENDROOT
BRANCH  13  19
ATOM     19  C   UNK d   1      16.256 -60.913  33.303  0.00  0.00     0.141 A 
ATOM     20  N   UNK d   1      17.258 -61.722  32.949  0.00  0.00    -0.253 NA
ATOM     21  C   UNK d   1      17.206 -63.043  33.147  0.00  0.00     0.136 A 
ATOM     22  C   UNK d   1      16.111 -63.647  33.729  0.00  0.00     0.135 A 
ATOM     23  N   UNK d   1      15.113 -62.818  34.080  0.00  0.00    -0.269 NA
ATOM     24  C   UNK d   1      15.140 -61.498  33.893  0.00  0.00     0.153 A 
ENDBRANCH  13  19
TORSDOF 1
ENDMDL
