MODEL 1
REMARK VINA RESULT:    -8.757      0.000      0.000
REMARK INTER + INTRA:         -10.350
REMARK INTER:                 -10.036
REMARK INTRA:                  -0.313
REMARK UNBOUND:                -0.313
REMARK  3 active torsions:
REMARK  status: ('A' for Active; 'I' for Inactive)
REMARK    1  A    between atoms: C_3  and  O_25 
REMARK    2  A    between atoms: C_4  and  C_9 
REMARK    3  A    between atoms: C_11  and  C_22 
ROOT
ATOM      1  C   UNK d   1      17.085 -57.261  35.562  0.00  0.00     0.272 C 
ATOM      2  N   UNK d   1      15.698 -57.532  35.605  0.00  0.00    -0.047 N 
ATOM      3  C   UNK d   1      15.101 -58.056  34.411  0.00  0.00     0.291 C 
ATOM      4  C   UNK d   1      15.424 -57.117  33.237  0.00  0.00     0.086 C 
ATOM      5  C   UNK d   1      16.891 -57.213  33.104  0.00  0.00    -0.018 A 
ATOM      6  C   UNK d   1      17.711 -57.258  31.988  0.00  0.00    -0.001 A 
ATOM      7  C   UNK d   1      19.002 -57.357  32.457  0.00  0.00     0.043 A 
ATOM      8  N   UNK d   1      18.992 -57.373  33.799  0.00  0.00    -0.356 N 
ATOM      9  C   UNK d   1      17.683 -57.284  34.207  0.00  0.00     0.052 A 
ATOM     10  C   UNK d   1      20.023 -57.422  31.527  0.00  0.00     0.030 A 
ATOM     11  C   UNK d   1      19.709 -57.383  30.191  0.00  0.00     0.002 A 
ATOM     12  C   UNK d   1      18.417 -57.285  29.725  0.00  0.00     0.001 A 
ATOM     13  C   UNK d   1      17.379 -57.219  30.651  0.00  0.00     0.014 A 
ATOM     14  H   UNK d   1      15.536 -58.257  36.375  0.00  0.00     0.279 HD
ATOM     15  H   UNK d   1      15.107 -56.713  35.897  0.00  0.00     0.279 HD
ATOM     16  H   UNK d   1      19.802 -57.439  34.468  0.00  0.00     0.166 HD
ENDROOT
BRANCH   1  17
ATOM     17  C   UNK d   1      17.337 -55.883  36.121  0.00  0.00     0.014 A 
ATOM     18  C   UNK d   1      16.650 -55.405  37.222  0.00  0.00     0.091 A 
ATOM     19  C   UNK d   1      16.909 -54.126  37.725  0.00  0.00     0.046 A 
ATOM     20 Br   UNK d   1      15.945 -53.479  39.246  0.00  0.00    -0.048 Br
ATOM     21  C   UNK d   1      17.845 -53.315  37.144  0.00  0.00     0.041 A 
ATOM     22  C   UNK d   1      18.531 -53.788  36.049  0.00  0.00     0.013 A 
ATOM     23  C   UNK d   1      18.280 -55.057  35.543  0.00  0.00     0.031 A 
ATOM     24 Br   UNK d   1      19.855 -52.677  35.201  0.00  0.00    -0.051 Br
BRANCH  18  25
ATOM     25  O   UNK d   1      15.692 -56.131  37.879  0.00  0.00    -0.359 OA
ATOM     26  H   UNK d   1      15.834 -56.760  38.621  0.00  0.00     0.217 HD
ENDBRANCH  18  25
ENDBRANCH   1  17
BRANCH   3  27
ATOM     27  C   UNK d   1      13.641 -58.182  34.595  0.00  0.00     0.205 C 
ATOM     28  O   UNK d   1      12.873 -57.700  33.723  0.00  0.00    -0.646 OA
ATOM     29  O   UNK d   1      13.147 -58.824  35.719  0.00  0.00    -0.646 OA
ENDBRANCH   3  27
TORSDOF 3
ENDMDL
