/Users/jonathanwahrer/Desktop/Msc/3_Semester/Drug_Design_Praktikum/waehrer_HTS_screening/HTS_experiment/out/docking_results/vina_output/6s1j/1553_docked.pdbqt
 OpenBabel03222222123D

 29 32  0  0  1  0  0  0  0  0999 V2000
   17.0850  -57.2610   35.5620 C   0  0  1  0  0  3  0  0  0  0  0  0
   15.6980  -57.5320   35.6050 N   0  0  0  0  0  4  0  0  0  0  0  0
   15.1010  -58.0560   34.4110 C   0  0  2  0  0  3  0  0  0  0  0  0
   15.4240  -57.1170   33.2370 C   0  0  0  0  0  2  0  0  0  0  0  0
   16.8910  -57.2130   33.1040 C   0  0  0  0  0  0  0  0  0  0  0  0
   17.7110  -57.2580   31.9880 C   0  0  0  0  0  0  0  0  0  0  0  0
   19.0020  -57.3570   32.4570 C   0  0  0  0  0  0  0  0  0  0  0  0
   18.9920  -57.3730   33.7990 N   0  0  0  0  0  0  0  0  0  0  0  0
   17.6830  -57.2840   34.2070 C   0  0  0  0  0  0  0  0  0  0  0  0
   20.0230  -57.4220   31.5270 C   0  0  0  0  0  3  0  0  0  0  0  0
   19.7090  -57.3830   30.1910 C   0  0  0  0  0  3  0  0  0  0  0  0
   18.4170  -57.2850   29.7250 C   0  0  0  0  0  3  0  0  0  0  0  0
   17.3790  -57.2190   30.6510 C   0  0  0  0  0  3  0  0  0  0  0  0
   15.5360  -58.2570   36.3750 H   0  0  0  0  0  0  0  0  0  0  0  0
   15.1070  -56.7130   35.8970 H   0  0  0  0  0  0  0  0  0  0  0  0
   19.8020  -57.4390   34.4680 H   0  0  0  0  0  0  0  0  0  0  0  0
   17.3370  -55.8830   36.1210 C   0  0  0  0  0  0  0  0  0  0  0  0
   16.6500  -55.4050   37.2220 C   0  0  0  0  0  0  0  0  0  0  0  0
   16.9090  -54.1260   37.7250 C   0  0  0  0  0  0  0  0  0  0  0  0
   15.9450  -53.4790   39.2460 Br  0  0  0  0  0  0  0  0  0  0  0  0
   17.8450  -53.3150   37.1440 C   0  0  0  0  0  3  0  0  0  0  0  0
   18.5310  -53.7880   36.0490 C   0  0  0  0  0  0  0  0  0  0  0  0
   18.2800  -55.0570   35.5430 C   0  0  0  0  0  3  0  0  0  0  0  0
   19.8550  -52.6770   35.2010 Br  0  0  0  0  0  0  0  0  0  0  0  0
   15.6920  -56.1310   37.8790 O   0  0  0  0  0  0  0  0  0  0  0  0
   15.8340  -56.7600   38.6210 H   0  0  0  0  0  0  0  0  0  0  0  0
   13.6410  -58.1820   34.5950 C   0  0  0  0  0  0  0  0  0  0  0  0
   12.8730  -57.7000   33.7230 O   0  0  0  0  0  0  0  0  0  0  0  0
   13.1470  -58.8240   35.7190 O   0  0  0  0  0  1  0  0  0  0  0  0
  1  2  1  0  0  0  0
  1 17  1  6  0  0  0
  2 15  1  0  0  0  0
  2 14  1  0  0  0  0
  3 27  1  1  0  0  0
  3  2  1  0  0  0  0
  4  3  1  0  0  0  0
  5  4  1  0  0  0  0
  5  9  2  0  0  0  0
  6  7  1  0  0  0  0
  6  5  1  0  0  0  0
  7  8  1  0  0  0  0
  8  9  1  0  0  0  0
  8 16  1  0  0  0  0
  9  1  1  0  0  0  0
 10  7  2  0  0  0  0
 11 10  1  0  0  0  0
 12 11  2  0  0  0  0
 12 13  1  0  0  0  0
 13  6  2  0  0  0  0
 17 18  1  0  0  0  0
 18 19  2  0  0  0  0
 18 25  1  0  0  0  0
 19 20  1  0  0  0  0
 21 19  1  0  0  0  0
 22 21  2  0  0  0  0
 23 22  1  0  0  0  0
 23 17  2  0  0  0  0
 24 22  1  0  0  0  0
 25 26  1  0  0  0  0
 27 29  1  0  0  0  0
 28 27  2  0  0  0  0
M  END
>  <Pose>
1

>  <Score>
-8.757

$$$$
