MODEL 1
REMARK VINA RESULT:    -9.544      0.000      0.000
REMARK INTER + INTRA:         -13.384
REMARK INTER:                 -12.334
REMARK INTRA:                  -1.049
REMARK UNBOUND:                -1.049
REMARK  5 active torsions:
REMARK  status: ('A' for Active; 'I' for Inactive)
REMARK    1  A    between atoms: C_7  and  C_11 
REMARK    2  A    between atoms: C_11  and  O_12 
REMARK    3  A    between atoms: O_12  and  C_13 
REMARK    4  A    between atoms: C_13  and  C_15 
REMARK    5  A    between atoms: C_15  and  N_16 
ROOT
ATOM      1  O   UNK d   1      14.112 -56.731  37.755  0.00  0.00    -0.314 OA
ENDROOT
BRANCH   1   2
ATOM      2  C   UNK d   1      14.909 -56.313  38.827  0.00  0.00     0.238 C 
BRANCH   2   3
ATOM      3  C   UNK d   1      15.767 -55.153  38.488  0.00  0.00     0.066 A 
ATOM      4  N   UNK d   1      16.793 -55.225  37.617  0.00  0.00    -0.233 NA
ATOM      5  C   UNK d   1      17.550 -54.164  37.330  0.00  0.00     0.137 A 
ATOM      6  N   UNK d   1      17.354 -52.940  37.883  0.00  0.00    -0.272 N 
ATOM      7  C   UNK d   1      18.593 -54.320  36.419  0.00  0.00     0.052 A 
ATOM      8  C   UNK d   1      18.143 -51.905  37.560  0.00  0.00     0.121 A 
ATOM      9  C   UNK d   1      16.328 -52.834  38.766  0.00  0.00     0.255 A 
ATOM     10  C   UNK d   1      19.181 -52.020  36.667  0.00  0.00     0.027 A 
ATOM     11 Br   UNK d   1      20.289 -50.505  36.232  0.00  0.00    -0.050 Br
ATOM     12  C   UNK d   1      19.397 -53.248  36.095  0.00  0.00     0.024 A 
ATOM     13  C   UNK d   1      15.537 -53.924  39.071  0.00  0.00     0.104 A 
ATOM     14  O   UNK d   1      16.151 -51.693  39.276  0.00  0.00    -0.268 OA
ENDBRANCH   2   3
ENDBRANCH   1   2
BRANCH   1  15
ATOM     15  C   UNK d   1      13.592 -57.994  37.589  0.00  0.00     0.277 C 
ATOM     16  O   UNK d   1      12.805 -58.390  38.495  0.00  0.00    -0.263 OA
BRANCH  15  17
ATOM     17  C   UNK d   1      13.923 -58.854  36.421  0.00  0.00     0.245 C 
BRANCH  17  18
ATOM     18  N   UNK d   1      14.802 -58.162  35.477  0.00  0.00    -0.278 N 
ATOM     19  C   UNK d   1      16.189 -57.878  35.637  0.00  0.00     0.232 C 
ATOM     20  O   UNK d   1      16.941 -58.327  36.536  0.00  0.00    -0.273 OA
ATOM     21  C   UNK d   1      16.590 -56.955  34.549  0.00  0.00     0.091 C 
ATOM     22  C   UNK d   1      15.653 -57.401  33.452  0.00  0.00     0.091 C 
ATOM     23  C   UNK d   1      18.022 -56.992  34.202  0.00  0.00     0.015 C 
ATOM     24  C   UNK d   1      16.081 -58.704  32.805  0.00  0.00     0.015 C 
ATOM     25  C   UNK d   1      14.409 -57.638  34.220  0.00  0.00     0.232 C 
ATOM     26  C   UNK d   1      17.434 -59.176  33.266  0.00  0.00     0.001 C 
ATOM     27  C   UNK d   1      18.435 -58.055  33.246  0.00  0.00     0.001 C 
ATOM     28  O   UNK d   1      13.213 -57.423  33.849  0.00  0.00    -0.273 OA
ENDBRANCH  17  18
ENDBRANCH  15  17
ENDBRANCH   1  15
TORSDOF 5
ENDMDL
