/Users/jonathanwahrer/Desktop/Msc/3_Semester/Drug_Design_Praktikum/waehrer_HTS_screening/HTS_experiment/out/docking_results/vina_output/6s1j/1576_docked.pdbqt
 OpenBabel03222222133D

 30 33  0  0  0  0  0  0  0  0999 V2000
   17.9250  -53.2770   37.2690 N   0  0  0  0  0  0  0  0  0  0  0  0
   16.5980  -52.7030   37.3380 C   0  0  0  0  0  2  0  0  0  0  0  0
   15.9030  -53.2420   38.5860 C   0  0  0  0  0  2  0  0  0  0  0  0
   16.2100  -54.6560   38.7370 N   0  0  0  0  0  0  0  0  0  0  0  0
   17.5950  -55.0540   38.8250 C   0  0  0  0  0  2  0  0  0  0  0  0
   18.4490  -53.8460   38.5210 C   0  0  0  0  0  2  0  0  0  0  0  0
   15.1850  -55.6400   38.8000 C   0  0  0  0  0  0  0  0  0  0  0  0
   13.9770  -55.2540   38.7250 O   0  0  0  0  0  0  0  0  0  0  0  0
   15.4340  -57.0780   38.9480 C   0  0  0  0  0  2  0  0  0  0  0  0
   15.1220  -57.8500   37.7460 N   0  0  0  0  0  0  0  0  0  0  0  0
   15.8620  -58.0700   36.6780 N   0  0  0  0  0  0  0  0  0  0  0  0
   15.2480  -58.8290   35.7680 C   0  0  0  0  0  0  0  0  0  0  0  0
   14.0030  -59.1270   36.2900 C   0  0  0  0  0  3  0  0  0  0  0  0
   13.9510  -58.5070   37.5190 C   0  0  0  0  0  0  0  0  0  0  0  0
   12.7960  -58.5540   38.4390 C   0  0  0  0  0  1  0  0  0  0  0  0
   15.7900  -59.2640   34.4680 C   0  0  0  0  0  0  0  0  0  0  0  0
   15.9550  -60.4780   34.2320 O   0  0  0  0  0  0  0  0  0  0  0  0
   16.1130  -58.2860   33.5010 N   0  0  0  0  0  0  0  0  0  0  0  0
   15.9490  -56.8740   33.7020 C   0  0  0  0  0  2  0  0  0  0  0  0
   16.6520  -58.7060   32.2040 C   0  0  0  0  0  2  0  0  0  0  0  0
   16.5580  -56.1900   32.4720 C   0  0  0  0  0  2  0  0  0  0  0  0
   17.8480  -56.6200   32.2510 O   0  0  0  0  0  0  0  0  0  0  0  0
   17.9550  -57.9650   31.9900 C   0  0  0  0  0  2  0  0  0  0  0  0
   18.7330  -53.3350   36.1320 C   0  0  0  0  0  0  0  0  0  0  0  0
   19.5410  -52.3080   35.6920 C   0  0  0  0  0  0  0  0  0  0  0  0
   19.5740  -50.8320   36.5880 Cl  0  0  0  0  0  0  0  0  0  0  0  0
   20.3280  -52.4070   34.5610 C   0  0  0  0  0  3  0  0  0  0  0  0
   20.3240  -53.5550   33.8330 C   0  0  0  0  0  3  0  0  0  0  0  0
   19.5360  -54.6020   34.2320 C   0  0  0  0  0  3  0  0  0  0  0  0
   18.7520  -54.4960   35.3640 C   0  0  0  0  0  3  0  0  0  0  0  0
  1  2  1  0  0  0  0
  1  6  1  0  0  0  0
  2  3  1  0  0  0  0
  3  4  1  0  0  0  0
  4  7  1  0  0  0  0
  4  5  1  0  0  0  0
  6  5  1  0  0  0  0
  7  9  1  0  0  0  0
  8  7  2  0  0  0  0
 10  9  1  0  0  0  0
 11 10  1  0  0  0  0
 12 13  1  0  0  0  0
 12 11  2  0  0  0  0
 13 14  2  0  0  0  0
 14 10  1  0  0  0  0
 14 15  1  0  0  0  0
 16 12  1  0  0  0  0
 17 16  2  0  0  0  0
 18 19  1  0  0  0  0
 18 16  1  0  0  0  0
 20 18  1  0  0  0  0
 21 19  1  0  0  0  0
 22 21  1  0  0  0  0
 23 20  1  0  0  0  0
 23 22  1  0  0  0  0
 24  1  1  0  0  0  0
 25 24  1  0  0  0  0
 25 26  1  0  0  0  0
 27 25  2  0  0  0  0
 28 29  2  0  0  0  0
 28 27  1  0  0  0  0
 29 30  1  0  0  0  0
 30 24  2  0  0  0  0
M  END
>  <Pose>
1

>  <Score>
-8.891

$$$$
