MODEL 1
REMARK VINA RESULT:    -9.194      0.000      0.000
REMARK INTER + INTRA:         -11.315
REMARK INTER:                 -10.806
REMARK INTRA:                  -0.509
REMARK UNBOUND:                -0.509
REMARK  3 active torsions:
REMARK  status: ('A' for Active; 'I' for Inactive)
REMARK    1  A    between atoms: C_5  and  C_8 
REMARK       I    between atoms: C_8  and  N_10 
REMARK    2  A    between atoms: C_18  and  C_22 
REMARK    3  A    between atoms: C_22  and  C_23 
ROOT
ATOM      1  C   UNK d   1      16.737 -54.336  38.668  0.00  0.00     0.187 C 
ATOM      2  O   UNK d   1      16.304 -54.009  39.876  0.00  0.00    -0.171 OA
ATOM      3  N   UNK d   1      16.330 -55.596  38.199  0.00  0.00    -0.355 N 
ATOM      4  C   UNK d   1      16.702 -56.152  36.947  0.00  0.00     0.160 C 
ATOM      5  C   UNK d   1      16.248 -57.621  36.901  0.00  0.00     0.197 C 
ATOM      6  N   UNK d   1      14.822 -57.589  37.101  0.00  0.00    -0.334 N 
ATOM      7  C   UNK d   1      14.342 -57.043  38.325  0.00  0.00     0.147 C 
ATOM      8  C   UNK d   1      15.451 -56.351  39.091  0.00  0.00     0.145 C 
ATOM      9  C   UNK d   1      13.943 -58.080  36.119  0.00  0.00     0.243 C 
ATOM     10  O   UNK d   1      12.787 -58.397  36.452  0.00  0.00    -0.271 OA
ATOM     11  C   UNK d   1      14.424 -58.202  34.728  0.00  0.00     0.182 C 
ATOM     12  N   UNK d   1      15.707 -58.838  34.786  0.00  0.00    -0.346 N 
ATOM     13  C   UNK d   1      16.668 -58.303  35.679  0.00  0.00     0.243 C 
ATOM     14  O   UNK d   1      17.915 -58.399  35.450  0.00  0.00    -0.271 OA
ATOM     15  H   UNK d   1      15.952 -59.672  34.196  0.00  0.00     0.163 HD
ENDROOT
BRANCH   1  16
ATOM     16  C   UNK d   1      17.550 -53.308  38.081  0.00  0.00     0.018 A 
ATOM     17  C   UNK d   1      17.276 -51.965  38.004  0.00  0.00     0.017 A 
ATOM     18  C   UNK d   1      18.105 -51.030  37.383  0.00  0.00     0.025 A 
ATOM     19  C   UNK d   1      19.265 -51.439  36.811  0.00  0.00     0.034 A 
ATOM     20 Cl   UNK d   1      20.345 -50.285  36.013  0.00  0.00    -0.084 Cl
ATOM     21  C   UNK d   1      19.600 -52.768  36.854  0.00  0.00     0.025 A 
ATOM     22  C   UNK d   1      18.764 -53.674  37.472  0.00  0.00     0.017 A 
ENDBRANCH   1  16
BRANCH  11  23
ATOM     23  C   UNK d   1      13.451 -58.828  33.804  0.00  0.00     0.095 C 
BRANCH  23  24
ATOM     24  C   UNK d   1      14.010 -60.070  33.246  0.00  0.00     0.053 A 
ATOM     25  N   UNK d   1      14.897 -60.217  32.260  0.00  0.00    -0.247 NA
ATOM     26  C   UNK d   1      15.137 -61.547  32.065  0.00  0.00     0.207 A 
ATOM     27  N   UNK d   1      14.398 -62.245  32.929  0.00  0.00    -0.359 N 
ATOM     28  C   UNK d   1      13.703 -61.368  33.660  0.00  0.00     0.116 A 
ATOM     29  H   UNK d   1      14.366 -63.264  33.020  0.00  0.00     0.166 HD
ENDBRANCH  23  24
ENDBRANCH  11  23
TORSDOF 3
ENDMDL
