MODEL 1
REMARK VINA RESULT:    -8.980      0.000      0.000
REMARK INTER + INTRA:         -10.824
REMARK INTER:                 -10.555
REMARK INTRA:                  -0.270
REMARK UNBOUND:                -0.270
REMARK  3 active torsions:
REMARK  status: ('A' for Active; 'I' for Inactive)
REMARK    1  A    between atoms: C_3  and  N_15 
REMARK    2  A    between atoms: N_6  and  C_9 
REMARK    3  A    between atoms: N_18  and  C_21 
ROOT
ATOM      1 Cl   UNK d   1      17.126 -56.190  36.139  0.00  0.00    -0.076 Cl
ATOM      2  C   UNK d   1      15.807 -56.497  37.247  0.00  0.00     0.131 A 
ATOM      3  C   UNK d   1      15.617 -55.690  38.333  0.00  0.00     0.077 A 
ATOM      4  C   UNK d   1      14.543 -56.039  39.155  0.00  0.00     0.170 A 
ATOM      5  N   UNK d   1      13.772 -57.099  38.866  0.00  0.00    -0.174 NA
ATOM      6  N   UNK d   1      13.937 -57.887  37.828  0.00  0.00    -0.197 N 
ATOM      7  C   UNK d   1      14.956 -57.590  37.011  0.00  0.00     0.292 A 
ATOM      8  O   UNK d   1      15.195 -58.285  35.990  0.00  0.00    -0.264 OA
ENDROOT
BRANCH   3   9
ATOM      9  N   UNK d   1      16.422 -54.561  38.617  0.00  0.00    -0.375 N 
ATOM     10  C   UNK d   1      15.923 -53.198  38.538  0.00  0.00     0.143 C 
ATOM     11  C   UNK d   1      16.643 -52.403  37.479  0.00  0.00     0.146 C 
ATOM     12  N   UNK d   1      18.037 -52.764  37.562  0.00  0.00    -0.341 N 
ATOM     13  C   UNK d   1      18.522 -53.298  38.808  0.00  0.00     0.146 C 
ATOM     14  C   UNK d   1      17.828 -54.667  38.989  0.00  0.00     0.143 C 
BRANCH  12  15
ATOM     15  C   UNK d   1      18.906 -52.599  36.457  0.00  0.00     0.270 A 
ATOM     16  N   UNK d   1      19.734 -51.545  36.205  0.00  0.00    -0.103 NA
ATOM     17  N   UNK d   1      20.383 -51.761  35.079  0.00  0.00    -0.126 NA
ATOM     18  C   UNK d   1      19.987 -52.934  34.601  0.00  0.00     0.167 A 
ATOM     19  O   UNK d   1      19.107 -53.415  35.439  0.00  0.00    -0.260 OA
ATOM     20  C   UNK d   1      20.420 -53.636  33.349  0.00  0.00     0.102 C 
ENDBRANCH  12  15
ENDBRANCH   3   9
BRANCH   6  21
ATOM     21  C   UNK d   1      13.071 -58.994  37.594  0.00  0.00     0.062 A 
ATOM     22  C   UNK d   1      12.827 -59.964  38.546  0.00  0.00     0.032 A 
ATOM     23  C   UNK d   1      11.986 -61.030  38.309  0.00  0.00     0.002 A 
ATOM     24  C   UNK d   1      11.351 -61.167  37.091  0.00  0.00     0.000 A 
ATOM     25  C   UNK d   1      11.591 -60.202  36.136  0.00  0.00     0.002 A 
ATOM     26  C   UNK d   1      12.434 -59.134  36.378  0.00  0.00     0.032 A 
ENDBRANCH   6  21
TORSDOF 3
ENDMDL
