MODEL 1
REMARK VINA RESULT:    -8.493      0.000      0.000
REMARK INTER + INTRA:         -10.680
REMARK INTER:                 -10.231
REMARK INTRA:                  -0.449
REMARK UNBOUND:                -0.449
REMARK  4 active torsions:
REMARK  status: ('A' for Active; 'I' for Inactive)
REMARK    1  A    between atoms: C_7  and  C_9 
REMARK       I    between atoms: C_9  and  N_11 
REMARK    2  A    between atoms: N_17  and  C_20 
REMARK    3  A    between atoms: C_20  and  C_21 
REMARK    4  A    between atoms: C_21  and  O_22 
ROOT
ATOM      1  C   UNK d   1      15.546 -57.565  37.162  0.00  0.00     0.274 C 
ATOM      2  O   UNK d   1      15.810 -58.399  38.105  0.00  0.00    -0.266 OA
ATOM      3  N   UNK d   1      14.732 -58.021  36.144  0.00  0.00    -0.341 N 
ATOM      4  C   UNK d   1      14.329 -57.219  35.014  0.00  0.00     0.131 C 
ATOM      5  C   UNK d   1      14.975 -57.718  33.738  0.00  0.00     0.066 C 
ATOM      6  C   UNK d   1      15.045 -59.218  33.770  0.00  0.00     0.039 A 
ATOM      7  C   UNK d   1      14.697 -59.993  34.842  0.00  0.00     0.056 A 
ATOM      8  N   UNK d   1      14.910 -61.275  34.446  0.00  0.00    -0.297 N 
ATOM      9  N   UNK d   1      15.362 -61.316  33.214  0.00  0.00    -0.255 N 
ATOM     10  C   UNK d   1      15.467 -60.069  32.737  0.00  0.00     0.270 A 
ATOM     11  O   UNK d   1      15.866 -59.695  31.587  0.00  0.00    -0.266 OA
ATOM     12  C   UNK d   1      14.199 -59.405  36.119  0.00  0.00     0.185 C 
ATOM     13  H   UNK d   1      14.723 -62.089  35.081  0.00  0.00     0.187 HD
ENDROOT
BRANCH   1  14
ATOM     14  C   UNK d   1      16.135 -56.241  37.273  0.00  0.00     0.142 A 
ATOM     15  N   UNK d   1      15.811 -55.250  38.104  0.00  0.00    -0.224 NA
ATOM     16  C   UNK d   1      16.609 -54.197  37.869  0.00  0.00     0.134 A 
ATOM     17  N   UNK d   1      17.454 -54.509  36.880  0.00  0.00    -0.313 N 
ATOM     18  C   UNK d   1      16.623 -52.944  38.506  0.00  0.00     0.052 A 
ATOM     19  C   UNK d   1      18.368 -53.590  36.463  0.00  0.00     0.122 A 
ATOM     20  C   UNK d   1      17.194 -55.762  36.485  0.00  0.00     0.135 A 
ATOM     21  C   UNK d   1      18.403 -52.354  37.069  0.00  0.00     0.050 A 
ATOM     22 Cl   UNK d   1      19.562 -51.139  36.565  0.00  0.00    -0.083 Cl
ATOM     23  C   UNK d   1      17.534 -52.021  38.094  0.00  0.00     0.029 A 
ENDBRANCH   1  14
BRANCH   9  24
ATOM     24  C   UNK d   1      15.715 -62.504  32.423  0.00  0.00     0.178 C 
BRANCH  24  25
ATOM     25  C   UNK d   1      16.940 -63.181  32.991  0.00  0.00     0.186 C 
BRANCH  25  26
ATOM     26  O   UNK d   1      18.099 -62.449  32.766  0.00  0.00    -0.399 OA
ATOM     27  H   UNK d   1      18.105 -62.022  31.858  0.00  0.00     0.209 HD
ENDBRANCH  25  26
ENDBRANCH  24  25
ENDBRANCH   9  24
TORSDOF 4
ENDMDL
