MODEL 1
REMARK VINA RESULT:    -9.654      0.000      0.000
REMARK INTER + INTRA:         -12.050
REMARK INTER:                 -11.347
REMARK INTRA:                  -0.703
REMARK UNBOUND:                -0.703
REMARK  3 active torsions:
REMARK  status: ('A' for Active; 'I' for Inactive)
REMARK    1  A    between atoms: C_4  and  C_8 
REMARK       I    between atoms: C_8  and  N_10 
REMARK    2  A    between atoms: N_10  and  C_11 
REMARK    3  A    between atoms: C_11  and  C_12 
REMARK       I    between atoms: C_12  and  N_14 
ROOT
ATOM      1  C   UNK d   1      17.455 -56.325  33.784  0.00  0.00     0.237 C 
ATOM      2  O   UNK d   1      16.936 -55.173  33.569  0.00  0.00    -0.272 OA
ATOM      3  N   UNK d   1      16.782 -57.505  33.439  0.00  0.00    -0.351 N 
ATOM      4  C   UNK d   1      17.327 -58.805  33.668  0.00  0.00     0.129 C 
ATOM      5  C   UNK d   1      16.282 -59.815  34.046  0.00  0.00     0.068 C 
ATOM      6  C   UNK d   1      15.007 -59.228  34.612  0.00  0.00     0.204 C 
ATOM      7  N   UNK d   1      14.079 -60.352  34.612  0.00  0.00     0.099 N 
ATOM      8  C   UNK d   1      12.855 -60.148  35.287  0.00  0.00     0.277 C 
ATOM      9  C   UNK d   1      12.772 -59.024  36.253  0.00  0.00     0.091 C 
ATOM     10  C   UNK d   1      14.108 -58.697  36.840  0.00  0.00     0.062 A 
ATOM     11  N   UNK d   1      14.472 -58.302  38.059  0.00  0.00    -0.246 NA
ATOM     12  C   UNK d   1      15.812 -58.157  38.015  0.00  0.00     0.207 A 
ATOM     13  N   UNK d   1      16.275 -58.458  36.782  0.00  0.00    -0.350 N 
ATOM     14  C   UNK d   1      15.200 -58.804  36.016  0.00  0.00     0.074 A 
ATOM     15  C   UNK d   1      14.449 -58.086  33.802  0.00  0.00     0.068 C 
ATOM     16  C   UNK d   1      15.453 -57.481  32.839  0.00  0.00     0.129 C 
ATOM     17  H   UNK d   1      13.930 -60.556  33.582  0.00  0.00     0.317 HD
ATOM     18  H   UNK d   1      17.265 -58.426  36.484  0.00  0.00     0.166 HD
ENDROOT
BRANCH   1  19
ATOM     19  C   UNK d   1      18.819 -56.286  34.425  0.00  0.00     0.225 C 
BRANCH  19  20
ATOM     20  N   UNK d   1      19.133 -55.014  34.877  0.00  0.00    -0.348 N 
ATOM     21  C   UNK d   1      19.432 -53.800  35.308  0.00  0.00     0.252 C 
ATOM     22  O   UNK d   1      20.363 -53.016  34.906  0.00  0.00    -0.268 OA
ATOM     23  H   UNK d   1      20.174 -54.963  33.967  0.00  0.00     0.163 HD
BRANCH  21  24
ATOM     24  C   UNK d   1      18.601 -53.214  36.417  0.00  0.00     0.033 A 
ATOM     25  C   UNK d   1      17.598 -53.930  37.014  0.00  0.00     0.036 A 
ATOM     26  C   UNK d   1      16.817 -53.368  38.013  0.00  0.00     0.011 A 
ATOM     27 Br   UNK d   1      15.450 -54.394  38.813  0.00  0.00    -0.051 Br
ATOM     28  C   UNK d   1      17.086 -52.072  38.376  0.00  0.00     0.019 A 
ATOM     29  C   UNK d   1      18.100 -51.353  37.772  0.00  0.00     0.002 A 
ATOM     30  C   UNK d   1      18.883 -51.927  36.766  0.00  0.00     0.017 A 
ENDBRANCH  21  24
ENDBRANCH  19  20
ENDBRANCH   1  19
TORSDOF 3
ENDMDL
