/Users/jonathanwahrer/Desktop/Msc/3_Semester/Drug_Design_Praktikum/waehrer_HTS_screening/HTS_experiment/out/docking_results/vina_output/6s1j/1609_docked.pdbqt
 OpenBabel03222222143D

 26 29  0  0  1  0  0  0  0  0999 V2000
   18.7960  -55.4590   33.7400 N   0  0  0  0  0  0  0  0  0  0  0  0
   18.8460  -56.8390   34.1450 C   0  0  2  0  0  3  0  0  0  0  0  0
   18.3660  -57.5390   32.8890 C   0  0  2  0  0  3  0  0  0  0  0  0
   17.2790  -56.7000   32.5200 O   0  0  0  0  0  0  0  0  0  0  0  0
   17.7700  -55.4000   32.7550 C   0  0  0  0  0  0  0  0  0  0  0  0
   17.3290  -54.3710   32.1530 O   0  0  0  0  0  0  0  0  0  0  0  0
   17.9630  -58.8450   33.4720 C   0  0  0  0  0  2  0  0  0  0  0  0
   17.1000  -58.3990   34.5900 N   0  0  0  0  0  0  0  0  0  0  0  0
   17.6700  -57.1810   35.0770 C   0  0  0  0  0  2  0  0  0  0  0  0
   15.9800  -59.1450   34.9680 C   0  0  0  0  0  0  0  0  0  0  0  0
   15.6860  -60.2370   34.3280 O   0  0  0  0  0  0  0  0  0  0  0  0
   19.5600  -54.3120   34.1700 C   0  0  0  0  0  2  0  0  0  0  0  0
   19.9350  -54.3460   35.6260 C   0  0  0  0  0  2  0  0  0  0  0  0
   19.0520  -53.4920   36.4530 C   0  0  0  0  0  0  0  0  0  0  0  0
   17.9250  -54.0250   37.0790 C   0  0  0  0  0  3  0  0  0  0  0  0
   17.0980  -53.2440   37.8500 C   0  0  0  0  0  0  0  0  0  0  0  0
   15.6820  -53.9640   38.6220 Cl  0  0  0  0  0  0  0  0  0  0  0  0
   17.3360  -51.9000   38.0450 C   0  0  0  0  0  3  0  0  0  0  0  0
   18.4480  -51.3680   37.4280 C   0  0  0  0  0  3  0  0  0  0  0  0
   19.2860  -52.1460   36.6510 C   0  0  0  0  0  3  0  0  0  0  0  0
   15.0590  -58.8270   36.0430 C   0  0  0  0  0  0  0  0  0  0  0  0
   13.7270  -58.5730   35.9310 N   0  0  0  0  0  0  0  0  0  0  0  0
   13.2370  -58.3310   37.1450 C   0  0  0  0  0  3  0  0  0  0  0  0
   12.9910  -58.5700   34.6940 C   0  0  0  0  0  1  0  0  0  0  0  0
   14.2250  -58.4240   38.0370 N   0  0  0  0  0  0  0  0  0  0  0  0
   15.3600  -58.7320   37.3690 C   0  0  0  0  0  3  0  0  0  0  0  0
  1  2  1  0  0  0  0
  1 12  1  0  0  0  0
  2  9  1  1  0  0  0
  3  7  1  1  0  0  0
  3  2  1  0  0  0  0
  4  5  1  0  0  0  0
  4  3  1  0  0  0  0
  5  1  1  0  0  0  0
  6  5  2  0  0  0  0
  7  8  1  0  0  0  0
  8 10  1  0  0  0  0
  8  9  1  0  0  0  0
 10 21  1  0  0  0  0
 11 10  2  0  0  0  0
 12 13  1  0  0  0  0
 13 14  1  0  0  0  0
 14 20  2  0  0  0  0
 14 15  1  0  0  0  0
 15 16  2  0  0  0  0
 16 18  1  0  0  0  0
 16 17  1  0  0  0  0
 19 18  2  0  0  0  0
 20 19  1  0  0  0  0
 21 26  2  0  0  0  0
 22 21  1  0  0  0  0
 22 23  1  0  0  0  0
 23 25  2  0  0  0  0
 24 22  1  0  0  0  0
 26 25  1  0  0  0  0
M  END
>  <Pose>
1

>  <Score>
-8.950

$$$$
