MODEL 1
REMARK VINA RESULT:    -9.925      0.000      0.000
REMARK INTER + INTRA:         -11.769
REMARK INTER:                 -11.085
REMARK INTRA:                  -0.684
REMARK UNBOUND:                -0.684
REMARK  2 active torsions:
REMARK  status: ('A' for Active; 'I' for Inactive)
REMARK    1  A    between atoms: C_3  and  C_13 
REMARK    2  A    between atoms: C_5  and  N_8 
REMARK       I    between atoms: C_13  and  N_15 
ROOT
ATOM      1  C   UNK d   1      18.392 -57.717  33.827  0.00  0.00     0.255 C 
ATOM      2  O   UNK d   1      19.165 -58.467  34.478  0.00  0.00    -0.267 OA
ATOM      3  N   UNK d   1      17.083 -58.120  33.450  0.00  0.00    -0.348 N 
ATOM      4  C   UNK d   1      16.625 -59.439  33.830  0.00  0.00     0.129 C 
ATOM      5  C   UNK d   1      15.112 -59.370  33.922  0.00  0.00     0.061 C 
ATOM      6  C   UNK d   1      14.637 -58.032  34.444  0.00  0.00     0.119 C 
ATOM      7  N   UNK d   1      13.220 -58.154  34.701  0.00  0.00    -0.324 N 
ATOM      8  C   UNK d   1      13.047 -58.667  36.013  0.00  0.00     0.325 C 
ATOM      9  O   UNK d   1      12.021 -59.238  36.502  0.00  0.00    -0.247 OA
ATOM     10  N   UNK d   1      14.276 -58.412  36.699  0.00  0.00    -0.272 N 
ATOM     11  C   UNK d   1      15.172 -57.753  35.802  0.00  0.00     0.256 C 
ATOM     12  O   UNK d   1      16.189 -57.088  36.135  0.00  0.00    -0.270 OA
ATOM     13  C   UNK d   1      14.611 -58.748  38.084  0.00  0.00     0.164 C 
ATOM     14  C   UNK d   1      14.958 -56.909  33.504  0.00  0.00     0.061 C 
ATOM     15  C   UNK d   1      16.166 -57.290  32.703  0.00  0.00     0.129 C 
ATOM     16  H   UNK d   1      12.475 -57.903  34.024  0.00  0.00     0.165 HD
ENDROOT
BRANCH   1  17
ATOM     17  C   UNK d   1      18.922 -56.396  33.476  0.00  0.00     0.056 A 
ATOM     18  C   UNK d   1      19.385 -56.145  32.203  0.00  0.00     0.050 A 
ATOM     19 Cl   UNK d   1      19.327 -57.447  31.007  0.00  0.00    -0.083 Cl
ATOM     20  C   UNK d   1      19.889 -54.912  31.844  0.00  0.00     0.027 A 
ATOM     21  C   UNK d   1      19.912 -53.935  32.811  0.00  0.00     0.033 A 
ATOM     22  C   UNK d   1      19.456 -54.142  34.103  0.00  0.00     0.059 A 
ATOM     23  C   UNK d   1      18.962 -55.390  34.417  0.00  0.00     0.050 A 
BRANCH  22  24
ATOM     24  N   UNK d   1      19.507 -53.085  35.060  0.00  0.00    -0.245 N 
ATOM     25  N   UNK d   1      20.236 -51.996  35.037  0.00  0.00    -0.180 NA
ATOM     26  C   UNK d   1      19.979 -51.249  36.150  0.00  0.00     0.140 A 
ATOM     27  C   UNK d   1      19.038 -51.916  36.903  0.00  0.00     0.040 A 
ATOM     28  C   UNK d   1      18.761 -53.079  36.178  0.00  0.00     0.120 A 
ENDBRANCH  22  24
ENDBRANCH   1  17
TORSDOF 2
ENDMDL
