MODEL 1
REMARK VINA RESULT:   -10.014      0.000      0.000
REMARK INTER + INTRA:         -13.450
REMARK INTER:                 -12.941
REMARK INTRA:                  -0.508
REMARK UNBOUND:                -0.508
REMARK  5 active torsions:
REMARK  status: ('A' for Active; 'I' for Inactive)
REMARK    1  A    between atoms: C_5  and  C_8 
REMARK    2  A    between atoms: N_9  and  C_24 
REMARK    3  A    between atoms: C_15  and  C_17 
REMARK    4  A    between atoms: C_24  and  C_25 
REMARK    5  A    between atoms: C_25  and  N_26 
ROOT
ATOM      1  C   UNK d   1      16.181 -58.119  35.560  0.00  0.00     0.161 C 
ATOM      2  N   UNK d   1      14.790 -58.458  35.206  0.00  0.00    -0.331 N 
ATOM      3  C   UNK d   1      14.395 -57.630  34.120  0.00  0.00     0.295 C 
ATOM      4  O   UNK d   1      13.245 -57.351  33.772  0.00  0.00    -0.264 OA
ATOM      5  C   UNK d   1      15.627 -57.150  33.464  0.00  0.00     0.250 C 
ATOM      6  O   UNK d   1      15.727 -56.381  32.455  0.00  0.00    -0.282 OA
ATOM      7  C   UNK d   1      16.724 -57.738  34.215  0.00  0.00     0.062 C 
ATOM      8  C   UNK d   1      17.946 -57.857  33.760  0.00  0.00     0.130 C 
ATOM      9  O   UNK d   1      18.908 -58.400  34.608  0.00  0.00    -0.190 OA
ENDROOT
BRANCH   2  10
ATOM     10  C   UNK d   1      14.065 -59.485  35.908  0.00  0.00     0.155 C 
BRANCH  10  11
ATOM     11  C   UNK d   1      12.595 -59.311  35.972  0.00  0.00     0.255 C 
BRANCH  11  12
ATOM     12  N   UNK d   1      11.991 -59.041  37.224  0.00  0.00    -0.066 N 
ATOM     13  C   UNK d   1      12.809 -59.398  38.363  0.00  0.00     0.261 C 
ATOM     14  C   UNK d   1      12.131 -60.344  39.325  0.00  0.00     0.195 C 
ATOM     15  O   UNK d   1      10.860 -59.981  39.688  0.00  0.00    -0.388 OA
ATOM     16  C   UNK d   1      10.062 -59.613  38.622  0.00  0.00     0.195 C 
ATOM     17  C   UNK d   1      10.787 -59.890  37.340  0.00  0.00     0.261 C 
ATOM     18  H   UNK d   1      11.622 -58.080  37.307  0.00  0.00     0.280 HD
ENDBRANCH  11  12
ENDBRANCH  10  11
ENDBRANCH   2  10
BRANCH   1  19
ATOM     19  C   UNK d   1      16.190 -57.015  36.512  0.00  0.00    -0.030 A 
ATOM     20  C   UNK d   1      15.442 -57.005  37.645  0.00  0.00     0.011 A 
ATOM     21  C   UNK d   1      15.454 -55.961  38.557  0.00  0.00     0.024 A 
ATOM     22  C   UNK d   1      16.249 -54.879  38.322  0.00  0.00     0.034 A 
ATOM     23 Cl   UNK d   1      16.312 -53.534  39.427  0.00  0.00    -0.084 Cl
ATOM     24  C   UNK d   1      17.032 -54.857  37.165  0.00  0.00     0.024 A 
ATOM     25  C   UNK d   1      17.003 -55.906  36.274  0.00  0.00     0.011 A 
ENDBRANCH   1  19
BRANCH   8  26
ATOM     26  C   UNK d   1      18.406 -57.474  32.430  0.00  0.00     0.001 A 
ATOM     27  C   UNK d   1      19.006 -56.225  32.324  0.00  0.00     0.016 A 
ATOM     28  C   UNK d   1      19.484 -55.810  31.113  0.00  0.00     0.024 A 
ATOM     29  C   UNK d   1      19.381 -56.608  29.990  0.00  0.00     0.034 A 
ATOM     30  C   UNK d   1      18.786 -57.847  30.100  0.00  0.00     0.024 A 
ATOM     31 Cl   UNK d   1      20.001 -56.039  28.475  0.00  0.00    -0.084 Cl
ATOM     32  C   UNK d   1      18.308 -58.255  31.329  0.00  0.00     0.016 A 
ENDBRANCH   8  26
TORSDOF 5
ENDMDL
