MODEL 1
REMARK VINA RESULT:    -7.895      0.000      0.000
REMARK INTER + INTRA:         -12.446
REMARK INTER:                 -10.664
REMARK INTRA:                  -1.783
REMARK UNBOUND:                -1.783
REMARK  6 active torsions:
REMARK  status: ('A' for Active; 'I' for Inactive)
REMARK    1  A    between atoms: C_10  and  C_27 
REMARK    2  A    between atoms: N_15  and  C_18 
REMARK    3  A    between atoms: C_18  and  C_19 
REMARK    4  A    between atoms: C_20  and  O_25 
REMARK    5  A    between atoms: C_27  and  C_28 
REMARK    6  A    between atoms: C_28  and  C_29 
REMARK       I    between atoms: C_29  and  N_31 
ROOT
ATOM      1 Cl   UNK d   1      18.496 -51.676  37.088  0.00  0.00    -0.084 Cl
ATOM      2  C   UNK d   1      17.718 -53.248  36.848  0.00  0.00     0.042 A 
ATOM      3  C   UNK d   1      17.200 -53.930  37.922  0.00  0.00    -0.013 A 
ATOM      4  C   UNK d   1      16.588 -55.163  37.736  0.00  0.00     0.051 A 
ATOM      5  C   UNK d   1      16.464 -55.762  36.512  0.00  0.00     0.018 A 
ATOM      6  C   UNK d   1      17.001 -55.042  35.433  0.00  0.00     0.014 A 
ATOM      7  C   UNK d   1      17.610 -53.818  35.606  0.00  0.00     0.025 A 
ATOM      8  C   UNK d   1      15.782 -57.037  36.663  0.00  0.00     0.279 A 
ATOM      9  N   UNK d   1      14.528 -56.965  35.918  0.00  0.00     0.113 N 
ATOM     10  C   UNK d   1      14.807 -57.732  34.735  0.00  0.00     0.237 C 
ATOM     11  C   UNK d   1      15.532 -58.931  35.303  0.00  0.00     0.128 C 
ATOM     12  C   UNK d   1      16.531 -58.240  36.206  0.00  0.00     0.147 C 
ATOM     13  C   UNK d   1      17.693 -58.025  35.367  0.00  0.00     0.235 C 
ATOM     14  O   UNK d   1      18.650 -57.253  35.597  0.00  0.00    -0.272 OA
ATOM     15  N   UNK d   1      17.588 -58.841  34.209  0.00  0.00    -0.283 N 
ATOM     16  C   UNK d   1      16.376 -59.596  34.279  0.00  0.00     0.234 C 
ATOM     17  O   UNK d   1      16.029 -60.617  33.639  0.00  0.00    -0.272 OA
ATOM     18  C   UNK d   1      15.494 -57.150  38.112  0.00  0.00     0.267 A 
ATOM     19  O   UNK d   1      14.904 -58.095  38.715  0.00  0.00    -0.270 OA
ATOM     20  N   UNK d   1      16.004 -55.992  38.733  0.00  0.00    -0.323 N 
ATOM     21  C   UNK d   1      17.311 -53.320  39.276  0.00  0.00     0.052 C 
ATOM     22  H   UNK d   1      14.282 -55.968  35.741  0.00  0.00     0.318 HD
ATOM     23  H   UNK d   1      15.950 -55.790  39.768  0.00  0.00     0.169 HD
ENDROOT
BRANCH  10  24
ATOM     24  C   UNK d   1      13.535 -58.125  34.017  0.00  0.00     0.045 C 
BRANCH  24  25
ATOM     25  C   UNK d   1      12.678 -58.867  35.022  0.00  0.00     0.105 C 
BRANCH  25  26
ATOM     26  C   UNK d   1      12.301 -60.216  34.533  0.00  0.00     0.215 C 
ATOM     27  O   UNK d   1      11.312 -60.809  35.050  0.00  0.00    -0.274 OA
ATOM     28  N   UNK d   1      13.087 -60.775  33.490  0.00  0.00    -0.370 N 
ATOM     29  H   UNK d   1      13.442 -60.143  32.752  0.00  0.00     0.159 HD
ATOM     30  H   UNK d   1      13.264 -61.811  33.528  0.00  0.00     0.159 HD
ENDBRANCH  25  26
ENDBRANCH  24  25
ENDBRANCH  10  24
BRANCH  15  31
ATOM     31  C   UNK d   1      18.507 -58.959  33.093  0.00  0.00     0.176 C 
BRANCH  31  32
ATOM     32  C   UNK d   1      18.411 -57.814  32.170  0.00  0.00    -0.006 A 
ATOM     33  C   UNK d   1      17.599 -57.944  31.063  0.00  0.00     0.076 A 
ATOM     34  C   UNK d   1      17.514 -56.862  30.198  0.00  0.00     0.037 A 
ATOM     35  C   UNK d   1      18.206 -55.706  30.426  0.00  0.00     0.003 A 
ATOM     36  C   UNK d   1      19.004 -55.615  31.542  0.00  0.00     0.001 A 
ATOM     37  C   UNK d   1      19.132 -56.654  32.438  0.00  0.00     0.011 A 
BRANCH  33  38
ATOM     38  O   UNK d   1      16.911 -59.120  30.853  0.00  0.00    -0.355 OA
ATOM     39  C   UNK d   1      16.962 -59.877  29.685  0.00  0.00     0.210 C 
ENDBRANCH  33  38
ENDBRANCH  31  32
ENDBRANCH  15  31
TORSDOF 6
ENDMDL
