MODEL 1
REMARK VINA RESULT:    -9.642      0.000      0.000
REMARK INTER + INTRA:         -12.059
REMARK INTER:                 -11.334
REMARK INTRA:                  -0.726
REMARK UNBOUND:                -0.726
REMARK  3 active torsions:
REMARK  status: ('A' for Active; 'I' for Inactive)
REMARK    1  A    between atoms: C_4  and  C_8 
REMARK    2  A    between atoms: N_9  and  C_23 
REMARK    3  A    between atoms: C_15  and  C_17 
ROOT
ATOM      1  C   UNK d   1      15.821 -58.385  35.467  0.00  0.00     0.185 C 
ATOM      2  N   UNK d   1      14.521 -58.557  34.884  0.00  0.00    -0.128 N 
ATOM      3  C   UNK d   1      14.332 -57.650  33.803  0.00  0.00     0.314 C 
ATOM      4  O   UNK d   1      13.240 -57.331  33.249  0.00  0.00    -0.263 OA
ATOM      5  C   UNK d   1      15.661 -57.126  33.422  0.00  0.00     0.251 C 
ATOM      6  O   UNK d   1      15.873 -56.299  32.507  0.00  0.00    -0.282 OA
ATOM      7  C   UNK d   1      16.596 -57.777  34.331  0.00  0.00     0.063 C 
ATOM      8  C   UNK d   1      17.902 -57.774  34.165  0.00  0.00     0.130 C 
ATOM      9  O   UNK d   1      18.674 -58.405  35.161  0.00  0.00    -0.190 OA
ENDROOT
BRANCH   1  10
ATOM     10  C   UNK d   1      15.829 -57.514  36.669  0.00  0.00    -0.028 A 
ATOM     11  C   UNK d   1      16.452 -56.272  36.666  0.00  0.00     0.033 A 
ATOM     12  C   UNK d   1      16.482 -55.434  37.755  0.00  0.00     0.034 A 
ATOM     13 Cl   UNK d   1      17.274 -53.875  37.713  0.00  0.00    -0.084 Cl
ATOM     14  C   UNK d   1      15.858 -55.857  38.908  0.00  0.00     0.024 A 
ATOM     15  C   UNK d   1      15.226 -57.082  38.960  0.00  0.00     0.002 A 
ATOM     16  C   UNK d   1      15.212 -57.901  37.854  0.00  0.00     0.010 A 
ENDBRANCH   1  10
BRANCH   8  17
ATOM     17  C   UNK d   1      18.587 -57.173  33.029  0.00  0.00     0.001 A 
ATOM     18  C   UNK d   1      18.960 -55.823  33.082  0.00  0.00     0.014 A 
ATOM     19  C   UNK d   1      19.634 -55.235  32.035  0.00  0.00     0.001 A 
ATOM     20  C   UNK d   1      19.976 -55.932  30.895  0.00  0.00     0.000 A 
ATOM     21  C   UNK d   1      19.620 -57.259  30.823  0.00  0.00     0.001 A 
ATOM     22  C   UNK d   1      18.936 -57.853  31.885  0.00  0.00     0.014 A 
ENDBRANCH   8  17
BRANCH   2  23
ATOM     23  C   UNK d   1      13.550 -59.488  35.312  0.00  0.00     0.710 A 
ATOM     24  N   UNK d   1      12.509 -58.978  36.023  0.00  0.00    -0.200 N 
ATOM     25  C   UNK d   1      11.527 -59.753  36.482  0.00  0.00     0.107 A 
ATOM     26  H   UNK d   1      12.454 -57.943  36.228  0.00  0.00     0.183 HD
ATOM     27  C   UNK d   1      11.587 -61.101  36.216  0.00  0.00     0.037 A 
ATOM     28  C   UNK d   1      12.651 -61.596  35.493  0.00  0.00     0.138 A 
ATOM     29  N   UNK d   1      13.639 -60.808  35.034  0.00  0.00    -0.077 NA
ENDBRANCH   2  23
TORSDOF 3
ENDMDL
