/Users/jonathanwahrer/Desktop/Msc/3_Semester/Drug_Design_Praktikum/waehrer_HTS_screening/HTS_experiment/out/docking_results/vina_output/6s1j/1631_docked.pdbqt
 OpenBabel03222222153D

 29 32  0  0  1  0  0  0  0  0999 V2000
   15.8210  -58.3850   35.4670 C   0  0  1  0  0  3  0  0  0  0  0  0
   14.5210  -58.5570   34.8840 N   0  0  0  0  0  0  0  0  0  0  0  0
   14.3320  -57.6500   33.8030 C   0  0  0  0  0  0  0  0  0  0  0  0
   13.2400  -57.3310   33.2490 O   0  0  0  0  0  0  0  0  0  0  0  0
   15.6610  -57.1260   33.4220 C   0  0  0  0  0  0  0  0  0  0  0  0
   15.8730  -56.2990   32.5070 O   0  0  0  0  0  0  0  0  0  0  0  0
   16.5960  -57.7770   34.3310 C   0  0  0  0  0  0  0  0  0  0  0  0
   17.9020  -57.7740   34.1650 C   0  0  0  0  0  0  0  0  0  0  0  0
   18.6740  -58.4050   35.1610 O   0  0  0  0  0  1  0  0  0  0  0  0
   15.8290  -57.5140   36.6690 C   0  0  0  0  0  0  0  0  0  0  0  0
   16.4520  -56.2720   36.6660 C   0  0  0  0  0  3  0  0  0  0  0  0
   16.4820  -55.4340   37.7550 C   0  0  0  0  0  0  0  0  0  0  0  0
   17.2740  -53.8750   37.7130 Cl  0  0  0  0  0  0  0  0  0  0  0  0
   15.8580  -55.8570   38.9080 C   0  0  0  0  0  3  0  0  0  0  0  0
   15.2260  -57.0820   38.9600 C   0  0  0  0  0  3  0  0  0  0  0  0
   15.2120  -57.9010   37.8540 C   0  0  0  0  0  3  0  0  0  0  0  0
   18.5870  -57.1730   33.0290 C   0  0  0  0  0  0  0  0  0  0  0  0
   18.9600  -55.8230   33.0820 C   0  0  0  0  0  3  0  0  0  0  0  0
   19.6340  -55.2350   32.0350 C   0  0  0  0  0  3  0  0  0  0  0  0
   19.9760  -55.9320   30.8950 C   0  0  0  0  0  3  0  0  0  0  0  0
   19.6200  -57.2590   30.8230 C   0  0  0  0  0  3  0  0  0  0  0  0
   18.9360  -57.8530   31.8850 C   0  0  0  0  0  3  0  0  0  0  0  0
   13.5500  -59.4880   35.3120 C   0  0  1  0  0  3  0  0  0  0  0  0
   12.5090  -58.9780   36.0230 N   0  0  0  0  0  0  0  0  0  0  0  0
   11.5270  -59.7530   36.4820 C   0  0  0  0  0  3  0  0  0  0  0  0
   12.4540  -57.9430   36.2280 H   0  0  0  0  0  0  0  0  0  0  0  0
   11.5870  -61.1010   36.2160 C   0  0  0  0  0  3  0  0  0  0  0  0
   12.6510  -61.5960   35.4930 C   0  0  0  0  0  3  0  0  0  0  0  0
   13.6390  -60.8080   35.0340 N   0  0  0  0  0  0  0  0  0  0  0  0
  1 10  1  1  0  0  0
  2  1  1  0  0  0  0
  3  2  1  0  0  0  0
  4  3  2  0  0  0  0
  5  3  1  0  0  0  0
  5  7  1  0  0  0  0
  6  5  2  0  0  0  0
  7  1  1  0  0  0  0
  8  7  2  0  0  0  0
  8  9  1  0  0  0  0
 10 16  1  0  0  0  0
 11 10  2  0  0  0  0
 11 12  1  0  0  0  0
 12 14  2  0  0  0  0
 13 12  1  0  0  0  0
 14 15  1  0  0  0  0
 16 15  2  0  0  0  0
 17 18  1  0  0  0  0
 17  8  1  0  0  0  0
 19 18  2  0  0  0  0
 20 19  1  0  0  0  0
 21 20  2  0  0  0  0
 21 22  1  0  0  0  0
 22 17  2  0  0  0  0
 23  2  1  6  0  0  0
 23 24  1  0  0  0  0
 24 26  1  0  0  0  0
 24 25  1  0  0  0  0
 27 25  2  0  0  0  0
 28 27  1  0  0  0  0
 29 23  1  0  0  0  0
 29 28  2  0  0  0  0
M  END
>  <Pose>
1

>  <Score>
-9.642

$$$$
