MODEL 1
REMARK VINA RESULT:    -7.756      0.000      0.000
REMARK INTER + INTRA:         -12.016
REMARK INTER:                 -10.703
REMARK INTRA:                  -1.313
REMARK UNBOUND:                -1.313
REMARK  7 active torsions:
REMARK  status: ('A' for Active; 'I' for Inactive)
REMARK    1  A    between atoms: S_1  and  C_4 
REMARK    2  A    between atoms: S_1  and  C_26 
REMARK    3  A    between atoms: C_5  and  N_25 
REMARK    4  A    between atoms: C_7  and  N_10 
REMARK    5  A    between atoms: C_13  and  N_16 
REMARK    6  A    between atoms: C_13  and  C_22 
REMARK       I    between atoms: C_22  and  N_24 
REMARK    7  A    between atoms: C_27  and  O_33 
ROOT
ATOM      1  C   UNK d   1      15.123 -58.859  33.907  0.00  0.00     0.128 A 
ATOM      2  C   UNK d   1      13.768 -58.626  34.100  0.00  0.00     0.164 A 
ATOM      3  N   UNK d   1      12.942 -59.665  34.399  0.00  0.00    -0.044 NA
ATOM      4  C   UNK d   1      13.377 -60.926  34.520  0.00  0.00     0.726 A 
ATOM      5  N   UNK d   1      14.688 -61.158  34.334  0.00  0.00    -0.073 NA
ATOM      6  C   UNK d   1      15.544 -60.165  34.037  0.00  0.00     0.164 A 
ENDROOT
BRANCH   4   7
ATOM      7  N   UNK d   1      12.511 -62.012  34.838  0.00  0.00    -0.214 N 
ATOM      8  C   UNK d   1      13.012 -63.308  35.225  0.00  0.00     0.144 C 
ATOM      9  C   UNK d   1      12.477 -63.814  36.536  0.00  0.00     0.072 C 
ATOM     10  C   UNK d   1      11.130 -63.200  36.882  0.00  0.00     0.241 C 
ATOM     11  C   UNK d   1      10.458 -63.013  35.511  0.00  0.00     0.072 C 
ATOM     12  C   UNK d   1      11.068 -61.862  34.783  0.00  0.00     0.144 C 
BRANCH  10  13
ATOM     13  N   UNK d   1      11.189 -61.976  37.527  0.00  0.00     0.107 N 
ATOM     14  C   UNK d   1      12.179 -61.683  38.488  0.00  0.00     0.274 C 
ATOM     15  C   UNK d   1      12.478 -60.177  38.388  0.00  0.00     0.030 C 
ATOM     16  C   UNK d   1      11.274 -59.505  37.786  0.00  0.00     0.003 C 
ATOM     17  C   UNK d   1       9.976 -60.078  38.297  0.00  0.00     0.030 C 
ATOM     18  C   UNK d   1       9.927 -61.583  38.092  0.00  0.00     0.274 C 
ENDBRANCH  10  13
BRANCH  10  19
ATOM     19  C   UNK d   1      10.331 -64.230  37.583  0.00  0.00     0.255 C 
ATOM     20  O   UNK d   1       9.173 -64.558  37.156  0.00  0.00    -0.271 OA
ATOM     21  N   UNK d   1      10.771 -64.900  38.730  0.00  0.00    -0.368 N 
ATOM     22  H   UNK d   1      10.350 -64.627  39.659  0.00  0.00     0.159 HD
ATOM     23  H   UNK d   1      11.480 -65.659  38.773  0.00  0.00     0.159 HD
ENDBRANCH  10  19
ENDBRANCH   4   7
BRANCH   2  24
ATOM     24  N   UNK d   1      13.316 -57.300  33.973  0.00  0.00    -0.382 N 
ATOM     25  H   UNK d   1      13.067 -56.860  33.063  0.00  0.00     0.157 HD
ATOM     26  H   UNK d   1      13.219 -56.715  34.828  0.00  0.00     0.157 HD
ENDBRANCH   2  24
BRANCH   1  27
ATOM     27  S   UNK d   1      16.226 -57.555  33.522  0.00  0.00     0.214 S 
ATOM     28  O   UNK d   1      17.514 -58.065  32.963  0.00  0.00    -0.217 OA
ATOM     29  O   UNK d   1      15.520 -56.635  32.558  0.00  0.00    -0.217 OA
BRANCH  27  30
ATOM     30  C   UNK d   1      16.522 -56.644  35.011  0.00  0.00     0.099 A 
ATOM     31  C   UNK d   1      17.322 -55.520  34.985  0.00  0.00     0.090 A 
ATOM     32  C   UNK d   1      17.525 -54.841  36.168  0.00  0.00     0.040 A 
ATOM     33  C   UNK d   1      16.948 -55.265  37.361  0.00  0.00     0.026 A 
ATOM     34  C   UNK d   1      16.156 -56.393  37.345  0.00  0.00     0.035 A 
ATOM     35  C   UNK d   1      15.934 -57.093  36.177  0.00  0.00     0.050 A 
ATOM     36 Cl   UNK d   1      15.414 -56.947  38.853  0.00  0.00    -0.084 Cl
BRANCH  31  37
ATOM     37  O   UNK d   1      17.872 -55.134  33.794  0.00  0.00    -0.354 OA
ATOM     38  C   UNK d   1      19.209 -54.764  33.599  0.00  0.00     0.210 C 
ENDBRANCH  31  37
ENDBRANCH  27  30
ENDBRANCH   1  27
TORSDOF 7
ENDMDL
