MODEL 1
REMARK VINA RESULT:    -8.147      0.000      0.000
REMARK INTER + INTRA:          -8.147
REMARK INTER:                  -8.147
REMARK INTRA:                   0.000
REMARK UNBOUND:                 0.000
REMARK  0 active torsions:
REMARK  status: ('A' for Active; 'I' for Inactive)
ROOT
ATOM      1 Cl   UNK d   1      16.691 -55.069  38.355  0.00  0.00    -0.084 Cl
ATOM      2  C   UNK d   1      16.966 -55.366  36.636  0.00  0.00     0.034 A 
ATOM      3  C   UNK d   1      16.599 -56.547  36.039  0.00  0.00     0.034 A 
ATOM      4  C   UNK d   1      16.828 -56.758  34.671  0.00  0.00    -0.006 A 
ATOM      5  C   UNK d   1      17.419 -55.805  33.891  0.00  0.00     0.044 A 
ATOM      6  C   UNK d   1      17.798 -54.592  34.495  0.00  0.00     0.032 A 
ATOM      7  C   UNK d   1      17.559 -54.418  35.836  0.00  0.00     0.026 A 
ATOM      8  N   UNK d   1      17.554 -56.222  32.543  0.00  0.00    -0.321 N 
ATOM      9  C   UNK d   1      17.011 -57.529  32.472  0.00  0.00     0.242 A 
ATOM     10  O   UNK d   1      16.964 -58.216  31.409  0.00  0.00    -0.271 OA
ATOM     11  C   UNK d   1      16.526 -57.929  33.811  0.00  0.00     0.111 A 
ATOM     12  C   UNK d   1      17.332 -59.142  34.223  0.00  0.00     0.132 C 
ATOM     13  C   UNK d   1      16.838 -60.256  33.344  0.00  0.00     0.225 C 
ATOM     14  O   UNK d   1      17.591 -60.956  32.642  0.00  0.00    -0.273 OA
ATOM     15  N   UNK d   1      15.424 -60.483  33.348  0.00  0.00    -0.311 N 
ATOM     16  C   UNK d   1      14.542 -59.397  33.600  0.00  0.00     0.133 A 
ATOM     17  N   UNK d   1      13.187 -59.302  33.676  0.00  0.00    -0.262 N 
ATOM     18  N   UNK d   1      12.878 -58.056  33.943  0.00  0.00    -0.185 NA
ATOM     19  C   UNK d   1      13.980 -57.299  34.053  0.00  0.00     0.151 A 
ATOM     20  C   UNK d   1      15.069 -58.151  33.832  0.00  0.00     0.030 A 
ATOM     21  C   UNK d   1      18.144 -55.440  31.452  0.00  0.00     0.159 C 
ATOM     22  H   UNK d   1      15.030 -61.433  33.170  0.00  0.00     0.170 HD
ATOM     23  H   UNK d   1      12.550 -60.120  33.535  0.00  0.00     0.191 HD
ENDROOT
TORSDOF 0
ENDMDL
