MODEL 1
REMARK VINA RESULT:    -9.788      0.000      0.000
REMARK INTER + INTRA:         -11.396
REMARK INTER:                 -10.933
REMARK INTRA:                  -0.463
REMARK UNBOUND:                -0.463
REMARK  2 active torsions:
REMARK  status: ('A' for Active; 'I' for Inactive)
REMARK    1  A    between atoms: N_15  and  C_20 
REMARK       I    between atoms: C_21  and  N_23 
REMARK    2  A    between atoms: N_26  and  C_29 
ROOT
ATOM      1 Cl   UNK d   1      18.090 -51.267  37.713  0.00  0.00    -0.084 Cl
ATOM      2  C   UNK d   1      18.218 -52.789  36.822  0.00  0.00     0.035 A 
ATOM      3  C   UNK d   1      17.373 -53.838  37.116  0.00  0.00     0.043 A 
ATOM      4  C   UNK d   1      17.473 -55.004  36.429  0.00  0.00     0.060 A 
ATOM      5  C   UNK d   1      18.433 -55.152  35.418  0.00  0.00     0.045 A 
ATOM      6  C   UNK d   1      19.264 -54.093  35.142  0.00  0.00     0.032 A 
ATOM      7  C   UNK d   1      19.175 -52.893  35.835  0.00  0.00     0.026 A 
ATOM      8  N   UNK d   1      18.543 -56.372  34.692  0.00  0.00    -0.363 N 
ATOM      9  C   UNK d   1      17.370 -57.224  34.566  0.00  0.00     0.108 C 
ATOM     10  N   UNK d   1      16.811 -57.346  35.893  0.00  0.00    -0.330 N 
ATOM     11  C   UNK d   1      16.627 -56.171  36.665  0.00  0.00     0.255 C 
ATOM     12  O   UNK d   1      15.755 -56.071  37.567  0.00  0.00    -0.268 OA
ATOM     13  C   UNK d   1      17.807 -58.560  34.065  0.00  0.00     0.074 C 
ATOM     14  C   UNK d   1      17.882 -58.640  32.558  0.00  0.00     0.130 C 
ATOM     15  N   UNK d   1      18.586 -57.510  31.988  0.00  0.00    -0.344 N 
ATOM     16  C   UNK d   1      18.134 -56.141  32.139  0.00  0.00     0.220 C 
ATOM     17  O   UNK d   1      18.924 -55.269  31.711  0.00  0.00    -0.273 OA
ATOM     18  C   UNK d   1      16.888 -55.613  32.719  0.00  0.00     0.107 C 
ATOM     19  C   UNK d   1      16.301 -56.567  33.717  0.00  0.00     0.063 C 
ATOM     20  H   UNK d   1      19.473 -56.596  34.281  0.00  0.00     0.162 HD
ATOM     21  H   UNK d   1      16.535 -58.255  36.313  0.00  0.00     0.165 HD
ENDROOT
BRANCH  15  22
ATOM     22  C   UNK d   1      19.779 -57.685  31.265  0.00  0.00     0.212 C 
ATOM     23  C   UNK d   1      19.789 -57.956  29.846  0.00  0.00     0.171 C 
ATOM     24  O   UNK d   1      21.037 -58.049  29.384  0.00  0.00    -0.175 OA
ATOM     25  N   UNK d   1      18.759 -58.127  28.948  0.00  0.00    -0.359 N 
ATOM     26  C   UNK d   1      19.095 -58.396  27.526  0.00  0.00     0.144 C 
ATOM     27  C   UNK d   1      17.375 -58.098  29.217  0.00  0.00     0.144 C 
ATOM     28  C   UNK d   1      18.155 -59.547  27.134  0.00  0.00     0.137 C 
ATOM     29  N   UNK d   1      17.701 -60.261  28.279  0.00  0.00    -0.406 N 
ATOM     30  C   UNK d   1      16.816 -59.548  29.151  0.00  0.00     0.137 C 
BRANCH  29  31
ATOM     31  C   UNK d   1      17.361 -61.628  28.072  0.00  0.00     0.071 C 
ATOM     32  C   UNK d   1      17.026 -62.374  29.348  0.00  0.00     0.031 C 
ATOM     33  C   UNK d   1      16.250 -61.829  27.077  0.00  0.00     0.031 C 
ENDBRANCH  29  31
ENDBRANCH  15  22
TORSDOF 2
ENDMDL
