MODEL 1
REMARK VINA RESULT:    -9.118      0.000      0.000
REMARK INTER + INTRA:         -12.062
REMARK INTER:                 -11.783
REMARK INTRA:                  -0.279
REMARK UNBOUND:                -0.279
REMARK  5 active torsions:
REMARK  status: ('A' for Active; 'I' for Inactive)
REMARK    1  A    between atoms: C_5  and  N_8 
REMARK    2  A    between atoms: N_15  and  C_18 
REMARK    3  A    between atoms: C_18  and  C_19 
REMARK       I    between atoms: C_19  and  N_21 
REMARK       I    between atoms: N_24  and  C_27 
REMARK    4  A    between atoms: C_27  and  O_29 
REMARK    5  A    between atoms: O_29  and  C_30 
ROOT
ATOM      1  N   UNK d   1      16.428 -54.216  38.206  0.00  0.00    -0.215 N 
ATOM      2  N   UNK d   1      15.609 -53.878  39.165  0.00  0.00    -0.177 NA
ATOM      3  C   UNK d   1      14.770 -54.864  39.497  0.00  0.00     0.160 A 
ATOM      4  C   UNK d   1      15.075 -55.941  38.676  0.00  0.00     0.099 A 
ATOM      5  C   UNK d   1      16.123 -55.492  37.878  0.00  0.00     0.169 A 
ATOM      6  N   UNK d   1      16.600 -56.362  36.984  0.00  0.00    -0.223 NA
ATOM      7  C   UNK d   1      16.091 -57.608  36.864  0.00  0.00     0.215 A 
ATOM      8  N   UNK d   1      15.081 -58.069  37.618  0.00  0.00    -0.299 N 
ATOM      9  C   UNK d   1      14.569 -57.212  38.539  0.00  0.00     0.264 A 
ATOM     10  O   UNK d   1      13.621 -57.599  39.268  0.00  0.00    -0.267 OA
ENDROOT
BRANCH   8  11
ATOM     11  C   UNK d   1      14.535 -59.424  37.502  0.00  0.00     0.236 C 
BRANCH  11  12
ATOM     12  C   UNK d   1      13.145 -59.421  37.011  0.00  0.00     0.238 C 
ATOM     13  O   UNK d   1      12.917 -58.595  36.059  0.00  0.00    -0.272 OA
ATOM     14  N   UNK d   1      12.091 -60.208  37.468  0.00  0.00    -0.348 N 
ATOM     15  C   UNK d   1      10.734 -60.051  36.923  0.00  0.00     0.145 C 
ATOM     16  C   UNK d   1      12.250 -61.239  38.470  0.00  0.00     0.145 C 
ATOM     17  C   UNK d   1       9.908 -59.543  38.112  0.00  0.00     0.148 C 
ATOM     18  N   UNK d   1      10.087 -60.404  39.251  0.00  0.00    -0.325 N 
ATOM     19  C   UNK d   1      10.913 -61.584  39.073  0.00  0.00     0.148 C 
ATOM     20  C   UNK d   1       9.504 -60.103  40.501  0.00  0.00     0.362 C 
ATOM     21  O   UNK d   1       8.833 -59.009  40.593  0.00  0.00    -0.238 OA
BRANCH  20  22
ATOM     22  O   UNK d   1       9.580 -60.871  41.641  0.00  0.00    -0.304 OA
BRANCH  22  23
ATOM     23  C   UNK d   1      10.212 -60.364  42.832  0.00  0.00     0.176 C 
ATOM     24  C   UNK d   1      11.702 -60.341  42.542  0.00  0.00     0.034 C 
ENDBRANCH  22  23
ENDBRANCH  20  22
ENDBRANCH  11  12
ENDBRANCH   8  11
BRANCH   1  25
ATOM     25  C   UNK d   1      17.451 -53.421  37.627  0.00  0.00     0.060 A 
ATOM     26  C   UNK d   1      18.502 -53.901  36.889  0.00  0.00     0.033 A 
ATOM     27  C   UNK d   1      19.462 -53.038  36.398  0.00  0.00     0.026 A 
ATOM     28  C   UNK d   1      19.431 -51.679  36.610  0.00  0.00     0.034 A 
ATOM     29 Cl   UNK d   1      20.627 -50.576  36.009  0.00  0.00    -0.084 Cl
ATOM     30  C   UNK d   1      18.378 -51.175  37.352  0.00  0.00     0.026 A 
ATOM     31  C   UNK d   1      17.430 -52.052  37.833  0.00  0.00     0.033 A 
ENDBRANCH   1  25
TORSDOF 5
ENDMDL
