/Users/jonathanwahrer/Desktop/Msc/3_Semester/Drug_Design_Praktikum/waehrer_HTS_screening/HTS_experiment/out/docking_results/vina_output/6s1j/1666_docked.pdbqt
 OpenBabel03222222173D

 30 34  0  0  1  0  0  0  0  0999 V2000
   14.8320  -59.5150   33.4820 N   0  0  0  0  0  0  0  0  0  0  0  0
   14.7630  -60.2550   34.7140 C   0  0  0  0  0  2  0  0  0  0  0  0
   14.1530  -59.4310   35.8250 C   0  0  0  0  0  2  0  0  0  0  0  0
   14.8920  -58.1520   35.9730 N   0  0  0  0  0  0  0  0  0  0  0  0
   14.7020  -57.3940   34.7440 C   0  0  0  0  0  2  0  0  0  0  0  0
   14.1890  -58.2420   33.5930 C   0  0  0  0  0  2  0  0  0  0  0  0
   14.2090  -57.4860   37.0610 C   0  0  0  0  0  2  0  0  0  0  0  0
   15.0280  -56.9230   38.1450 C   0  0  0  0  0  2  0  0  0  0  0  0
   15.7690  -55.7290   37.9250 N   0  0  0  0  0  0  0  0  0  0  0  0
   16.8520  -55.4560   37.0420 C   0  0  0  0  0  0  0  0  0  0  0  0
   17.6490  -56.2980   36.6030 O   0  0  0  0  0  0  0  0  0  0  0  0
   16.8670  -54.0050   36.7380 C   0  0  1  0  0  3  0  0  0  0  0  0
   16.2660  -53.4410   38.0460 C   0  0  2  0  0  3  0  0  0  0  0  0
   18.2530  -53.4740   36.8280 C   0  0  2  0  0  3  0  0  0  0  0  0
   17.4240  -52.9950   38.8570 C   0  0  1  0  0  3  0  0  0  0  0  0
   15.4460  -54.5010   38.6140 C   0  0  0  0  0  0  0  0  0  0  0  0
   18.5670  -53.8520   38.2860 C   0  0  0  0  0  2  0  0  0  0  0  0
   17.8760  -51.6780   38.2630 C   0  0  0  0  0  2  0  0  0  0  0  0
   18.1360  -51.9860   36.9920 C   0  0  0  0  0  2  0  0  0  0  0  0
   14.6130  -54.3410   39.5410 O   0  0  0  0  0  0  0  0  0  0  0  0
   16.2800  -59.5900   32.6360 S   0  0  0  0  0  0  0  0  0  0  0  0
   17.0750  -60.7750   33.1710 O   0  0  0  0  0  0  0  0  0  0  0  0
   15.9560  -59.9910   31.1960 O   0  0  0  0  0  0  0  0  0  0  0  0
   17.2300  -58.1610   32.5650 C   0  0  0  0  0  0  0  0  0  0  0  0
   17.1260  -57.2990   31.5010 C   0  0  0  0  0  3  0  0  0  0  0  0
   17.8990  -56.1520   31.4830 C   0  0  0  0  0  3  0  0  0  0  0  0
   18.7820  -55.8350   32.4990 C   0  0  0  0  0  0  0  0  0  0  0  0
   18.8840  -56.7040   33.5650 C   0  0  0  0  0  3  0  0  0  0  0  0
   19.8510  -54.2570   32.4750 Br  0  0  0  0  0  0  0  0  0  0  0  0
   18.1060  -57.8560   33.5830 C   0  0  0  0  0  3  0  0  0  0  0  0
  1  6  1  0  0  0  0
  1  2  1  0  0  0  0
  2  3  1  0  0  0  0
  3  4  1  0  0  0  0
  4  7  1  0  0  0  0
  5  4  1  0  0  0  0
  6  5  1  0  0  0  0
  7  8  1  0  0  0  0
  9  8  1  0  0  0  0
  9 16  1  0  0  0  0
 10  9  1  0  0  0  0
 11 10  2  0  0  0  0
 12 14  1  0  0  0  0
 12 10  1  1  0  0  0
 12 13  1  0  0  0  0
 13 16  1  1  0  0  0
 13 15  1  0  0  0  0
 14 19  1  1  0  0  0
 14 17  1  0  0  0  0
 15 18  1  6  0  0  0
 16 20  2  0  0  0  0
 17 15  1  0  0  0  0
 19 18  1  0  0  0  0
 21 22  2  0  0  0  0
 21  1  1  0  0  0  0
 23 21  2  0  0  0  0
 24 21  1  0  0  0  0
 24 30  1  0  0  0  0
 25 24  2  0  0  0  0
 26 25  1  0  0  0  0
 26 27  2  0  0  0  0
 27 28  1  0  0  0  0
 28 30  2  0  0  0  0
 29 27  1  0  0  0  0
M  END
>  <Pose>
1

>  <Score>
-9.647

$$$$
