MODEL 1
REMARK VINA RESULT:    -8.410      0.000      0.000
REMARK INTER + INTRA:         -13.644
REMARK INTER:                 -11.852
REMARK INTRA:                  -1.792
REMARK UNBOUND:                -1.792
REMARK  7 active torsions:
REMARK  status: ('A' for Active; 'I' for Inactive)
REMARK    1  A    between atoms: C_5  and  C_8 
REMARK    2  A    between atoms: C_8  and  C_10 
REMARK    3  A    between atoms: N_12  and  C_17 
REMARK    4  A    between atoms: C_17  and  C_18 
REMARK    5  A    between atoms: C_18  and  N_19 
REMARK    6  A    between atoms: C_27  and  O_32 
REMARK    7  A    between atoms: O_32  and  C_33 
ROOT
ATOM      1  C   UNK d   1      19.595 -55.310  33.185  0.00  0.00     0.167 C 
ATOM      2  C   UNK d   1      18.601 -55.594  34.279  0.00  0.00     0.140 C 
ATOM      3  N   UNK d   1      18.215 -54.364  34.811  0.00  0.00    -0.334 N 
ATOM      4  C   UNK d   1      19.500 -53.625  34.828  0.00  0.00     0.291 C 
ATOM      5  O   UNK d   1      19.868 -52.760  35.668  0.00  0.00    -0.264 OA
ATOM      6  C   UNK d   1      20.264 -54.087  33.680  0.00  0.00     0.230 C 
ATOM      7  O   UNK d   1      21.299 -53.532  33.215  0.00  0.00    -0.286 OA
ATOM      8  C   UNK d   1      17.761 -56.749  34.083  0.00  0.00    -0.031 A 
ATOM      9  C   UNK d   1      16.439 -56.724  33.766  0.00  0.00     0.049 A 
ATOM     10  C   UNK d   1      15.722 -57.895  33.579  0.00  0.00     0.105 A 
ATOM     11  C   UNK d   1      16.377 -59.128  33.722  0.00  0.00     0.140 A 
ATOM     12  C   UNK d   1      17.705 -59.151  34.041  0.00  0.00     0.043 A 
ATOM     13  C   UNK d   1      18.407 -58.001  34.223  0.00  0.00     0.012 A 
ATOM     14  O   UNK d   1      15.710 -60.324  33.548  0.00  0.00    -0.189 OA
ENDROOT
BRANCH   1  15
ATOM     15  C   UNK d   1      19.011 -55.096  31.861  0.00  0.00     0.173 C 
ATOM     16  O   UNK d   1      18.274 -54.070  31.657  0.00  0.00    -0.291 OA
BRANCH  15  17
ATOM     17  C   UNK d   1      19.185 -55.959  30.701  0.00  0.00     0.011 A 
ATOM     18  C   UNK d   1      20.230 -55.794  29.821  0.00  0.00     0.016 A 
ATOM     19  C   UNK d   1      20.305 -56.642  28.720  0.00  0.00     0.020 A 
ATOM     20  C   UNK d   1      19.396 -57.635  28.464  0.00  0.00     0.011 A 
ATOM     21 Br   UNK d   1      19.565 -58.773  26.918  0.00  0.00    -0.051 Br
ATOM     22  C   UNK d   1      18.347 -57.805  29.344  0.00  0.00     0.020 A 
ATOM     23  C   UNK d   1      18.272 -56.967  30.432  0.00  0.00     0.016 A 
ENDBRANCH  15  17
ENDBRANCH   1  15
BRANCH   3  24
ATOM     24  C   UNK d   1      17.102 -53.698  35.412  0.00  0.00     0.154 C 
BRANCH  24  25
ATOM     25  C   UNK d   1      17.180 -53.417  36.864  0.00  0.00     0.255 C 
BRANCH  25  26
ATOM     26  N   UNK d   1      17.444 -54.416  37.810  0.00  0.00    -0.066 N 
ATOM     27  C   UNK d   1      17.737 -53.878  39.145  0.00  0.00     0.261 C 
ATOM     28  C   UNK d   1      16.580 -53.146  39.739  0.00  0.00     0.195 C 
ATOM     29  O   UNK d   1      15.464 -53.325  38.954  0.00  0.00    -0.388 OA
ATOM     30  C   UNK d   1      15.253 -54.707  38.819  0.00  0.00     0.195 C 
ATOM     31  C   UNK d   1      16.290 -55.328  37.907  0.00  0.00     0.261 C 
ATOM     32  H   UNK d   1      18.237 -55.000  37.556  0.00  0.00     0.280 HD
ENDBRANCH  25  26
ENDBRANCH  24  25
ENDBRANCH   3  24
BRANCH  10  33
ATOM     33  O   UNK d   1      14.403 -57.903  33.259  0.00  0.00    -0.349 OA
BRANCH  33  34
ATOM     34  C   UNK d   1      13.375 -57.669  34.167  0.00  0.00     0.171 C 
ATOM     35  C   UNK d   1      12.808 -58.934  34.786  0.00  0.00     0.034 C 
ENDBRANCH  33  34
ENDBRANCH  10  33
TORSDOF 7
ENDMDL
