MODEL 1
REMARK VINA RESULT:    -9.549      0.000      0.000
REMARK INTER + INTRA:         -12.032
REMARK INTER:                 -11.223
REMARK INTRA:                  -0.809
REMARK UNBOUND:                -0.809
REMARK  3 active torsions:
REMARK  status: ('A' for Active; 'I' for Inactive)
REMARK    1  A    between atoms: C_9  and  C_11 
REMARK       I    between atoms: C_11  and  N_13 
REMARK    2  A    between atoms: N_13  and  C_14 
REMARK    3  A    between atoms: C_14  and  C_15 
ROOT
ATOM      1  C   UNK d   1      17.821 -55.204  34.923  0.00  0.00     0.254 C 
ATOM      2  O   UNK d   1      18.697 -56.089  34.876  0.00  0.00    -0.268 OA
ATOM      3  N   UNK d   1      16.631 -55.381  34.172  0.00  0.00    -0.350 N 
ATOM      4  H   UNK d   1      15.896 -54.655  34.202  0.00  0.00     0.163 HD
ENDROOT
BRANCH   1   5
ATOM      5  C   UNK d   1      18.060 -54.026  35.748  0.00  0.00     0.063 A 
ATOM      6  C   UNK d   1      19.066 -53.153  35.370  0.00  0.00     0.098 A 
ATOM      7  C   UNK d   1      19.311 -52.037  36.132  0.00  0.00     0.111 A 
ATOM      8  N   UNK d   1      19.942 -53.145  34.330  0.00  0.00    -0.257 N 
ATOM      9  C   UNK d   1      18.553 -51.807  37.256  0.00  0.00     0.055 A 
ATOM     10  N   UNK d   1      20.332 -51.380  35.531  0.00  0.00    -0.130 NA
ATOM     11  C   UNK d   1      17.551 -52.673  37.639  0.00  0.00     0.014 A 
ATOM     12 Br   UNK d   1      16.514 -52.327  39.207  0.00  0.00    -0.051 Br
ATOM     13  C   UNK d   1      17.300 -53.788  36.884  0.00  0.00     0.038 A 
ATOM     14  N   UNK d   1      20.676 -52.076  34.462  0.00  0.00    -0.067 NA
ATOM     15  H   UNK d   1      19.942 -53.902  33.615  0.00  0.00     0.191 HD
ENDBRANCH   1   5
BRANCH   3  16
ATOM     16  C   UNK d   1      16.421 -56.556  33.363  0.00  0.00     0.203 C 
BRANCH  16  17
ATOM     17  C   UNK d   1      15.195 -57.275  33.857  0.00  0.00     0.148 A 
ATOM     18  N   UNK d   1      15.099 -58.058  34.944  0.00  0.00    -0.319 N 
ATOM     19  C   UNK d   1      13.843 -58.535  35.077  0.00  0.00     0.130 A 
ATOM     20  C   UNK d   1      16.052 -58.464  35.952  0.00  0.00     0.132 C 
ATOM     21  N   UNK d   1      13.148 -58.036  34.048  0.00  0.00    -0.135 NA
ATOM     22  C   UNK d   1      13.594 -59.422  36.247  0.00  0.00     0.081 C 
ATOM     23  N   UNK d   1      13.965 -57.272  33.307  0.00  0.00    -0.133 NA
ATOM     24  C   UNK d   1      14.071 -58.609  37.459  0.00  0.00     0.009 C 
ATOM     25  C   UNK d   1      15.478 -58.130  37.312  0.00  0.00     0.021 C 
ENDBRANCH  16  17
ENDBRANCH   3  16
TORSDOF 3
ENDMDL
