/Users/jonathanwahrer/Desktop/Msc/3_Semester/Drug_Design_Praktikum/waehrer_HTS_screening/HTS_experiment/out/docking_results/vina_output/6s1j/1687_docked.pdbqt
 OpenBabel03222222183D

 27 30  0  0  0  0  0  0  0  0999 V2000
   13.9410  -57.2430   37.8980 N   0  0  0  0  0  0  0  0  0  0  0  0
   13.3570  -58.3100   38.4890 C   0  0  0  0  0  2  0  0  0  0  0  0
   12.9720  -59.4230   37.7750 C   0  0  0  0  0  0  0  0  0  0  0  0
   13.1970  -59.4670   36.3350 C   0  0  0  0  0  0  0  0  0  0  0  0
   12.7290  -60.6520   35.9180 N   0  0  0  0  0  2  0  0  0  0  0  0
   12.2370  -61.3500   36.9540 N   0  0  0  0  0  0  0  0  0  0  0  0
   12.3750  -60.6280   38.0770 C   0  0  0  0  0  0  0  0  0  0  0  0
   12.0070  -61.0150   39.2090 O   0  0  0  0  0  0  0  0  0  0  0  0
   13.7970  -58.3570   35.7630 C   0  0  0  0  0  0  0  0  0  0  0  0
   14.1360  -57.3090   36.5730 C   0  0  0  0  0  3  0  0  0  0  0  0
   11.8210  -62.3080   36.8390 H   0  0  0  0  0  0  0  0  0  0  0  0
   14.3360  -56.0790   38.6850 C   0  0  0  0  0  2  0  0  0  0  0  0
   15.8170  -55.8530   38.4710 C   0  0  0  0  0  2  0  0  0  0  0  0
   16.1620  -54.4500   38.5430 N   0  0  0  0  0  0  0  0  0  0  0  0
   15.5430  -53.5240   39.3050 C   0  0  0  0  0  3  0  0  0  0  0  0
   16.1190  -52.3210   39.1310 N   0  0  0  0  0  0  0  0  0  0  0  0
   17.1380  -52.4450   38.2380 C   0  0  0  0  0  0  0  0  0  0  0  0
   18.0430  -51.5480   37.7070 C   0  0  0  0  0  3  0  0  0  0  0  0
   17.1340  -53.7820   37.8950 C   0  0  0  0  0  0  0  0  0  0  0  0
   18.9840  -51.9870   36.7990 C   0  0  0  0  0  0  0  0  0  0  0  0
   20.1710  -50.8990   36.0800 Cl  0  0  0  0  0  0  0  0  0  0  0  0
   18.9700  -53.3280   36.4640 C   0  0  0  0  0  3  0  0  0  0  0  0
   18.0680  -54.2300   36.9910 C   0  0  0  0  0  3  0  0  0  0  0  0
   14.0380  -58.3640   34.3250 C   0  0  0  0  0  0  0  0  0  0  0  0
   13.2970  -57.6760   33.5780 O   0  0  0  0  0  0  0  0  0  0  0  0
   15.0480  -59.1020   33.7670 O   0  0  0  0  0  0  0  0  0  0  0  0
   16.4080  -58.7220   33.9030 C   0  0  0  0  0  1  0  0  0  0  0  0
  1  2  1  0  0  0  0
  1 12  1  0  0  0  0
  3  7  1  0  0  0  0
  3  2  1  0  0  0  0
  4  3  2  0  0  0  0
  5  4  1  0  0  0  0
  5  6  1  0  0  0  0
  6  7  1  0  0  0  0
  7  8  2  0  0  0  0
  9  4  1  0  0  0  0
  9 10  2  0  0  0  0
 10  1  1  0  0  0  0
 11  6  1  0  0  0  0
 13 14  1  0  0  0  0
 13 12  1  0  0  0  0
 14 15  1  0  0  0  0
 16 15  2  0  0  0  0
 17 16  1  0  0  0  0
 18 17  2  0  0  0  0
 19 17  1  0  0  0  0
 19 14  1  0  0  0  0
 20 18  1  0  0  0  0
 21 20  1  0  0  0  0
 22 20  2  0  0  0  0
 22 23  1  0  0  0  0
 23 19  2  0  0  0  0
 24  9  1  0  0  0  0
 25 24  2  0  0  0  0
 26 27  1  0  0  0  0
 26 24  1  0  0  0  0
M  END
>  <Pose>
1

>  <Score>
-9.111

$$$$
