/Users/jonathanwahrer/Desktop/Msc/3_Semester/Drug_Design_Praktikum/waehrer_HTS_screening/HTS_experiment/out/docking_results/vina_output/6s1j/1690_docked.pdbqt
 OpenBabel03222222183D

 34 37  0  0  1  0  0  0  0  0999 V2000
   14.5170  -56.9330   37.4410 C   0  0  0  0  0  0  0  0  0  0  0  0
   13.4170  -56.3230   37.4430 O   0  0  0  0  0  0  0  0  0  0  0  0
   14.8620  -57.8190   36.3770 N   0  0  0  0  0  0  0  0  0  0  0  0
   16.1050  -58.5540   36.3090 C   0  0  0  0  0  2  0  0  0  0  0  0
   16.5980  -58.6370   34.8540 C   0  0  2  0  0  0  0  0  0  0  0  0
   16.0320  -57.4520   34.1500 C   0  0  2  0  0  3  0  0  0  0  0  0
   14.5460  -57.6500   33.9580 C   0  0  0  0  0  2  0  0  0  0  0  0
   13.9220  -58.0050   35.2920 C   0  0  0  0  0  2  0  0  0  0  0  0
   16.1650  -59.9670   34.3240 C   0  0  0  0  0  1  0  0  0  0  0  0
   15.4790  -56.7510   38.5420 C   0  0  0  0  0  2  0  0  0  0  0  0
   15.4550  -55.3210   38.9980 C   0  0  0  0  0  2  0  0  0  0  0  0
   16.5150  -54.5710   38.2820 C   0  0  0  0  0  0  0  0  0  0  0  0
   16.7210  -53.2300   38.3880 N   0  0  0  0  0  0  0  0  0  0  0  0
   17.7440  -52.8480   37.6110 C   0  0  0  0  0  0  0  0  0  0  0  0
   16.1360  -52.6050   39.0070 H   0  0  0  0  0  0  0  0  0  0  0  0
   18.3410  -51.6350   37.3640 C   0  0  0  0  0  3  0  0  0  0  0  0
   18.2020  -53.9850   36.9930 C   0  0  0  0  0  0  0  0  0  0  0  0
   19.4100  -51.5090   36.4940 C   0  0  0  0  0  0  0  0  0  0  0  0
   20.1780  -49.9710   36.1710 Cl  0  0  0  0  0  0  0  0  0  0  0  0
   19.8670  -52.6580   35.8750 C   0  0  0  0  0  3  0  0  0  0  0  0
   19.2650  -53.8860   36.1240 C   0  0  0  0  0  3  0  0  0  0  0  0
   17.4350  -54.9900   37.4260 N   0  0  0  0  0  0  0  0  0  0  0  0
   17.9980  -58.5910   34.9390 O   0  0  0  0  0  0  0  0  0  0  0  0
   18.3490  -59.5330   35.0400 H   0  0  0  0  0  0  0  0  0  0  0  0
   16.7060  -57.0460   32.9670 N   0  0  0  0  0  0  0  0  0  0  0  0
   16.9330  -57.8580   31.9240 C   0  0  0  0  0  3  0  0  0  0  0  0
   17.5960  -57.4250   30.7820 C   0  0  0  0  0  0  0  0  0  0  0  0
   18.0360  -56.1240   30.7180 C   0  0  0  0  0  0  0  0  0  0  0  0
   17.8200  -58.3810   29.6440 C   0  0  0  0  0  1  0  0  0  0  0  0
   18.6430  -55.7230   29.6760 O   0  0  0  0  0  0  0  0  0  0  0  0
   17.8090  -55.3150   31.7630 N   0  0  0  0  0  0  0  0  0  0  0  0
   17.1610  -55.7810   32.8440 C   0  0  0  0  0  0  0  0  0  0  0  0
   18.1360  -54.3270   31.7260 H   0  0  0  0  0  0  0  0  0  0  0  0
   16.9460  -55.0050   33.8410 O   0  0  0  0  0  0  0  0  0  0  0  0
  1  2  2  0  0  0  0
  1 10  1  0  0  0  0
  3  1  1  0  0  0  0
  4  3  1  0  0  0  0
  5  9  1  6  0  0  0
  5 23  1  0  0  0  0
  5  4  1  0  0  0  0
  6 25  1  6  0  0  0
  6  5  1  0  0  0  0
  7  6  1  0  0  0  0
  7  8  1  0  0  0  0
  8  3  1  0  0  0  0
 10 11  1  0  0  0  0
 12 13  1  0  0  0  0
 12 11  1  0  0  0  0
 13 15  1  0  0  0  0
 14 13  1  0  0  0  0
 16 14  1  0  0  0  0
 17 22  1  0  0  0  0
 17 14  2  0  0  0  0
 18 16  2  0  0  0  0
 19 18  1  0  0  0  0
 20 21  2  0  0  0  0
 20 18  1  0  0  0  0
 21 17  1  0  0  0  0
 22 12  2  0  0  0  0
 23 24  1  0  0  0  0
 26 25  1  0  0  0  0
 27 26  2  0  0  0  0
 28 27  1  0  0  0  0
 28 31  1  0  0  0  0
 29 27  1  0  0  0  0
 30 28  2  0  0  0  0
 31 32  1  0  0  0  0
 32 25  1  0  0  0  0
 32 34  2  0  0  0  0
 33 31  1  0  0  0  0
M  END
>  <Pose>
1

>  <Score>
-9.936

$$$$
