/Users/jonathanwahrer/Desktop/Msc/3_Semester/Drug_Design_Praktikum/waehrer_HTS_screening/HTS_experiment/out/docking_results/vina_output/6s1j/1691_docked.pdbqt
 OpenBabel03222222193D

 35 39  0  0  1  0  0  0  0  0999 V2000
   15.1610  -57.9670   37.3780 C   0  0  0  0  0  0  0  0  0  0  0  0
   16.2210  -58.3650   37.8970 O   0  0  0  0  0  0  0  0  0  0  0  0
   14.8730  -58.2740   36.0380 N   0  0  0  0  0  0  0  0  0  0  0  0
   15.6050  -59.0030   35.0510 C   0  0  0  0  0  2  0  0  0  0  0  0
   15.4190  -58.1860   33.7500 C   0  0  1  0  0  3  0  0  0  0  0  0
   14.0300  -57.6950   33.9590 C   0  0  2  0  0  3  0  0  0  0  0  0
   13.6410  -57.8720   35.3870 C   0  0  0  0  0  2  0  0  0  0  0  0
   14.2170  -57.1730   38.1800 C   0  0  0  0  0  2  0  0  0  0  0  0
   14.9150  -56.5780   39.3830 C   0  0  0  0  0  2  0  0  0  0  0  0
   15.6960  -55.3740   38.9460 C   0  0  0  0  0  0  0  0  0  0  0  0
   16.8250  -55.4190   38.2180 N   0  0  0  0  0  0  0  0  0  0  0  0
   17.2940  -54.1820   37.9820 C   0  0  0  0  0  0  0  0  0  0  0  0
   17.3040  -56.2890   37.8620 H   0  0  0  0  0  0  0  0  0  0  0  0
   18.4050  -53.6940   37.2930 C   0  0  0  0  0  3  0  0  0  0  0  0
   16.4110  -53.3200   38.5960 C   0  0  0  0  0  0  0  0  0  0  0  0
   18.6280  -52.3390   37.2240 C   0  0  0  0  0  0  0  0  0  0  0  0
   20.0130  -51.6720   36.3680 Cl  0  0  0  0  0  0  0  0  0  0  0  0
   17.7500  -51.4870   37.8340 C   0  0  0  0  0  3  0  0  0  0  0  0
   16.6350  -51.9610   38.5250 C   0  0  0  0  0  3  0  0  0  0  0  0
   15.4560  -54.0810   39.1690 N   0  0  0  0  0  0  0  0  0  0  0  0
   16.4150  -57.1540   33.7110 N   0  0  0  0  0  0  0  0  0  0  0  0
   17.4110  -56.9970   32.8230 C   0  0  0  0  0  0  0  0  0  0  0  0
   18.1460  -55.8450   33.1700 C   0  0  0  0  0  0  0  0  0  0  0  0
   17.7800  -57.7130   31.7430 N   0  0  0  0  0  0  0  0  0  0  0  0
   17.5570  -55.3470   34.2700 N   0  0  0  0  0  0  0  0  0  0  0  0
   19.2320  -55.4400   32.4280 C   0  0  0  0  0  0  0  0  0  0  0  0
   16.5230  -56.1150   34.6060 C   0  0  0  0  0  3  0  0  0  0  0  0
   19.8690  -54.4060   32.7630 O   0  0  0  0  0  0  0  0  0  0  0  0
   19.5660  -56.1770   31.3630 N   0  0  0  0  0  0  0  0  0  0  0  0
   18.8650  -57.2660   31.0410 C   0  0  0  0  0  0  0  0  0  0  0  0
   20.7170  -55.7720   30.5520 C   0  0  0  0  0  1  0  0  0  0  0  0
   19.1940  -57.9490   30.0360 O   0  0  0  0  0  0  0  0  0  0  0  0
   17.0760  -58.8900   31.3410 C   0  0  0  0  0  1  0  0  0  0  0  0
   13.0830  -58.3740   33.1930 O   0  0  0  0  0  0  0  0  0  0  0  0
   12.8530  -59.2590   33.5940 H   0  0  0  0  0  0  0  0  0  0  0  0
  1  2  2  0  0  0  0
  1  8  1  0  0  0  0
  3  1  1  0  0  0  0
  4  3  1  0  0  0  0
  5 21  1  1  0  0  0
  5  6  1  0  0  0  0
  5  4  1  0  0  0  0
  6 34  1  6  0  0  0
  6  7  1  0  0  0  0
  7  3  1  0  0  0  0
  8  9  1  0  0  0  0
 10 20  2  0  0  0  0
 10  9  1  0  0  0  0
 11 10  1  0  0  0  0
 12 11  1  0  0  0  0
 12 15  1  0  0  0  0
 13 11  1  0  0  0  0
 14 12  2  0  0  0  0
 15 20  1  0  0  0  0
 16 14  1  0  0  0  0
 16 18  2  0  0  0  0
 17 16  1  0  0  0  0
 18 19  1  0  0  0  0
 19 15  2  0  0  0  0
 21 27  1  0  0  0  0
 22 23  2  0  0  0  0
 22 21  1  0  0  0  0
 23 25  1  0  0  0  0
 24 22  1  0  0  0  0
 25 27  2  0  0  0  0
 26 28  2  0  0  0  0
 26 23  1  0  0  0  0
 29 26  1  0  0  0  0
 30 29  1  0  0  0  0
 30 24  1  0  0  0  0
 31 29  1  0  0  0  0
 32 30  2  0  0  0  0
 33 24  1  0  0  0  0
 34 35  1  0  0  0  0
M  END
>  <Pose>
1

>  <Score>
-10.964

$$$$
