MODEL 1
REMARK VINA RESULT:    -8.842      0.000      0.000
REMARK INTER + INTRA:          -8.842
REMARK INTER:                  -8.842
REMARK INTRA:                   0.000
REMARK UNBOUND:                 0.000
REMARK  0 active torsions:
REMARK  status: ('A' for Active; 'I' for Inactive)
ROOT
ATOM      1  F   UNK d   1      20.372 -52.429  33.966  0.00  0.00    -0.202 F 
ATOM      2  C   UNK d   1      19.549 -53.448  34.385  0.00  0.00     0.165 A 
ATOM      3  C   UNK d   1      19.047 -54.340  33.429  0.00  0.00     0.086 A 
ATOM      4  C   UNK d   1      18.230 -55.356  33.824  0.00  0.00     0.030 A 
ATOM      5  C   UNK d   1      17.895 -55.508  35.177  0.00  0.00     0.016 A 
ATOM      6  C   UNK d   1      18.400 -54.623  36.089  0.00  0.00     0.028 A 
ATOM      7  C   UNK d   1      19.225 -53.590  35.712  0.00  0.00     0.074 A 
ATOM      8 Cl   UNK d   1      19.876 -52.449  36.897  0.00  0.00    -0.081 Cl
ATOM      9  C   UNK d   1      17.843 -56.146  32.626  0.00  0.00     0.222 A 
ATOM     10  N   UNK d   1      16.421 -56.139  32.494  0.00  0.00    -0.336 N 
ATOM     11  C   UNK d   1      15.623 -57.095  33.156  0.00  0.00     0.141 A 
ATOM     12  N   UNK d   1      14.285 -56.926  33.325  0.00  0.00    -0.243 NA
ATOM     13  C   UNK d   1      13.485 -57.800  33.944  0.00  0.00     0.119 A 
ATOM     14  C   UNK d   1      14.031 -58.971  34.458  0.00  0.00     0.020 A 
ATOM     15  C   UNK d   1      15.369 -59.218  34.331  0.00  0.00     0.022 A 
ATOM     16  C   UNK d   1      16.134 -58.274  33.681  0.00  0.00     0.077 A 
ATOM     17  C   UNK d   1      17.578 -58.444  33.493  0.00  0.00     0.258 C 
ATOM     18  O   UNK d   1      18.093 -59.515  33.962  0.00  0.00    -0.267 OA
ATOM     19  N   UNK d   1      18.366 -57.486  32.831  0.00  0.00    -0.318 N 
ATOM     20  C   UNK d   1      18.520 -55.476  31.510  0.00  0.00     0.277 A 
ATOM     21  O   UNK d   1      18.480 -55.805  30.267  0.00  0.00    -0.268 OA
ATOM     22  N   UNK d   1      19.247 -54.384  32.010  0.00  0.00    -0.320 N 
ATOM     23  H   UNK d   1      15.931 -55.424  31.902  0.00  0.00     0.164 HD
ATOM     24  H   UNK d   1      19.316 -57.782  32.509  0.00  0.00     0.166 HD
ATOM     25  H   UNK d   1      19.847 -53.688  31.492  0.00  0.00     0.169 HD
ENDROOT
TORSDOF 0
ENDMDL
