/Users/jonathanwahrer/Desktop/Msc/3_Semester/Drug_Design_Praktikum/waehrer_HTS_screening/HTS_experiment/out/docking_results/vina_output/6s1j/1706_docked.pdbqt
 OpenBabel03222222193D

 25 28  0  0  1  0  0  0  0  0999 V2000
   20.3720  -52.4290   33.9660 F   0  0  0  0  0  0  0  0  0  0  0  0
   19.5490  -53.4480   34.3850 C   0  0  0  0  0  0  0  0  0  0  0  0
   19.0470  -54.3400   33.4290 C   0  0  0  0  0  0  0  0  0  0  0  0
   18.2300  -55.3560   33.8240 C   0  0  0  0  0  0  0  0  0  0  0  0
   17.8950  -55.5080   35.1770 C   0  0  0  0  0  3  0  0  0  0  0  0
   18.4000  -54.6230   36.0890 C   0  0  0  0  0  3  0  0  0  0  0  0
   19.2250  -53.5900   35.7120 C   0  0  0  0  0  0  0  0  0  0  0  0
   19.8760  -52.4490   36.8970 Cl  0  0  0  0  0  0  0  0  0  0  0  0
   17.8430  -56.1460   32.6260 C   0  0  2  0  0  0  0  0  0  0  0  0
   16.4210  -56.1390   32.4940 N   0  0  0  0  0  0  0  0  0  0  0  0
   15.6230  -57.0950   33.1560 C   0  0  0  0  0  0  0  0  0  0  0  0
   14.2850  -56.9260   33.3250 N   0  0  0  0  0  0  0  0  0  0  0  0
   13.4850  -57.8000   33.9440 C   0  0  0  0  0  3  0  0  0  0  0  0
   14.0310  -58.9710   34.4580 C   0  0  0  0  0  3  0  0  0  0  0  0
   15.3690  -59.2180   34.3310 C   0  0  0  0  0  3  0  0  0  0  0  0
   16.1340  -58.2740   33.6810 C   0  0  0  0  0  0  0  0  0  0  0  0
   17.5780  -58.4440   33.4930 C   0  0  0  0  0  0  0  0  0  0  0  0
   18.0930  -59.5150   33.9620 O   0  0  0  0  0  0  0  0  0  0  0  0
   18.3660  -57.4860   32.8310 N   0  0  0  0  0  0  0  0  0  0  0  0
   18.5200  -55.4760   31.5100 C   0  0  0  0  0  0  0  0  0  0  0  0
   18.4800  -55.8050   30.2670 O   0  0  0  0  0  0  0  0  0  0  0  0
   19.2470  -54.3840   32.0100 N   0  0  0  0  0  0  0  0  0  0  0  0
   15.9310  -55.4240   31.9020 H   0  0  0  0  0  0  0  0  0  0  0  0
   19.3160  -57.7820   32.5090 H   0  0  0  0  0  0  0  0  0  0  0  0
   19.8470  -53.6880   31.4920 H   0  0  0  0  0  0  0  0  0  0  0  0
  1  2  1  0  0  0  0
  2  7  1  0  0  0  0
  3  4  1  0  0  0  0
  3  2  2  0  0  0  0
  4  5  2  0  0  0  0
  5  6  1  0  0  0  0
  7  6  2  0  0  0  0
  7  8  1  0  0  0  0
  9 20  1  6  0  0  0
  9 19  1  0  0  0  0
  9  4  1  0  0  0  0
 10  9  1  0  0  0  0
 10 11  1  0  0  0  0
 11 12  2  0  0  0  0
 11 16  1  0  0  0  0
 12 13  1  0  0  0  0
 13 14  2  0  0  0  0
 15 14  1  0  0  0  0
 16 15  2  0  0  0  0
 17 16  1  0  0  0  0
 17 18  2  0  0  0  0
 19 17  1  0  0  0  0
 20 22  1  0  0  0  0
 21 20  2  0  0  0  0
 22  3  1  0  0  0  0
 23 10  1  0  0  0  0
 24 19  1  0  0  0  0
 25 22  1  0  0  0  0
M  END
>  <Pose>
1

>  <Score>
-8.842

$$$$
