MODEL 1
REMARK VINA RESULT:    -8.628      0.000      0.000
REMARK INTER + INTRA:         -11.605
REMARK INTER:                 -10.645
REMARK INTRA:                  -0.959
REMARK UNBOUND:                -0.959
REMARK  4 active torsions:
REMARK  status: ('A' for Active; 'I' for Inactive)
REMARK    1  A    between atoms: C_9  and  N_11 
REMARK    2  A    between atoms: N_11  and  C_12 
REMARK    3  A    between atoms: C_12  and  C_13 
REMARK       I    between atoms: C_13  and  N_15 
REMARK    4  A    between atoms: N_18  and  C_21 
ROOT
ATOM      1  C   UNK d   1      15.027 -59.123  34.724  0.00  0.00     0.208 C 
ENDROOT
BRANCH   1   2
ATOM      2  N   UNK d   1      15.635 -59.164  36.000  0.00  0.00    -0.365 N 
ATOM      3  H   UNK d   1      16.455 -59.751  36.176  0.00  0.00     0.161 HD
BRANCH   2   4
ATOM      4  C   UNK d   1      15.079 -58.373  37.077  0.00  0.00     0.158 A 
ATOM      5  C   UNK d   1      13.985 -58.894  37.725  0.00  0.00     0.128 A 
ATOM      6  C   UNK d   1      13.418 -58.163  38.765  0.00  0.00     0.184 A 
ATOM      7  N   UNK d   1      13.238 -60.005  37.632  0.00  0.00    -0.345 N 
ATOM      8  N   UNK d   1      13.997 -56.993  39.053  0.00  0.00    -0.196 NA
ATOM      9  N   UNK d   1      12.374 -58.859  39.242  0.00  0.00    -0.222 NA
ATOM     10  C   UNK d   1      15.054 -56.482  38.435  0.00  0.00     0.227 A 
ATOM     11 Cl   UNK d   1      15.728 -54.940  38.894  0.00  0.00    -0.041 Cl
ATOM     12  N   UNK d   1      15.604 -57.191  37.424  0.00  0.00    -0.198 NA
ATOM     13  C   UNK d   1      12.252 -60.004  38.548  0.00  0.00     0.210 A 
ATOM     14  H   UNK d   1      13.445 -60.750  36.916  0.00  0.00     0.167 HD
ENDBRANCH   2   4
ENDBRANCH   1   2
BRANCH   1  15
ATOM     15  C   UNK d   1      15.313 -57.950  33.913  0.00  0.00     0.171 C 
ATOM     16  O   UNK d   1      14.198 -57.245  33.621  0.00  0.00    -0.175 OA
ATOM     17  N   UNK d   1      16.478 -57.449  33.403  0.00  0.00    -0.358 N 
ATOM     18  C   UNK d   1      17.781 -58.020  33.445  0.00  0.00     0.144 C 
ATOM     19  C   UNK d   1      16.373 -56.100  32.726  0.00  0.00     0.144 C 
ATOM     20  C   UNK d   1      18.750 -57.165  34.258  0.00  0.00     0.144 C 
ATOM     21  N   UNK d   1      18.301 -55.812  34.089  0.00  0.00    -0.363 N 
ATOM     22  C   UNK d   1      17.755 -55.444  32.815  0.00  0.00     0.144 C 
BRANCH  21  23
ATOM     23  C   UNK d   1      18.382 -54.852  35.112  0.00  0.00     0.125 A 
ATOM     24  N   UNK d   1      17.307 -54.092  35.473  0.00  0.00    -0.244 NA
ATOM     25  C   UNK d   1      17.316 -53.174  36.423  0.00  0.00     0.119 A 
ATOM     26  C   UNK d   1      18.443 -52.900  37.144  0.00  0.00     0.019 A 
ATOM     27  C   UNK d   1      19.575 -53.637  36.828  0.00  0.00     0.005 A 
ATOM     28  C   UNK d   1      19.542 -54.597  35.828  0.00  0.00     0.050 A 
ENDBRANCH  21  23
ENDBRANCH   1  15
TORSDOF 4
ENDMDL
