/Users/jonathanwahrer/Desktop/Msc/3_Semester/Drug_Design_Praktikum/waehrer_HTS_screening/HTS_experiment/out/docking_results/vina_output/6s1j/1726_docked.pdbqt
 OpenBabel03222222203D

 30 33  0  0  1  0  0  0  0  0999 V2000
   14.5260  -57.4020   36.3810 N   0  0  0  0  0  4  0  0  0  0  0  0
   15.2790  -57.1760   35.1940 C   0  0  0  0  0  2  0  0  0  0  0  0
   14.9660  -58.0930   34.0530 C   0  0  1  0  0  3  0  0  0  0  0  0
   15.4670  -59.4830   34.2230 C   0  0  0  0  0  2  0  0  0  0  0  0
   14.4450  -60.4820   34.3660 N   0  0  0  0  0  0  0  0  0  0  0  0
   13.1890  -60.2370   34.7850 C   0  0  0  0  0  0  0  0  0  0  0  0
   12.2180  -61.1870   34.9220 C   0  0  0  0  0  3  0  0  0  0  0  0
   12.5240  -62.4960   34.6120 C   0  0  0  0  0  3  0  0  0  0  0  0
   13.8040  -62.7550   34.1830 C   0  0  0  0  0  3  0  0  0  0  0  0
   14.7580  -61.7740   34.0580 C   0  0  0  0  0  0  0  0  0  0  0  0
   15.9210  -62.0490   33.6610 O   0  0  0  0  0  0  0  0  0  0  0  0
   12.9190  -58.7850   35.1090 C   0  0  1  0  0  3  0  0  0  0  0  0
   13.6220  -58.4870   36.3740 C   0  0  0  0  0  2  0  0  0  0  0  0
   13.4410  -58.0410   33.9050 C   0  0  0  0  0  2  0  0  0  0  0  0
   13.9640  -56.5170   36.5720 H   0  0  0  0  0  0  0  0  0  0  0  0
   15.4700  -57.4890   37.4780 C   0  0  0  0  0  2  0  0  0  0  0  0
   15.2830  -56.4370   38.5240 C   0  0  1  0  0  3  0  0  0  0  0  0
   16.5850  -55.6390   38.5800 C   0  0  0  0  0  2  0  0  0  0  0  0
   16.6300  -54.8650   37.4170 O   0  0  0  0  0  0  0  0  0  0  0  0
   17.4710  -53.8420   37.1310 C   0  0  0  0  0  0  0  0  0  0  0  0
   18.4140  -53.9750   36.1370 C   0  0  0  0  0  0  0  0  0  0  0  0
   18.5010  -55.6220   35.1850 Br  0  0  0  0  0  0  0  0  0  0  0  0
   19.2970  -52.9470   35.8140 C   0  0  0  0  0  3  0  0  0  0  0  0
   19.2350  -51.7680   36.4960 C   0  0  0  0  0  0  0  0  0  0  0  0
   18.2990  -51.6030   37.4990 C   0  0  0  0  0  3  0  0  0  0  0  0
   20.1870  -50.6680   36.1430 C   0  0  0  0  0  1  0  0  0  0  0  0
   17.4210  -52.6450   37.8100 C   0  0  0  0  0  0  0  0  0  0  0  0
   16.1280  -52.4280   39.1900 Br  0  0  0  0  0  0  0  0  0  0  0  0
   14.2030  -55.6220   38.1880 O   0  0  0  0  0  0  0  0  0  0  0  0
   13.9230  -55.1750   39.0370 H   0  0  0  0  0  0  0  0  0  0  0  0
  1 15  1  0  0  0  0
  1 16  1  0  0  0  0
  2  1  1  0  0  0  0
  3 14  1  1  0  0  0
  3  4  1  0  0  0  0
  3  2  1  0  0  0  0
  4  5  1  0  0  0  0
  5  6  1  0  0  0  0
  6  7  2  0  0  0  0
  6 12  1  0  0  0  0
  8  7  1  0  0  0  0
  9  8  2  0  0  0  0
 10  9  1  0  0  0  0
 10  5  1  0  0  0  0
 11 10  2  0  0  0  0
 12 14  1  6  0  0  0
 12 13  1  0  0  0  0
 13  1  1  0  0  0  0
 17 16  1  6  0  0  0
 17 18  1  0  0  0  0
 19 18  1  0  0  0  0
 20 19  1  0  0  0  0
 20 27  1  0  0  0  0
 21 20  2  0  0  0  0
 22 21  1  0  0  0  0
 23 21  1  0  0  0  0
 23 24  2  0  0  0  0
 24 25  1  0  0  0  0
 25 27  2  0  0  0  0
 26 24  1  0  0  0  0
 27 28  1  0  0  0  0
 29 17  1  0  0  0  0
 29 30  1  0  0  0  0
M  END
>  <Pose>
1

>  <Score>
-8.660

$$$$
