/Users/jonathanwahrer/Desktop/Msc/3_Semester/Drug_Design_Praktikum/waehrer_HTS_screening/HTS_experiment/out/docking_results/vina_output/6s1j/1736_docked.pdbqt
 OpenBabel03222222203D

 35 39  0  0  1  0  0  0  0  0999 V2000
   15.6330  -55.7900   31.8120 Cl  0  0  0  0  0  0  0  0  0  0  0  0
   17.0600  -55.4080   32.7900 C   0  0  0  0  0  0  0  0  0  0  0  0
   16.9390  -55.0940   34.1210 C   0  0  0  0  0  3  0  0  0  0  0  0
   18.0480  -54.8010   34.8690 C   0  0  0  0  0  0  0  0  0  0  0  0
   19.2850  -54.8230   34.2760 C   0  0  0  0  0  0  0  0  0  0  0  0
   19.4390  -55.1390   32.9270 C   0  0  0  0  0  3  0  0  0  0  0  0
   18.3050  -55.4290   32.2010 C   0  0  0  0  0  3  0  0  0  0  0  0
   20.3020  -54.4920   35.2030 N   0  0  0  0  0  0  0  0  0  0  0  0
   19.6560  -54.2500   36.4430 C   0  0  0  0  0  0  0  0  0  0  0  0
   20.2240  -53.9250   37.5080 O   0  0  0  0  0  0  0  0  0  0  0  0
   18.2000  -54.4380   36.2970 C   0  0  1  0  0  0  0  0  0  0  0  0
   17.4520  -53.2560   36.6460 N   0  0  0  0  0  0  0  0  0  0  0  0
   16.2460  -53.6770   37.2880 C   0  0  1  0  0  3  0  0  0  0  0  0
   16.5690  -54.9490   38.0370 C   0  0  2  0  0  3  0  0  0  0  0  0
   17.7260  -55.4870   37.2350 C   0  0  1  0  0  3  0  0  0  0  0  0
   17.2410  -56.7250   36.5770 C   0  0  0  0  0  0  0  0  0  0  0  0
   17.7010  -57.3180   35.5690 O   0  0  0  0  0  0  0  0  0  0  0  0
   16.0920  -57.1500   37.3380 N   0  0  0  0  0  0  0  0  0  0  0  0
   15.5010  -55.9760   37.9330 C   0  0  0  0  0  0  0  0  0  0  0  0
   14.3080  -55.8280   38.3030 O   0  0  0  0  0  0  0  0  0  0  0  0
   21.3510  -54.4250   35.0470 H   0  0  0  0  0  0  0  0  0  0  0  0
   17.2770  -52.6850   35.8130 H   0  0  0  0  0  0  0  0  0  0  0  0
   15.6950  -52.6090   38.2080 C   0  0  1  0  0  3  0  0  0  0  0  0
   15.8350  -53.1480   39.6280 C   0  0  0  0  0  1  0  0  0  0  0  0
   16.5370  -51.5050   38.1230 O   0  0  0  0  0  0  0  0  0  0  0  0
   17.3200  -51.6420   38.7020 H   0  0  0  0  0  0  0  0  0  0  0  0
   15.6030  -58.5040   37.4920 C   0  0  0  0  0  2  0  0  0  0  0  0
   14.4520  -58.7400   36.5700 C   0  0  0  0  0  0  0  0  0  0  0  0
   13.2750  -59.2880   37.0360 C   0  0  0  0  0  0  0  0  0  0  0  0
   12.2220  -59.4960   36.1610 C   0  0  0  0  0  3  0  0  0  0  0  0
   12.3080  -59.1700   34.8220 C   0  0  0  0  0  3  0  0  0  0  0  0
   13.4790  -58.6230   34.3460 C   0  0  0  0  0  3  0  0  0  0  0  0
   14.5180  -58.4200   35.2250 C   0  0  0  0  0  3  0  0  0  0  0  0
   13.1900  -59.6170   38.3920 O   0  0  0  0  0  0  0  0  0  0  0  0
   11.9980  -59.2650   39.1020 C   0  0  0  0  0  1  0  0  0  0  0  0
  1  2  1  0  0  0  0
  2  3  1  0  0  0  0
  3  4  2  0  0  0  0
  5  4  1  0  0  0  0
  5  8  1  0  0  0  0
  6  5  2  0  0  0  0
  7  2  2  0  0  0  0
  7  6  1  0  0  0  0
  8  9  1  0  0  0  0
  9 10  2  0  0  0  0
 11  4  1  6  0  0  0
 11  9  1  0  0  0  0
 11 12  1  0  0  0  0
 11 15  1  0  0  0  0
 12 13  1  0  0  0  0
 13 14  1  0  0  0  0
 13 23  1  1  0  0  0
 14 19  1  6  0  0  0
 15 16  1  6  0  0  0
 15 14  1  0  0  0  0
 16 18  1  0  0  0  0
 17 16  2  0  0  0  0
 18 27  1  0  0  0  0
 18 19  1  0  0  0  0
 19 20  2  0  0  0  0
 21  8  1  0  0  0  0
 22 12  1  0  0  0  0
 23 24  1  1  0  0  0
 25 23  1  0  0  0  0
 25 26  1  0  0  0  0
 28 29  1  0  0  0  0
 28 27  1  0  0  0  0
 29 34  1  0  0  0  0
 30 29  2  0  0  0  0
 31 30  1  0  0  0  0
 32 31  2  0  0  0  0
 32 33  1  0  0  0  0
 33 28  2  0  0  0  0
 34 35  1  0  0  0  0
M  END
>  <Pose>
1

>  <Score>
-7.468

$$$$
