/Users/jonathanwahrer/Desktop/Msc/3_Semester/Drug_Design_Praktikum/waehrer_HTS_screening/HTS_experiment/out/docking_results/vina_output/6s1j/1741_docked.pdbqt
 OpenBabel03222222213D

 28 31  0  0  0  0  0  0  0  0999 V2000
   14.9540  -56.3960   38.0110 C   0  0  0  0  0  0  0  0  0  0  0  0
   13.9060  -55.7220   38.0530 O   0  0  0  0  0  0  0  0  0  0  0  0
   15.0260  -57.5480   37.2150 N   0  0  0  0  0  0  0  0  0  0  0  0
   13.9270  -58.0230   36.4020 C   0  0  0  0  0  2  0  0  0  0  0  0
   14.4700  -58.2180   34.9960 C   0  0  0  0  0  2  0  0  0  0  0  0
   15.7820  -57.7360   34.8740 N   0  0  0  0  0  0  0  0  0  0  0  0
   16.7920  -58.2160   35.7240 C   0  0  0  0  0  2  0  0  0  0  0  0
   16.2410  -58.3730   37.1370 C   0  0  0  0  0  2  0  0  0  0  0  0
   16.1320  -55.9470   38.8300 C   0  0  0  0  0  2  0  0  0  0  0  0
   16.2990  -54.5100   38.7870 N   0  0  0  0  0  0  0  0  0  0  0  0
   17.2760  -53.8500   38.1010 C   0  0  0  0  0  0  0  0  0  0  0  0
   17.1490  -52.4920   38.2760 C   0  0  0  0  0  0  0  0  0  0  0  0
   18.2920  -54.3420   37.3150 C   0  0  0  0  0  3  0  0  0  0  0  0
   18.0220  -51.5880   37.6810 C   0  0  0  0  0  3  0  0  0  0  0  0
   16.0600  -52.2970   39.0980 C   0  0  0  0  0  3  0  0  0  0  0  0
   19.0570  -52.0800   36.8820 C   0  0  0  0  0  0  0  0  0  0  0  0
   20.2780  -50.8600   36.0460 Br  0  0  0  0  0  0  0  0  0  0  0  0
   19.1690  -53.4430   36.7170 C   0  0  0  0  0  3  0  0  0  0  0  0
   15.5730  -53.5570   39.3840 C   0  0  0  0  0  3  0  0  0  0  0  0
   16.0490  -56.6530   34.0210 C   0  0  0  0  0  2  0  0  0  0  0  0
   16.9760  -56.9660   32.9010 C   0  0  0  0  0  0  0  0  0  0  0  0
   16.5670  -57.7940   32.0490 O   0  0  0  0  0  0  0  0  0  0  0  0
   18.2490  -56.3950   32.7580 N   0  0  0  0  0  0  0  0  0  0  0  0
   19.0960  -56.7620   31.6400 C   0  0  0  0  0  2  0  0  0  0  0  0
   18.8110  -55.4270   33.6790 C   0  0  0  0  0  2  0  0  0  0  0  0
   19.5020  -55.4780   30.9490 C   0  0  0  0  0  2  0  0  0  0  0  0
   20.3020  -54.7920   31.8740 O   0  0  0  0  0  0  0  0  0  0  0  0
   19.5740  -54.3690   32.9610 C   0  0  0  0  0  2  0  0  0  0  0  0
  1  2  2  0  0  0  0
  1  9  1  0  0  0  0
  3  1  1  0  0  0  0
  4  3  1  0  0  0  0
  5  4  1  0  0  0  0
  6  5  1  0  0  0  0
  6  7  1  0  0  0  0
  7  8  1  0  0  0  0
  8  3  1  0  0  0  0
 10  9  1  0  0  0  0
 10 19  1  0  0  0  0
 11 12  1  0  0  0  0
 11 10  1  0  0  0  0
 12 15  1  0  0  0  0
 13 11  2  0  0  0  0
 14 12  2  0  0  0  0
 15 19  2  0  0  0  0
 16 14  1  0  0  0  0
 17 16  1  0  0  0  0
 18 16  2  0  0  0  0
 18 13  1  0  0  0  0
 20  6  1  0  0  0  0
 21 20  1  0  0  0  0
 22 21  2  0  0  0  0
 23 21  1  0  0  0  0
 23 25  1  0  0  0  0
 24 23  1  0  0  0  0
 26 24  1  0  0  0  0
 26 27  1  0  0  0  0
 27 28  1  0  0  0  0
 28 25  1  0  0  0  0
M  END
>  <Pose>
1

>  <Score>
-10.066

$$$$
