MODEL 1
REMARK VINA RESULT:    -9.650      0.000      0.000
REMARK INTER + INTRA:         -13.351
REMARK INTER:                 -12.189
REMARK INTRA:                  -1.162
REMARK UNBOUND:                -1.162
REMARK  5 active torsions:
REMARK  status: ('A' for Active; 'I' for Inactive)
REMARK    1  A    between atoms: C_4  and  N_8 
REMARK    2  A    between atoms: C_14  and  C_17 
REMARK    3  A    between atoms: C_19  and  C_22 
REMARK    4  A    between atoms: C_24  and  O_30 
REMARK    5  A    between atoms: C_25  and  O_28 
ROOT
ATOM      1  N   UNK d   1      16.458 -58.278  33.473  0.00  0.00    -0.233 N 
ATOM      2  C   UNK d   1      17.171 -59.401  32.957  0.00  0.00     0.336 C 
ATOM      3  O   UNK d   1      17.328 -60.475  33.588  0.00  0.00    -0.246 OA
ATOM      4  N   UNK d   1      17.736 -59.299  31.652  0.00  0.00    -0.277 N 
ATOM      5  C   UNK d   1      17.572 -58.083  30.906  0.00  0.00     0.244 C 
ATOM      6  O   UNK d   1      17.888 -58.143  29.671  0.00  0.00    -0.272 OA
ATOM      7  C   UNK d   1      17.072 -56.838  31.516  0.00  0.00     0.221 C 
ATOM      8  C   UNK d   1      16.280 -57.067  32.750  0.00  0.00     0.251 C 
ATOM      9  O   UNK d   1      15.475 -56.176  33.116  0.00  0.00    -0.271 OA
ATOM     10  H   UNK d   1      18.274 -60.089  31.210  0.00  0.00     0.173 HD
ENDROOT
BRANCH   7  11
ATOM     11  C   UNK d   1      18.214 -55.893  31.807  0.00  0.00     0.041 C 
ATOM     12  C   UNK d   1      19.354 -56.259  32.364  0.00  0.00     0.026 C 
ATOM     13  C   UNK d   1      20.158 -55.020  32.454  0.00  0.00     0.134 C 
ATOM     14  N   UNK d   1      19.645 -54.248  31.337  0.00  0.00    -0.228 NA
ATOM     15  N   UNK d   1      18.261 -54.498  31.510  0.00  0.00    -0.323 N 
ATOM     16  H   UNK d   1      19.893 -53.255  31.341  0.00  0.00     0.147 HD
ATOM     17  H   UNK d   1      17.441 -53.894  31.454  0.00  0.00     0.180 HD
BRANCH  13  18
ATOM     18  C   UNK d   1      19.902 -54.318  33.743  0.00  0.00    -0.032 A 
ATOM     19  C   UNK d   1      20.249 -53.025  34.014  0.00  0.00     0.048 A 
ATOM     20  C   UNK d   1      19.953 -52.408  35.213  0.00  0.00     0.099 A 
ATOM     21  C   UNK d   1      19.278 -53.096  36.204  0.00  0.00     0.101 A 
ATOM     22  C   UNK d   1      18.923 -54.424  35.920  0.00  0.00     0.040 A 
ATOM     23  C   UNK d   1      19.227 -55.024  34.720  0.00  0.00     0.012 A 
BRANCH  20  24
ATOM     24  O   UNK d   1      20.335 -51.074  35.443  0.00  0.00    -0.358 OA
ATOM     25  H   UNK d   1      20.480 -50.474  34.638  0.00  0.00     0.217 HD
ENDBRANCH  20  24
BRANCH  21  26
ATOM     26  O   UNK d   1      18.962 -52.512  37.408  0.00  0.00    -0.353 OA
ATOM     27  C   UNK d   1      17.652 -52.075  37.704  0.00  0.00     0.210 C 
ENDBRANCH  21  26
ENDBRANCH  13  18
ENDBRANCH   7  11
BRANCH   1  28
ATOM     28  C   UNK d   1      15.918 -58.396  34.785  0.00  0.00     0.048 A 
ATOM     29  C   UNK d   1      14.638 -58.878  34.996  0.00  0.00     0.054 A 
ATOM     30  C   UNK d   1      14.092 -59.018  36.247  0.00  0.00     0.036 A 
ATOM     31 Cl   UNK d   1      12.471 -59.624  36.463  0.00  0.00    -0.084 Cl
ATOM     32  C   UNK d   1      14.872 -58.656  37.331  0.00  0.00     0.024 A 
ATOM     33  C   UNK d   1      16.153 -58.171  37.163  0.00  0.00     0.004 A 
ATOM     34  C   UNK d   1      16.659 -58.048  35.873  0.00  0.00     0.030 A 
ENDBRANCH   1  28
TORSDOF 5
ENDMDL
