MODEL 1
REMARK VINA RESULT:    -9.861      0.000      0.000
REMARK INTER + INTRA:         -13.220
REMARK INTER:                 -12.455
REMARK INTRA:                  -0.765
REMARK UNBOUND:                -0.765
REMARK  5 active torsions:
REMARK  status: ('A' for Active; 'I' for Inactive)
REMARK    1  A    between atoms: C_4  and  N_8 
REMARK    2  A    between atoms: C_14  and  C_17 
REMARK    3  A    between atoms: C_19  and  C_22 
REMARK    4  A    between atoms: C_24  and  O_29 
REMARK    5  A    between atoms: C_25  and  O_28 
ROOT
ATOM      1  N   UNK d   1      15.533 -57.466  34.600  0.00  0.00    -0.233 N 
ATOM      2  C   UNK d   1      14.124 -57.575  34.477  0.00  0.00     0.336 C 
ATOM      3  O   UNK d   1      13.514 -57.052  33.535  0.00  0.00    -0.246 OA
ATOM      4  N   UNK d   1      13.373 -58.303  35.460  0.00  0.00    -0.277 N 
ATOM      5  C   UNK d   1      14.023 -58.927  36.566  0.00  0.00     0.244 C 
ATOM      6  O   UNK d   1      13.520 -59.885  37.179  0.00  0.00    -0.272 OA
ATOM      7  C   UNK d   1      15.366 -58.396  36.995  0.00  0.00     0.221 C 
ATOM      8  C   UNK d   1      16.113 -58.120  35.750  0.00  0.00     0.251 C 
ATOM      9  O   UNK d   1      17.346 -58.457  35.631  0.00  0.00    -0.271 OA
ATOM     10  H   UNK d   1      12.353 -58.369  35.353  0.00  0.00     0.173 HD
ENDROOT
BRANCH   7  11
ATOM     11  C   UNK d   1      15.165 -57.182  37.842  0.00  0.00     0.041 C 
ATOM     12  C   UNK d   1      15.685 -56.895  39.017  0.00  0.00     0.026 C 
ATOM     13  C   UNK d   1      15.177 -55.564  39.449  0.00  0.00     0.134 C 
ATOM     14  N   UNK d   1      13.915 -55.487  38.669  0.00  0.00    -0.228 NA
ATOM     15  N   UNK d   1      14.298 -56.102  37.470  0.00  0.00    -0.323 N 
ATOM     16  H   UNK d   1      13.164 -56.006  39.165  0.00  0.00     0.147 HD
ATOM     17  H   UNK d   1      14.032 -55.856  36.523  0.00  0.00     0.180 HD
BRANCH  13  18
ATOM     18  C   UNK d   1      16.057 -54.504  38.887  0.00  0.00    -0.032 A 
ATOM     19  C   UNK d   1      17.363 -54.793  38.436  0.00  0.00     0.048 A 
ATOM     20  C   UNK d   1      18.190 -53.865  37.884  0.00  0.00     0.101 A 
ATOM     21  C   UNK d   1      17.753 -52.561  37.745  0.00  0.00     0.099 A 
ATOM     22  C   UNK d   1      16.485 -52.243  38.174  0.00  0.00     0.040 A 
ATOM     23  C   UNK d   1      15.658 -53.193  38.732  0.00  0.00     0.012 A 
BRANCH  20  24
ATOM     24  O   UNK d   1      19.482 -54.205  37.456  0.00  0.00    -0.353 OA
ATOM     25  C   UNK d   1      19.706 -54.498  36.094  0.00  0.00     0.210 C 
ENDBRANCH  20  24
BRANCH  21  26
ATOM     26  O   UNK d   1      18.585 -51.600  37.181  0.00  0.00    -0.358 OA
ATOM     27  H   UNK d   1      18.297 -50.630  37.199  0.00  0.00     0.217 HD
ENDBRANCH  21  26
ENDBRANCH  13  18
ENDBRANCH   7  11
BRANCH   1  28
ATOM     28  C   UNK d   1      16.376 -56.801  33.669  0.00  0.00     0.048 A 
ATOM     29  C   UNK d   1      16.695 -57.476  32.484  0.00  0.00     0.054 A 
ATOM     30  C   UNK d   1      17.515 -56.924  31.526  0.00  0.00     0.036 A 
ATOM     31 Cl   UNK d   1      17.860 -57.840  30.084  0.00  0.00    -0.084 Cl
ATOM     32  C   UNK d   1      18.062 -55.678  31.689  0.00  0.00     0.024 A 
ATOM     33  C   UNK d   1      17.748 -54.996  32.868  0.00  0.00     0.004 A 
ATOM     34  C   UNK d   1      16.927 -55.557  33.823  0.00  0.00     0.030 A 
ENDBRANCH   1  28
TORSDOF 5
ENDMDL
