MODEL 1
REMARK VINA RESULT:    -7.753      0.000      0.000
REMARK INTER + INTRA:         -10.379
REMARK INTER:                  -9.566
REMARK INTRA:                  -0.814
REMARK UNBOUND:                -0.814
REMARK  4 active torsions:
REMARK  status: ('A' for Active; 'I' for Inactive)
REMARK    1  A    between atoms: C_5  and  N_8 
REMARK    2  A    between atoms: C_12  and  C_13 
REMARK    3  A    between atoms: C_13  and  N_14 
REMARK    4  A    between atoms: N_14  and  C_15 
ROOT
ATOM      1  N   UNK d   1      13.416 -58.071  38.236  0.00  0.00    -0.220 N 
ATOM      2  N   UNK d   1      13.582 -57.014  39.009  0.00  0.00    -0.291 N 
ATOM      3  C   UNK d   1      14.635 -56.268  38.617  0.00  0.00     0.056 A 
ATOM      4  C   UNK d   1      15.102 -55.157  39.136  0.00  0.00     0.045 C 
ATOM      5  C   UNK d   1      15.173 -56.902  37.515  0.00  0.00     0.076 A 
ATOM      6  C   UNK d   1      14.389 -58.016  37.310  0.00  0.00     0.280 A 
ATOM      7  O   UNK d   1      14.553 -58.862  36.395  0.00  0.00    -0.265 OA
ATOM      8  H   UNK d   1      12.982 -56.765  39.831  0.00  0.00     0.187 HD
ENDROOT
BRANCH   5   9
ATOM      9  C   UNK d   1      16.239 -56.495  36.809  0.00  0.00     0.103 C 
BRANCH   9  10
ATOM     10  N   UNK d   1      16.942 -57.500  36.090  0.00  0.00    -0.384 N 
ATOM     11  H   UNK d   1      17.228 -58.413  36.494  0.00  0.00     0.159 HD
BRANCH  10  12
ATOM     12  C   UNK d   1      17.290 -57.248  34.701  0.00  0.00     0.109 C 
ATOM     13  C   UNK d   1      16.087 -56.685  33.959  0.00  0.00     0.311 C 
ATOM     14  N   UNK d   1      16.466 -56.387  32.606  0.00  0.00     0.147 N 
ATOM     15  C   UNK d   1      16.891 -57.638  31.987  0.00  0.00     0.547 C 
ATOM     16  C   UNK d   1      17.545 -55.426  32.631  0.00  0.00     0.547 C 
ATOM     17  N   UNK d   1      18.053 -58.179  32.634  0.00  0.00     0.147 N 
ATOM     18  C   UNK d   1      19.127 -57.210  32.645  0.00  0.00     0.547 C 
ATOM     19  C   UNK d   1      17.711 -58.503  33.995  0.00  0.00     0.311 C 
ATOM     20  N   UNK d   1      18.736 -55.976  33.270  0.00  0.00     0.147 N 
ATOM     21  C   UNK d   1      18.408 -56.230  34.654  0.00  0.00     0.311 C 
ENDBRANCH  10  12
ENDBRANCH   9  10
ENDBRANCH   5   9
BRANCH   1  22
ATOM     22  C   UNK d   1      12.394 -59.079  38.363  0.00  0.00     0.060 A 
ATOM     23  C   UNK d   1      11.607 -59.481  37.331  0.00  0.00     0.033 A 
ATOM     24  C   UNK d   1      10.644 -60.465  37.554  0.00  0.00     0.020 A 
ATOM     25  C   UNK d   1      10.468 -61.043  38.795  0.00  0.00     0.006 A 
ATOM     26  I   UNK d   1       9.013 -62.528  39.128  0.00  0.00    -0.045 I 
ATOM     27  C   UNK d   1      11.263 -60.639  39.843  0.00  0.00     0.020 A 
ATOM     28  C   UNK d   1      12.209 -59.665  39.602  0.00  0.00     0.033 A 
ENDBRANCH   1  22
TORSDOF 4
ENDMDL
