MODEL 1
REMARK VINA RESULT:    -9.472      0.000      0.000
REMARK INTER + INTRA:         -13.830
REMARK INTER:                 -12.794
REMARK INTRA:                  -1.036
REMARK UNBOUND:                -1.036
REMARK  6 active torsions:
REMARK  status: ('A' for Active; 'I' for Inactive)
REMARK    1  A    between atoms: S_1  and  N_4 
REMARK    2  A    between atoms: S_1  and  C_21 
REMARK    3  A    between atoms: C_5  and  C_9 
REMARK       I    between atoms: C_9  and  N_11 
REMARK    4  A    between atoms: N_11  and  C_12 
REMARK    5  A    between atoms: C_12  and  C_13 
REMARK    6  A    between atoms: C_13  and  N_14 
ROOT
ATOM      1  N   UNK d   1      17.619 -56.552  33.612  0.00  0.00    -0.293 N 
ATOM      2  C   UNK d   1      18.867 -55.961  33.616  0.00  0.00     0.188 C 
ATOM      3  C   UNK d   1      19.237 -55.768  32.139  0.00  0.00     0.037 C 
ATOM      4  C   UNK d   1      17.894 -55.419  31.534  0.00  0.00     0.023 C 
ATOM      5  C   UNK d   1      16.894 -56.125  32.418  0.00  0.00     0.136 C 
ENDROOT
BRANCH   1   6
ATOM      6  S   UNK d   1      17.281 -58.107  34.088  0.00  0.00     0.263 S 
ATOM      7  O   UNK d   1      18.482 -58.801  34.728  0.00  0.00    -0.200 OA
ATOM      8  O   UNK d   1      17.010 -58.945  32.837  0.00  0.00    -0.200 OA
BRANCH   6   9
ATOM      9  C   UNK d   1      15.901 -58.283  35.129  0.00  0.00     0.104 A 
ATOM     10  C   UNK d   1      14.897 -59.199  34.771  0.00  0.00     0.066 A 
ATOM     11  C   UNK d   1      13.743 -59.376  35.479  0.00  0.00     0.097 A 
ATOM     12  C   UNK d   1      13.571 -58.601  36.611  0.00  0.00     0.070 A 
ATOM     13  O   UNK d   1      12.755 -60.282  35.120  0.00  0.00    -0.340 OA
ATOM     14  C   UNK d   1      14.504 -57.695  37.018  0.00  0.00     0.058 A 
ATOM     15  N   UNK d   1      12.365 -58.782  37.368  0.00  0.00    -0.323 N 
ATOM     16  C   UNK d   1      15.661 -57.555  36.260  0.00  0.00     0.059 A 
ATOM     17 Cl   UNK d   1      16.855 -56.450  36.903  0.00  0.00    -0.083 Cl
ATOM     18  C   UNK d   1      11.400 -59.739  36.935  0.00  0.00     0.246 C 
ATOM     19  H   UNK d   1      12.221 -58.201  38.231  0.00  0.00     0.169 HD
ATOM     20  O   UNK d   1      10.208 -59.617  37.268  0.00  0.00    -0.271 OA
ATOM     21  C   UNK d   1      11.885 -60.858  36.090  0.00  0.00     0.278 C 
ENDBRANCH   6   9
ENDBRANCH   1   6
BRANCH   2  22
ATOM     22  C   UNK d   1      18.749 -54.590  34.260  0.00  0.00     0.241 C 
ATOM     23  O   UNK d   1      17.616 -54.274  34.647  0.00  0.00    -0.271 OA
ATOM     24  N   UNK d   1      19.891 -53.780  34.380  0.00  0.00    -0.358 N 
ATOM     25  H   UNK d   1      20.827 -54.071  34.031  0.00  0.00     0.162 HD
BRANCH  24  26
ATOM     26  C   UNK d   1      19.798 -52.479  34.997  0.00  0.00     0.152 C 
BRANCH  26  27
ATOM     27  C   UNK d   1      19.946 -52.454  36.470  0.00  0.00     0.292 C 
BRANCH  27  28
ATOM     28  N   UNK d   1      18.802 -52.813  37.230  0.00  0.00     0.090 N 
ATOM     29  C   UNK d   1      18.101 -51.733  37.843  0.00  0.00     0.272 C 
ATOM     30  C   UNK d   1      16.617 -52.022  37.735  0.00  0.00     0.030 C 
ATOM     31  C   UNK d   1      16.350 -53.414  38.270  0.00  0.00     0.002 C 
ATOM     32  C   UNK d   1      17.076 -53.564  39.580  0.00  0.00     0.002 C 
ATOM     33  C   UNK d   1      18.524 -53.857  39.454  0.00  0.00     0.030 C 
ATOM     34  C   UNK d   1      19.058 -53.934  38.073  0.00  0.00     0.272 C 
ENDBRANCH  27  28
ENDBRANCH  26  27
ENDBRANCH  24  26
ENDBRANCH   2  22
TORSDOF 6
ENDMDL
