MODEL 1
REMARK VINA RESULT:    -8.655      0.000      0.000
REMARK INTER + INTRA:         -10.258
REMARK INTER:                  -9.667
REMARK INTRA:                  -0.591
REMARK UNBOUND:                -0.591
REMARK  2 active torsions:
REMARK  status: ('A' for Active; 'I' for Inactive)
REMARK    1  A    between atoms: C_5  and  C_8 
REMARK       I    between atoms: C_8  and  N_10 
REMARK    2  A    between atoms: N_13  and  C_16 
ROOT
ATOM      1  C   UNK d   1      15.106 -57.717  34.016  0.00  0.00     0.187 C 
ATOM      2  O   UNK d   1      14.352 -56.954  33.264  0.00  0.00    -0.171 OA
ATOM      3  N   UNK d   1      16.414 -57.855  33.577  0.00  0.00    -0.356 N 
ATOM      4  C   UNK d   1      17.499 -58.630  34.079  0.00  0.00     0.145 C 
ATOM      5  C   UNK d   1      18.371 -57.631  34.866  0.00  0.00     0.144 C 
ATOM      6  N   UNK d   1      18.422 -56.387  34.076  0.00  0.00    -0.361 N 
ATOM      7  C   UNK d   1      18.218 -56.486  32.659  0.00  0.00     0.144 C 
ATOM      8  C   UNK d   1      16.821 -57.017  32.400  0.00  0.00     0.145 C 
ENDROOT
BRANCH   1   9
ATOM      9  C   UNK d   1      14.420 -58.262  35.153  0.00  0.00     0.018 A 
ATOM     10  C   UNK d   1      14.832 -57.909  36.444  0.00  0.00     0.017 A 
ATOM     11  C   UNK d   1      14.258 -58.415  37.587  0.00  0.00     0.025 A 
ATOM     12  C   UNK d   1      13.224 -59.315  37.516  0.00  0.00     0.034 A 
ATOM     13 Cl   UNK d   1      12.482 -59.967  38.984  0.00  0.00    -0.084 Cl
ATOM     14  C   UNK d   1      12.787 -59.690  36.273  0.00  0.00     0.025 A 
ATOM     15  C   UNK d   1      13.383 -59.166  35.112  0.00  0.00     0.017 A 
ENDBRANCH   1   9
BRANCH   6  16
ATOM     16  C   UNK d   1      18.672 -55.149  34.735  0.00  0.00     0.146 A 
ATOM     17  N   UNK d   1      17.909 -54.743  35.774  0.00  0.00    -0.147 NA
ATOM     18  N   UNK d   1      18.110 -53.601  36.407  0.00  0.00    -0.204 N 
ATOM     19  C   UNK d   1      19.091 -52.754  36.067  0.00  0.00     0.174 A 
ATOM     20  C   UNK d   1      17.474 -53.007  37.457  0.00  0.00     0.261 A 
ATOM     21  N   UNK d   1      19.073 -51.665  36.875  0.00  0.00    -0.129 NA
ATOM     22  C   UNK d   1      19.918 -53.099  35.012  0.00  0.00     0.058 A 
ATOM     23  N   UNK d   1      18.076 -51.834  37.724  0.00  0.00    -0.141 NA
ATOM     24  C   UNK d   1      19.687 -54.293  34.369  0.00  0.00     0.056 A 
ENDBRANCH   6  16
TORSDOF 2
ENDMDL
