MODEL 1
REMARK VINA RESULT:    -9.600      0.000      0.000
REMARK INTER + INTRA:         -12.596
REMARK INTER:                 -11.845
REMARK INTRA:                  -0.751
REMARK UNBOUND:                -0.751
REMARK  4 active torsions:
REMARK  status: ('A' for Active; 'I' for Inactive)
REMARK    1  A    between atoms: C_5  and  N_8 
REMARK    2  A    between atoms: C_10  and  C_24 
REMARK    3  A    between atoms: N_11  and  C_14 
REMARK    4  A    between atoms: C_14  and  C_15 
REMARK       I    between atoms: C_15  and  N_17 
ROOT
ATOM      1  N   UNK d   1      15.746 -57.112  36.341  0.00  0.00    -0.181 N 
ATOM      2  N   UNK d   1      15.964 -55.950  36.847  0.00  0.00    -0.144 NA
ATOM      3  C   UNK d   1      17.114 -55.377  36.328  0.00  0.00     0.165 A 
ATOM      4  N   UNK d   1      17.602 -56.253  35.470  0.00  0.00    -0.272 N 
ATOM      5  C   UNK d   1      16.744 -57.329  35.481  0.00  0.00     0.352 A 
ATOM      6  O   UNK d   1      16.912 -58.345  34.773  0.00  0.00    -0.244 OA
ENDROOT
BRANCH   4   7
ATOM      7  C   UNK d   1      18.823 -56.216  34.729  0.00  0.00     0.222 C 
BRANCH   7   8
ATOM      8  C   UNK d   1      18.698 -55.784  33.324  0.00  0.00     0.172 C 
ATOM      9  O   UNK d   1      18.488 -54.506  33.199  0.00  0.00    -0.175 OA
ATOM     10  N   UNK d   1      18.765 -56.491  32.145  0.00  0.00    -0.351 N 
ATOM     11  C   UNK d   1      18.945 -57.914  32.030  0.00  0.00     0.145 C 
ATOM     12  C   UNK d   1      18.661 -55.767  30.866  0.00  0.00     0.227 C 
ATOM     13  C   UNK d   1      18.921 -58.389  30.566  0.00  0.00     0.142 C 
ATOM     14  N   UNK d   1      19.899 -57.612  29.797  0.00  0.00    -0.358 N 
ATOM     15  C   UNK d   1      19.823 -56.192  30.050  0.00  0.00     0.235 C 
ATOM     16  H   UNK d   1      20.569 -58.029  29.146  0.00  0.00     0.162 HD
ATOM     17  O   UNK d   1      20.699 -55.422  29.595  0.00  0.00    -0.272 OA
ENDBRANCH   7   8
ENDBRANCH   4   7
BRANCH   3  18
ATOM     18  C   UNK d   1      17.553 -54.063  36.794  0.00  0.00     0.012 A 
ATOM     19  C   UNK d   1      16.687 -53.335  37.620  0.00  0.00     0.015 A 
ATOM     20  C   UNK d   1      16.948 -52.072  38.074  0.00  0.00     0.001 A 
ATOM     21  C   UNK d   1      18.127 -51.426  37.726  0.00  0.00     0.000 A 
ATOM     22  C   UNK d   1      18.978 -52.126  36.919  0.00  0.00     0.001 A 
ATOM     23  C   UNK d   1      18.706 -53.417  36.456  0.00  0.00     0.015 A 
ENDBRANCH   3  18
BRANCH   1  24
ATOM     24  C   UNK d   1      14.652 -57.966  36.660  0.00  0.00     0.063 A 
ATOM     25  C   UNK d   1      14.453 -58.379  37.963  0.00  0.00     0.033 A 
ATOM     26  C   UNK d   1      13.395 -59.209  38.292  0.00  0.00     0.026 A 
ATOM     27  C   UNK d   1      12.492 -59.664  37.349  0.00  0.00     0.034 A 
ATOM     28 Cl   UNK d   1      11.150 -60.718  37.753  0.00  0.00    -0.084 Cl
ATOM     29  C   UNK d   1      12.695 -59.248  36.042  0.00  0.00     0.026 A 
ATOM     30  C   UNK d   1      13.758 -58.413  35.710  0.00  0.00     0.033 A 
ENDBRANCH   1  24
TORSDOF 4
ENDMDL
