MODEL 1
REMARK VINA RESULT:    -8.693      0.000      0.000
REMARK INTER + INTRA:         -10.964
REMARK INTER:                 -10.725
REMARK INTRA:                  -0.238
REMARK UNBOUND:                -0.238
REMARK  4 active torsions:
REMARK  status: ('A' for Active; 'I' for Inactive)
REMARK    1  A    between atoms: C_5  and  N_8 
REMARK    2  A    between atoms: N_15  and  C_18 
REMARK    3  A    between atoms: C_20  and  O_26 
REMARK    4  A    between atoms: C_21  and  O_24 
ROOT
ATOM      1  N   UNK d   1      16.700 -54.571  38.252  0.00  0.00    -0.234 N 
ATOM      2  N   UNK d   1      16.220 -54.628  39.472  0.00  0.00    -0.234 N 
ATOM      3  N   UNK d   1      15.446 -55.707  39.526  0.00  0.00    -0.278 N 
ATOM      4  C   UNK d   1      15.428 -56.345  38.340  0.00  0.00     0.152 A 
ATOM      5  C   UNK d   1      16.224 -55.616  37.552  0.00  0.00     0.160 A 
ATOM      6  C   UNK d   1      16.207 -56.269  36.328  0.00  0.00     0.286 A 
ATOM      7  O   UNK d   1      16.842 -55.882  35.321  0.00  0.00    -0.265 OA
ATOM      8  N   UNK d   1      15.432 -57.364  36.356  0.00  0.00    -0.241 N 
ATOM      9  C   UNK d   1      14.946 -57.412  37.610  0.00  0.00     0.286 A 
ATOM     10  O   UNK d   1      14.162 -58.303  38.055  0.00  0.00    -0.265 OA
ATOM     11  H   UNK d   1      16.409 -53.948  40.267  0.00  0.00     0.209 HD
ATOM     12  H   UNK d   1      14.932 -55.996  40.393  0.00  0.00     0.189 HD
ENDROOT
BRANCH   8  13
ATOM     13  C   UNK d   1      15.155 -58.298  35.316  0.00  0.00     0.049 A 
ATOM     14  C   UNK d   1      16.145 -58.911  34.574  0.00  0.00     0.069 A 
ATOM     15  C   UNK d   1      15.868 -59.815  33.569  0.00  0.00     0.103 A 
ATOM     16  C   UNK d   1      14.568 -60.150  33.256  0.00  0.00     0.101 A 
ATOM     17  C   UNK d   1      13.568 -59.546  33.989  0.00  0.00     0.042 A 
ATOM     18  C   UNK d   1      13.855 -58.641  34.995  0.00  0.00     0.033 A 
BRANCH  15  19
ATOM     19  O   UNK d   1      16.866 -60.432  32.821  0.00  0.00    -0.353 OA
ATOM     20  C   UNK d   1      17.332 -59.750  31.671  0.00  0.00     0.210 C 
ENDBRANCH  15  19
BRANCH  16  21
ATOM     21  O   UNK d   1      14.298 -61.064  32.239  0.00  0.00    -0.353 OA
ATOM     22  C   UNK d   1      13.837 -62.360  32.466  0.00  0.00     0.210 C 
ENDBRANCH  16  21
ENDBRANCH   8  13
BRANCH   1  23
ATOM     23  C   UNK d   1      17.574 -53.576  37.763  0.00  0.00     0.058 A 
ATOM     24  C   UNK d   1      17.249 -52.230  37.901  0.00  0.00     0.033 A 
ATOM     25  C   UNK d   1      18.150 -51.314  37.399  0.00  0.00     0.026 A 
ATOM     26  C   UNK d   1      19.323 -51.645  36.783  0.00  0.00     0.034 A 
ATOM     27 Cl   UNK d   1      20.445 -50.434  36.156  0.00  0.00    -0.084 Cl
ATOM     28  C   UNK d   1      19.635 -52.976  36.652  0.00  0.00     0.026 A 
ATOM     29  C   UNK d   1      18.776 -53.923  37.133  0.00  0.00     0.033 A 
ENDBRANCH   1  23
TORSDOF 4
ENDMDL
