/Users/jonathanwahrer/Desktop/Msc/3_Semester/Drug_Design_Praktikum/waehrer_HTS_screening/HTS_experiment/out/docking_results/vina_output/6s1j/1790_docked.pdbqt
 OpenBabel03222222233D

 29 32  0  0  0  0  0  0  0  0999 V2000
   16.5300  -54.4950   38.3580 N   0  0  0  0  0  0  0  0  0  0  0  0
   15.9180  -54.4010   39.5210 N   0  0  0  0  0  0  0  0  0  0  0  0
   15.1150  -55.4540   39.5990 N   0  0  0  0  0  0  0  0  0  0  0  0
   15.2040  -56.2230   38.5000 C   0  0  0  0  0  0  0  0  0  0  0  0
   16.1060  -55.6030   37.7190 C   0  0  0  0  0  0  0  0  0  0  0  0
   16.1950  -56.3950   36.5900 C   0  0  0  0  0  0  0  0  0  0  0  0
   16.9630  -56.1130   35.6230 O   0  0  0  0  0  0  0  0  0  0  0  0
   15.3850  -57.4650   36.6610 N   0  0  0  0  0  0  0  0  0  0  0  0
   14.7680  -57.3590   37.8500 C   0  0  0  0  0  0  0  0  0  0  0  0
   13.9160  -58.1890   38.2850 O   0  0  0  0  0  0  0  0  0  0  0  0
   16.0540  -53.6370   40.2260 H   0  0  0  0  0  0  0  0  0  0  0  0
   14.4910  -55.6630   40.4080 H   0  0  0  0  0  0  0  0  0  0  0  0
   15.2510  -58.4690   35.6580 C   0  0  0  0  0  0  0  0  0  0  0  0
   16.2980  -58.8320   34.8350 C   0  0  0  0  0  3  0  0  0  0  0  0
   16.1930  -59.8010   33.8580 C   0  0  0  0  0  0  0  0  0  0  0  0
   14.9800  -60.4360   33.6950 C   0  0  0  0  0  3  0  0  0  0  0  0
   13.8990  -60.1130   34.4890 C   0  0  0  0  0  0  0  0  0  0  0  0
   14.0540  -59.1290   35.4610 C   0  0  0  0  0  3  0  0  0  0  0  0
   17.2920  -60.1350   33.0440 O   0  0  0  0  0  0  0  0  0  0  0  0
   17.3410  -59.6420   31.7250 C   0  0  0  0  0  1  0  0  0  0  0  0
   12.6930  -60.7740   34.2950 O   0  0  0  0  0  0  0  0  0  0  0  0
   11.5720  -60.5240   35.0970 C   0  0  0  0  0  1  0  0  0  0  0  0
   17.4840  -53.5800   37.8470 C   0  0  0  0  0  0  0  0  0  0  0  0
   18.6970  -53.9920   37.3150 C   0  0  0  0  0  3  0  0  0  0  0  0
   19.5960  -53.0800   36.8290 C   0  0  0  0  0  3  0  0  0  0  0  0
   19.3410  -51.7240   36.8470 C   0  0  0  0  0  0  0  0  0  0  0  0
   20.5400  -50.5910   36.2080 Cl  0  0  0  0  0  0  0  0  0  0  0  0
   18.1490  -51.2950   37.3700 C   0  0  0  0  0  3  0  0  0  0  0  0
   17.2460  -52.2160   37.8570 C   0  0  0  0  0  3  0  0  0  0  0  0
  1  2  1  0  0  0  0
  2  3  1  0  0  0  0
  2 11  1  0  0  0  0
  3 12  1  0  0  0  0
  4  3  1  0  0  0  0
  5  1  1  0  0  0  0
  5  4  2  0  0  0  0
  6  8  1  0  0  0  0
  6  5  1  0  0  0  0
  7  6  2  0  0  0  0
  8  9  1  0  0  0  0
  9 10  2  0  0  0  0
  9  4  1  0  0  0  0
 13  8  1  0  0  0  0
 14 13  2  0  0  0  0
 15 14  1  0  0  0  0
 16 15  2  0  0  0  0
 16 17  1  0  0  0  0
 17 18  2  0  0  0  0
 18 13  1  0  0  0  0
 19 15  1  0  0  0  0
 20 19  1  0  0  0  0
 21 17  1  0  0  0  0
 21 22  1  0  0  0  0
 23 29  1  0  0  0  0
 23  1  1  0  0  0  0
 24 23  2  0  0  0  0
 25 26  2  0  0  0  0
 25 24  1  0  0  0  0
 26 28  1  0  0  0  0
 27 26  1  0  0  0  0
 28 29  2  0  0  0  0
M  END
>  <Pose>
1

>  <Score>
-8.862

$$$$
