MODEL 1
REMARK VINA RESULT:    -8.862      0.000      0.000
REMARK INTER + INTRA:         -10.735
REMARK INTER:                 -10.935
REMARK INTRA:                   0.200
REMARK UNBOUND:                 0.200
REMARK  4 active torsions:
REMARK  status: ('A' for Active; 'I' for Inactive)
REMARK    1  A    between atoms: C_5  and  N_8 
REMARK    2  A    between atoms: N_15  and  C_18 
REMARK    3  A    between atoms: C_20  and  O_26 
REMARK    4  A    between atoms: C_22  and  O_24 
ROOT
ATOM      1  N   UNK d   1      16.530 -54.495  38.358  0.00  0.00    -0.234 N 
ATOM      2  N   UNK d   1      15.918 -54.401  39.521  0.00  0.00    -0.234 N 
ATOM      3  N   UNK d   1      15.115 -55.454  39.599  0.00  0.00    -0.278 N 
ATOM      4  C   UNK d   1      15.204 -56.223  38.500  0.00  0.00     0.152 A 
ATOM      5  C   UNK d   1      16.106 -55.603  37.719  0.00  0.00     0.160 A 
ATOM      6  C   UNK d   1      16.195 -56.395  36.590  0.00  0.00     0.286 A 
ATOM      7  O   UNK d   1      16.963 -56.113  35.623  0.00  0.00    -0.265 OA
ATOM      8  N   UNK d   1      15.385 -57.465  36.661  0.00  0.00    -0.241 N 
ATOM      9  C   UNK d   1      14.768 -57.359  37.850  0.00  0.00     0.286 A 
ATOM     10  O   UNK d   1      13.916 -58.189  38.285  0.00  0.00    -0.265 OA
ATOM     11  H   UNK d   1      16.054 -53.637  40.226  0.00  0.00     0.209 HD
ATOM     12  H   UNK d   1      14.491 -55.663  40.408  0.00  0.00     0.189 HD
ENDROOT
BRANCH   8  13
ATOM     13  C   UNK d   1      15.251 -58.469  35.658  0.00  0.00     0.051 A 
ATOM     14  C   UNK d   1      16.298 -58.832  34.835  0.00  0.00     0.067 A 
ATOM     15  C   UNK d   1      16.193 -59.801  33.858  0.00  0.00     0.073 A 
ATOM     16  C   UNK d   1      14.980 -60.436  33.695  0.00  0.00     0.073 A 
ATOM     17  C   UNK d   1      13.899 -60.113  34.489  0.00  0.00     0.073 A 
ATOM     18  C   UNK d   1      14.054 -59.129  35.461  0.00  0.00     0.067 A 
BRANCH  15  19
ATOM     19  O   UNK d   1      17.292 -60.135  33.044  0.00  0.00    -0.356 OA
ATOM     20  C   UNK d   1      17.341 -59.642  31.725  0.00  0.00     0.210 C 
ENDBRANCH  15  19
BRANCH  17  21
ATOM     21  O   UNK d   1      12.693 -60.774  34.295  0.00  0.00    -0.356 OA
ATOM     22  C   UNK d   1      11.572 -60.524  35.097  0.00  0.00     0.210 C 
ENDBRANCH  17  21
ENDBRANCH   8  13
BRANCH   1  23
ATOM     23  C   UNK d   1      17.484 -53.580  37.847  0.00  0.00     0.058 A 
ATOM     24  C   UNK d   1      18.697 -53.992  37.315  0.00  0.00     0.033 A 
ATOM     25  C   UNK d   1      19.596 -53.080  36.829  0.00  0.00     0.026 A 
ATOM     26  C   UNK d   1      19.341 -51.724  36.847  0.00  0.00     0.034 A 
ATOM     27 Cl   UNK d   1      20.540 -50.591  36.208  0.00  0.00    -0.084 Cl
ATOM     28  C   UNK d   1      18.149 -51.295  37.370  0.00  0.00     0.026 A 
ATOM     29  C   UNK d   1      17.246 -52.216  37.857  0.00  0.00     0.033 A 
ENDBRANCH   1  23
TORSDOF 4
ENDMDL
