MODEL 1
REMARK VINA RESULT:    -9.666      0.000      0.000
REMARK INTER + INTRA:         -11.774
REMARK INTER:                 -11.362
REMARK INTRA:                  -0.412
REMARK UNBOUND:                -0.412
REMARK  3 active torsions:
REMARK  status: ('A' for Active; 'I' for Inactive)
REMARK    1  A    between atoms: N_15  and  C_19 
REMARK    2  A    between atoms: C_19  and  C_20 
REMARK       I    between atoms: C_20  and  N_22 
REMARK    3  A    between atoms: N_22  and  C_23 
ROOT
ATOM      1 Cl   UNK d   1      20.053 -50.990  35.979  0.00  0.00    -0.084 Cl
ATOM      2  C   UNK d   1      18.849 -52.079  36.666  0.00  0.00     0.036 A 
ATOM      3  C   UNK d   1      18.669 -53.345  36.137  0.00  0.00     0.055 A 
ATOM      4  C   UNK d   1      17.739 -54.200  36.661  0.00  0.00     0.077 A 
ATOM      5  C   UNK d   1      17.001 -53.742  37.726  0.00  0.00     0.038 A 
ATOM      6  C   UNK d   1      17.160 -52.494  38.270  0.00  0.00     0.019 A 
ATOM      7  C   UNK d   1      18.106 -51.638  37.729  0.00  0.00     0.025 A 
ATOM      8  C   UNK d   1      15.987 -54.637  38.318  0.00  0.00     0.153 A 
ATOM      9  N   UNK d   1      15.161 -54.503  39.295  0.00  0.00    -0.270 NA
ATOM     10  C   UNK d   1      14.361 -55.676  39.494  0.00  0.00     0.172 A 
ATOM     11  C   UNK d   1      14.820 -56.634  38.445  0.00  0.00     0.171 A 
ATOM     12  N   UNK d   1      15.851 -55.920  37.730  0.00  0.00    -0.160 N 
ATOM     13  C   UNK d   1      16.649 -56.347  36.617  0.00  0.00     0.736 A 
ATOM     14  N   UNK d   1      16.692 -57.489  35.914  0.00  0.00     0.025 NA
ATOM     15  N   UNK d   1      17.608 -57.404  34.966  0.00  0.00    -0.194 N 
ATOM     16  C   UNK d   1      18.142 -56.176  35.087  0.00  0.00     0.365 A 
ATOM     17  O   UNK d   1      19.054 -55.733  34.348  0.00  0.00    -0.244 OA
ATOM     18  N   UNK d   1      17.559 -55.496  36.111  0.00  0.00    -0.090 N 
ENDROOT
BRANCH  15  19
ATOM     19  C   UNK d   1      17.982 -58.413  33.979  0.00  0.00     0.259 C 
BRANCH  19  20
ATOM     20  C   UNK d   1      17.487 -57.988  32.649  0.00  0.00     0.237 C 
ATOM     21  O   UNK d   1      16.243 -58.002  32.430  0.00  0.00    -0.272 OA
ATOM     22  N   UNK d   1      18.353 -57.565  31.606  0.00  0.00    -0.356 N 
ATOM     23  H   UNK d   1      19.374 -57.560  31.804  0.00  0.00     0.162 HD
BRANCH  22  24
ATOM     24  C   UNK d   1      17.824 -57.161  30.323  0.00  0.00     0.076 C 
ATOM     25  C   UNK d   1      18.767 -56.164  29.643  0.00  0.00     0.032 C 
ATOM     26  C   UNK d   1      17.825 -58.401  29.440  0.00  0.00     0.032 C 
ENDBRANCH  22  24
ENDBRANCH  19  20
ENDBRANCH  15  19
TORSDOF 3
ENDMDL
