/Users/jonathanwahrer/Desktop/Msc/3_Semester/Drug_Design_Praktikum/waehrer_HTS_screening/HTS_experiment/out/docking_results/vina_output/6s1j/1804_docked.pdbqt
 OpenBabel03222222233D

 26 30  0  0  0  0  0  0  0  0999 V2000
   20.0470  -50.9330   36.0490 Cl  0  0  0  0  0  0  0  0  0  0  0  0
   18.8660  -52.0630   36.6770 C   0  0  0  0  0  0  0  0  0  0  0  0
   18.6810  -53.3290   36.1480 C   0  0  0  0  0  3  0  0  0  0  0  0
   17.7500  -54.2080   36.6510 C   0  0  0  0  0  0  0  0  0  0  0  0
   17.0010  -53.7700   37.7160 C   0  0  0  0  0  0  0  0  0  0  0  0
   17.1420  -52.5250   38.2800 C   0  0  0  0  0  3  0  0  0  0  0  0
   18.0970  -51.6550   37.7460 C   0  0  0  0  0  3  0  0  0  0  0  0
   15.9910  -54.6860   38.2810 C   0  0  0  0  0  0  0  0  0  0  0  0
   15.1670  -54.5480   39.2550 N   0  0  0  0  0  0  0  0  0  0  0  0
   14.3600  -55.7220   39.4520 C   0  0  0  0  0  3  0  0  0  0  0  0
   14.8270  -56.6750   38.3980 C   0  0  0  0  0  3  0  0  0  0  0  0
   15.8580  -55.9620   37.6900 N   0  0  0  0  0  0  0  0  0  0  0  0
   16.6740  -56.3680   36.5720 C   0  0  0  0  0  0  0  0  0  0  0  0
   16.7250  -57.5090   35.8580 N   0  0  0  0  0  0  0  0  0  0  0  0
   17.6510  -57.3960   34.9200 N   0  0  0  0  0  0  0  0  0  0  0  0
   18.1670  -56.1660   35.0700 C   0  0  0  0  0  0  0  0  0  0  0  0
   19.0880  -55.7160   34.3300 O   0  0  0  0  0  0  0  0  0  0  0  0
   17.5790  -55.5020   36.0890 N   0  0  0  0  0  0  0  0  0  0  0  0
   18.0400  -58.4000   33.9180 C   0  0  0  0  0  2  0  0  0  0  0  0
   17.4020  -58.0340   32.6260 C   0  0  0  0  0  0  0  0  0  0  0  0
   16.1470  -58.0670   32.5880 O   0  0  0  0  0  0  0  0  0  0  0  0
   18.1660  -57.6650   31.4860 N   0  0  0  0  0  0  0  0  0  0  0  0
   17.6010  -57.2990   30.2010 C   0  0  0  0  0  2  0  0  0  0  0  0
   19.6050  -57.5830   31.3960 C   0  0  0  0  0  2  0  0  0  0  0  0
   18.7600  -57.1770   29.2480 C   0  0  0  0  0  2  0  0  0  0  0  0
   19.8240  -58.0050   29.9390 C   0  0  0  0  0  2  0  0  0  0  0  0
  1  2  1  0  0  0  0
  2  7  1  0  0  0  0
  3  4  1  0  0  0  0
  3  2  2  0  0  0  0
  4  5  2  0  0  0  0
  5  6  1  0  0  0  0
  5  8  1  0  0  0  0
  7  6  2  0  0  0  0
  8  9  2  0  0  0  0
  9 10  1  0  0  0  0
 11 10  2  0  0  0  0
 12  8  1  0  0  0  0
 12 11  1  0  0  0  0
 13 12  1  0  0  0  0
 14 13  2  0  0  0  0
 15 16  1  0  0  0  0
 15 14  1  0  0  0  0
 16 18  1  0  0  0  0
 17 16  2  0  0  0  0
 18 13  1  0  0  0  0
 18  4  1  0  0  0  0
 19 15  1  0  0  0  0
 20 19  1  0  0  0  0
 21 20  2  0  0  0  0
 22 20  1  0  0  0  0
 23 22  1  0  0  0  0
 24 22  1  0  0  0  0
 25 26  1  0  0  0  0
 25 23  1  0  0  0  0
 26 24  1  0  0  0  0
M  END
>  <Pose>
1

>  <Score>
-10.384

$$$$
