/Users/jonathanwahrer/Desktop/Msc/3_Semester/Drug_Design_Praktikum/waehrer_HTS_screening/HTS_experiment/out/docking_results/vina_output/6s1j/1806_docked.pdbqt
 OpenBabel03222222233D

 32 35  0  0  0  0  0  0  0  0999 V2000
   14.8910  -57.5120   37.6120 N   0  0  0  0  0  0  0  0  0  0  0  0
   13.7570  -58.1350   36.9610 C   0  0  0  0  0  2  0  0  0  0  0  0
   14.2600  -58.7190   35.6310 C   0  0  0  0  0  2  0  0  0  0  0  0
   15.6030  -58.3380   35.3540 N   0  0  0  0  0  0  0  0  0  0  0  0
   16.5790  -58.8120   36.3330 C   0  0  0  0  0  2  0  0  0  0  0  0
   16.1300  -58.2640   37.6660 C   0  0  0  0  0  2  0  0  0  0  0  0
   14.8360  -56.2280   38.2170 C   0  0  0  0  0  3  0  0  0  0  0  0
   15.6750  -55.2350   38.0380 C   0  0  0  0  0  0  0  0  0  0  0  0
   16.7940  -55.3210   37.1780 N   0  0  0  0  0  0  0  0  0  0  0  0
   15.4620  -53.9900   38.7410 N   0  0  0  0  0  0  0  0  0  0  0  0
   17.6930  -54.2020   37.0080 C   0  0  0  0  0  0  0  0  0  0  0  0
   16.9810  -56.1940   36.6540 H   0  0  0  0  0  0  0  0  0  0  0  0
   17.5100  -53.0130   37.6670 C   0  0  0  0  0  0  0  0  0  0  0  0
   18.7660  -54.3280   36.1650 C   0  0  0  0  0  3  0  0  0  0  0  0
   18.3890  -51.9640   37.4820 C   0  0  0  0  0  3  0  0  0  0  0  0
   16.3610  -52.9120   38.5560 C   0  0  0  0  0  0  0  0  0  0  0  0
   19.4530  -52.0920   36.6440 C   0  0  0  0  0  0  0  0  0  0  0  0
   20.6080  -50.7890   36.3690 Cl  0  0  0  0  0  0  0  0  0  0  0  0
   19.6490  -53.2800   35.9770 C   0  0  0  0  0  3  0  0  0  0  0  0
   16.1940  -51.8010   39.1670 O   0  0  0  0  0  0  0  0  0  0  0  0
   14.6500  -53.8910   39.3820 H   0  0  0  0  0  0  0  0  0  0  0  0
   16.1100  -57.5580   34.2850 C   0  0  0  0  0  0  0  0  0  0  0  0
   16.3290  -56.2100   34.5090 N   0  0  0  0  0  0  0  0  0  0  0  0
   16.7890  -55.3680   33.5860 C   0  0  0  0  0  3  0  0  0  0  0  0
   17.0610  -55.8620   32.3410 C   0  0  0  0  0  3  0  0  0  0  0  0
   16.8570  -57.1880   32.0820 C   0  0  0  0  0  3  0  0  0  0  0  0
   16.3720  -58.0850   33.0560 C   0  0  0  0  0  0  0  0  0  0  0  0
   16.2000  -59.4740   32.7590 C   0  0  0  0  0  0  0  0  0  0  0  0
   15.1630  -60.0000   32.3610 O   0  0  0  0  0  0  0  0  0  0  0  0
   17.3100  -60.3460   32.9330 N   0  0  0  0  0  0  0  0  0  0  0  0
   18.1450  -60.2780   32.3080 H   0  0  0  0  0  0  0  0  0  0  0  0
   17.3560  -61.0830   33.6700 H   0  0  0  0  0  0  0  0  0  0  0  0
  1  6  1  0  0  0  0
  1  7  1  0  0  0  0
  2  1  1  0  0  0  0
  3  2  1  0  0  0  0
  4  3  1  0  0  0  0
  4  5  1  0  0  0  0
  5  6  1  0  0  0  0
  8  7  2  0  0  0  0
  8 10  1  0  0  0  0
  9  8  1  0  0  0  0
 10 21  1  0  0  0  0
 11  9  1  0  0  0  0
 11 13  1  0  0  0  0
 12  9  1  0  0  0  0
 13 16  1  0  0  0  0
 14 11  2  0  0  0  0
 15 13  2  0  0  0  0
 16 10  1  0  0  0  0
 16 20  2  0  0  0  0
 17 15  1  0  0  0  0
 18 17  1  0  0  0  0
 19 14  1  0  0  0  0
 19 17  2  0  0  0  0
 22 23  1  0  0  0  0
 22  4  1  0  0  0  0
 24 23  2  0  0  0  0
 25 24  1  0  0  0  0
 26 25  2  0  0  0  0
 26 27  1  0  0  0  0
 27 22  2  0  0  0  0
 28 30  1  0  0  0  0
 28 27  1  0  0  0  0
 29 28  2  0  0  0  0
 30 32  1  0  0  0  0
 31 30  1  0  0  0  0
M  END
>  <Pose>
1

>  <Score>
-9.724

$$$$
