MODEL 1
REMARK VINA RESULT:    -9.724      0.000      0.000
REMARK INTER + INTRA:         -12.287
REMARK INTER:                 -11.430
REMARK INTRA:                  -0.857
REMARK UNBOUND:                -0.857
REMARK  3 active torsions:
REMARK  status: ('A' for Active; 'I' for Inactive)
REMARK    1  A    between atoms: C_10  and  N_11 
REMARK    2  A    between atoms: N_14  and  C_17 
REMARK    3  A    between atoms: C_22  and  C_23 
REMARK       I    between atoms: C_23  and  N_25 
ROOT
ATOM      1  N   UNK d   1      14.891 -57.512  37.612  0.00  0.00    -0.384 N 
ATOM      2  C   UNK d   1      13.757 -58.135  36.961  0.00  0.00     0.142 C 
ATOM      3  C   UNK d   1      14.260 -58.719  35.631  0.00  0.00     0.144 C 
ATOM      4  N   UNK d   1      15.603 -58.338  35.354  0.00  0.00    -0.362 N 
ATOM      5  C   UNK d   1      16.579 -58.812  36.333  0.00  0.00     0.144 C 
ATOM      6  C   UNK d   1      16.130 -58.264  37.666  0.00  0.00     0.142 C 
ENDROOT
BRANCH   1   7
ATOM      7  C   UNK d   1      14.836 -56.228  38.217  0.00  0.00     0.134 C 
ATOM      8  C   UNK d   1      15.675 -55.235  38.038  0.00  0.00     0.124 A 
ATOM      9  N   UNK d   1      16.794 -55.321  37.178  0.00  0.00    -0.340 N 
ATOM     10  N   UNK d   1      15.462 -53.990  38.741  0.00  0.00    -0.308 N 
ATOM     11  C   UNK d   1      17.693 -54.202  37.008  0.00  0.00     0.049 A 
ATOM     12  H   UNK d   1      16.981 -56.194  36.654  0.00  0.00     0.167 HD
ATOM     13  C   UNK d   1      17.510 -53.013  37.667  0.00  0.00     0.060 A 
ATOM     14  C   UNK d   1      18.766 -54.328  36.165  0.00  0.00     0.032 A 
ATOM     15  C   UNK d   1      18.389 -51.964  37.482  0.00  0.00     0.043 A 
ATOM     16  C   UNK d   1      16.361 -52.912  38.556  0.00  0.00     0.259 A 
ATOM     17  C   UNK d   1      19.453 -52.092  36.644  0.00  0.00     0.035 A 
ATOM     18 Cl   UNK d   1      20.608 -50.789  36.369  0.00  0.00    -0.084 Cl
ATOM     19  C   UNK d   1      19.649 -53.280  35.977  0.00  0.00     0.026 A 
ATOM     20  O   UNK d   1      16.194 -51.801  39.167  0.00  0.00    -0.267 OA
ATOM     21  H   UNK d   1      14.650 -53.891  39.382  0.00  0.00     0.170 HD
ENDBRANCH   1   7
BRANCH   4  22
ATOM     22  C   UNK d   1      16.110 -57.558  34.285  0.00  0.00     0.141 A 
ATOM     23  N   UNK d   1      16.329 -56.210  34.509  0.00  0.00    -0.242 NA
ATOM     24  C   UNK d   1      16.789 -55.368  33.586  0.00  0.00     0.119 A 
ATOM     25  C   UNK d   1      17.061 -55.862  32.341  0.00  0.00     0.020 A 
ATOM     26  C   UNK d   1      16.857 -57.188  32.082  0.00  0.00     0.022 A 
ATOM     27  C   UNK d   1      16.372 -58.085  33.056  0.00  0.00     0.077 A 
BRANCH  27  28
ATOM     28  C   UNK d   1      16.200 -59.474  32.759  0.00  0.00     0.253 C 
ATOM     29  O   UNK d   1      15.163 -60.000  32.361  0.00  0.00    -0.268 OA
ATOM     30  N   UNK d   1      17.310 -60.346  32.933  0.00  0.00    -0.366 N 
ATOM     31  H   UNK d   1      18.145 -60.278  32.308  0.00  0.00     0.159 HD
ATOM     32  H   UNK d   1      17.356 -61.083  33.670  0.00  0.00     0.159 HD
ENDBRANCH  27  28
ENDBRANCH   4  22
TORSDOF 3
ENDMDL
