/Users/jonathanwahrer/Desktop/Msc/3_Semester/Drug_Design_Praktikum/waehrer_HTS_screening/HTS_experiment/out/docking_results/vina_output/6s1j/1808_docked.pdbqt
 OpenBabel03222222233D

 24 28  0  0  1  0  0  0  0  0999 V2000
   16.0730  -57.1970   36.1830 N   0  0  0  0  0  0  0  0  0  0  0  0
   16.8040  -58.2270   35.5360 C   0  0  0  0  0  0  0  0  0  0  0  0
   18.0550  -58.2530   35.4440 O   0  0  0  0  0  0  0  0  0  0  0  0
   15.8510  -59.2380   35.0040 C   0  0  2  0  0  3  0  0  0  0  0  0
   15.4980  -58.9850   33.5710 C   0  0  1  0  0  0  0  0  0  0  0  0
   14.1750  -59.4800   33.5430 O   0  0  0  0  0  0  0  0  0  0  0  0
   13.6450  -58.6040   34.5230 C   0  0  1  0  0  3  0  0  0  0  0  0
   14.5220  -58.9130   35.6870 C   0  0  2  0  0  3  0  0  0  0  0  0
   14.7680  -57.6850   36.4900 C   0  0  0  0  0  0  0  0  0  0  0  0
   13.9630  -57.1890   37.2830 O   0  0  0  0  0  0  0  0  0  0  0  0
   14.0730  -57.3040   33.9430 C   0  0  0  0  0  2  0  0  0  0  0  0
   15.2650  -57.5420   33.4050 C   0  0  0  0  0  2  0  0  0  0  0  0
   16.6270  -55.9020   36.4480 C   0  0  0  0  0  0  0  0  0  0  0  0
   17.1740  -55.1310   35.4470 C   0  0  0  0  0  3  0  0  0  0  0  0
   17.7110  -53.8850   35.6890 C   0  0  0  0  0  3  0  0  0  0  0  0
   17.6950  -53.4090   36.9780 C   0  0  0  0  0  0  0  0  0  0  0  0
   18.4270  -51.7000   37.3520 Br  0  0  0  0  0  0  0  0  0  0  0  0
   17.1570  -54.1600   37.9930 C   0  0  0  0  0  3  0  0  0  0  0  0
   16.6110  -55.4220   37.7510 C   0  0  0  0  0  3  0  0  0  0  0  0
   16.3710  -59.6260   32.5790 C   0  0  0  0  0  3  0  0  0  0  0  0
   15.7040  -60.1470   31.5040 O   0  0  0  0  0  0  0  0  0  0  0  0
   15.7700  -61.5160   31.5650 C   0  0  0  0  0  2  0  0  0  0  0  0
   16.5590  -61.8480   32.7880 C   0  0  0  0  0  2  0  0  0  0  0  0
   17.1360  -60.6330   33.1400 O   0  0  0  0  0  0  0  0  0  0  0  0
  1 13  1  0  0  0  0
  1  9  1  0  0  0  0
  2  1  1  0  0  0  0
  3  2  2  0  0  0  0
  4  2  1  1  0  0  0
  4  8  1  0  0  0  0
  5 20  1  6  0  0  0
  5  4  1  0  0  0  0
  6  5  1  0  0  0  0
  6  7  1  0  0  0  0
  7 11  1  6  0  0  0
  7  8  1  0  0  0  0
  8  9  1  1  0  0  0
  9 10  2  0  0  0  0
 12  5  1  0  0  0  0
 12 11  1  0  0  0  0
 13 19  1  0  0  0  0
 14 15  1  0  0  0  0
 14 13  2  0  0  0  0
 15 16  2  0  0  0  0
 16 17  1  0  0  0  0
 16 18  1  0  0  0  0
 19 18  2  0  0  0  0
 20 24  1  0  0  0  0
 21 22  1  0  0  0  0
 21 20  1  0  0  0  0
 22 23  1  0  0  0  0
 23 24  1  0  0  0  0
M  END
>  <Pose>
1

>  <Score>
-8.410

$$$$
