MODEL 1
REMARK VINA RESULT:    -8.410      0.000      0.000
REMARK INTER + INTRA:          -9.909
REMARK INTER:                  -9.394
REMARK INTRA:                  -0.515
REMARK UNBOUND:                -0.515
REMARK  2 active torsions:
REMARK  status: ('A' for Active; 'I' for Inactive)
REMARK    1  A    between atoms: C_5  and  N_8 
REMARK    2  A    between atoms: C_12  and  C_20 
ROOT
ATOM      1  N   UNK d   1      16.073 -57.197  36.183  0.00  0.00    -0.252 N 
ATOM      2  C   UNK d   1      16.804 -58.227  35.536  0.00  0.00     0.239 C 
ATOM      3  O   UNK d   1      18.055 -58.253  35.444  0.00  0.00    -0.272 OA
ATOM      4  C   UNK d   1      15.851 -59.238  35.004  0.00  0.00     0.138 C 
ATOM      5  C   UNK d   1      15.498 -58.985  33.571  0.00  0.00     0.142 C 
ATOM      6  O   UNK d   1      14.175 -59.480  33.543  0.00  0.00    -0.360 OA
ATOM      7  C   UNK d   1      13.645 -58.604  34.523  0.00  0.00     0.160 C 
ATOM      8  C   UNK d   1      14.522 -58.913  35.687  0.00  0.00     0.128 C 
ATOM      9  C   UNK d   1      14.768 -57.685  36.490  0.00  0.00     0.239 C 
ATOM     10  O   UNK d   1      13.963 -57.189  37.283  0.00  0.00    -0.272 OA
ATOM     11  C   UNK d   1      14.073 -57.304  33.943  0.00  0.00     0.005 C 
ATOM     12  C   UNK d   1      15.265 -57.542  33.405  0.00  0.00     0.015 C 
ENDROOT
BRANCH   1  13
ATOM     13  C   UNK d   1      16.627 -55.902  36.448  0.00  0.00     0.045 A 
ATOM     14  C   UNK d   1      17.174 -55.131  35.447  0.00  0.00     0.031 A 
ATOM     15  C   UNK d   1      17.711 -53.885  35.689  0.00  0.00     0.021 A 
ATOM     16  C   UNK d   1      17.695 -53.409  36.978  0.00  0.00     0.011 A 
ATOM     17 Br   UNK d   1      18.427 -51.700  37.352  0.00  0.00    -0.051 Br
ATOM     18  C   UNK d   1      17.157 -54.160  37.993  0.00  0.00     0.021 A 
ATOM     19  C   UNK d   1      16.611 -55.422  37.751  0.00  0.00     0.031 A 
ENDBRANCH   1  13
BRANCH   5  20
ATOM     20  C   UNK d   1      16.371 -59.626  32.579  0.00  0.00     0.298 C 
ATOM     21  O   UNK d   1      15.704 -60.147  31.504  0.00  0.00    -0.356 OA
ATOM     22  C   UNK d   1      15.770 -61.516  31.565  0.00  0.00     0.197 C 
ATOM     23  C   UNK d   1      16.559 -61.848  32.788  0.00  0.00     0.197 C 
ATOM     24  O   UNK d   1      17.136 -60.633  33.140  0.00  0.00    -0.356 OA
ENDBRANCH   5  20
TORSDOF 2
ENDMDL
