MODEL 1
REMARK VINA RESULT:    -9.767      0.000      0.000
REMARK INTER + INTRA:         -13.365
REMARK INTER:                 -12.622
REMARK INTRA:                  -0.742
REMARK UNBOUND:                -0.742
REMARK  5 active torsions:
REMARK  status: ('A' for Active; 'I' for Inactive)
REMARK    1  A    between atoms: S_1  and  N_4 
REMARK    2  A    between atoms: S_1  and  C_26 
REMARK       I    between atoms: N_7  and  C_10 
REMARK    3  A    between atoms: C_10  and  C_12 
REMARK    4  A    between atoms: N_14  and  C_18 
REMARK    5  A    between atoms: C_18  and  C_19 
ROOT
ATOM      1  N   UNK d   1      14.968 -58.469  34.252  0.00  0.00    -0.203 NA
ATOM      2  C   UNK d   1      14.351 -57.437  33.457  0.00  0.00     0.127 C 
ATOM      3  C   UNK d   1      15.452 -56.571  32.890  0.00  0.00     0.141 C 
ATOM      4  N   UNK d   1      16.722 -57.219  33.092  0.00  0.00    -0.349 N 
ATOM      5  C   UNK d   1      16.891 -58.653  32.886  0.00  0.00     0.141 C 
ATOM      6  C   UNK d   1      15.628 -59.387  33.346  0.00  0.00     0.127 C 
ATOM      7  C   UNK d   1      17.834 -56.465  33.508  0.00  0.00     0.226 C 
ATOM      8  O   UNK d   1      18.964 -57.050  33.643  0.00  0.00    -0.273 OA
ENDROOT
BRANCH   7   9
ATOM      9  C   UNK d   1      17.699 -55.010  33.790  0.00  0.00     0.105 C 
ATOM     10  C   UNK d   1      17.597 -54.710  35.258  0.00  0.00     0.140 C 
ATOM     11  N   UNK d   1      18.908 -54.196  35.643  0.00  0.00    -0.347 N 
ATOM     12  C   UNK d   1      19.784 -54.242  34.533  0.00  0.00     0.221 C 
ATOM     13  O   UNK d   1      21.036 -54.267  34.614  0.00  0.00    -0.273 OA
ATOM     14  C   UNK d   1      18.915 -54.250  33.337  0.00  0.00     0.118 C 
BRANCH  11  15
ATOM     15  C   UNK d   1      19.246 -53.720  36.965  0.00  0.00     0.166 C 
BRANCH  15  16
ATOM     16  C   UNK d   1      18.044 -53.550  37.815  0.00  0.00    -0.018 A 
ATOM     17  C   UNK d   1      17.562 -52.272  38.057  0.00  0.00     0.042 A 
ATOM     18  C   UNK d   1      16.446 -52.035  38.841  0.00  0.00     0.024 A 
ATOM     19 Cl   UNK d   1      18.405 -50.926  37.340  0.00  0.00    -0.084 Cl
ATOM     20  C   UNK d   1      15.814 -53.134  39.387  0.00  0.00     0.002 A 
ATOM     21  C   UNK d   1      16.268 -54.423  39.165  0.00  0.00     0.001 A 
ATOM     22  C   UNK d   1      17.394 -54.631  38.371  0.00  0.00     0.010 A 
ENDBRANCH  15  16
ENDBRANCH  11  15
ENDBRANCH   7   9
BRANCH   1  23
ATOM     23  S   UNK d   1      13.817 -59.262  35.252  0.00  0.00     0.248 S 
ATOM     24  O   UNK d   1      13.973 -60.755  35.200  0.00  0.00    -0.206 OA
ATOM     25  O   UNK d   1      12.454 -58.969  34.662  0.00  0.00    -0.206 OA
BRANCH  23  26
ATOM     26  C   UNK d   1      13.863 -58.663  36.882  0.00  0.00     0.132 A 
ATOM     27  C   UNK d   1      12.917 -58.698  37.882  0.00  0.00     0.083 A 
ATOM     28  N   UNK d   1      13.451 -58.076  38.978  0.00  0.00    -0.132 NA
ATOM     29  C   UNK d   1      11.579 -59.310  37.767  0.00  0.00     0.074 C 
ATOM     30  O   UNK d   1      14.632 -57.693  38.669  0.00  0.00    -0.216 OA
ATOM     31  C   UNK d   1      14.946 -58.007  37.435  0.00  0.00     0.100 A 
ATOM     32  C   UNK d   1      16.251 -57.685  36.817  0.00  0.00     0.081 C 
ENDBRANCH  23  26
ENDBRANCH   1  23
TORSDOF 5
ENDMDL
