MODEL 1
REMARK VINA RESULT:   -10.189      0.000      0.000
REMARK INTER + INTRA:         -13.156
REMARK INTER:                 -12.572
REMARK INTRA:                  -0.585
REMARK UNBOUND:                -0.585
REMARK  4 active torsions:
REMARK  status: ('A' for Active; 'I' for Inactive)
REMARK    1  A    between atoms: C_7  and  O_8 
REMARK    2  A    between atoms: C_13  and  C_16 
REMARK    3  A    between atoms: C_16  and  C_17 
REMARK       I    between atoms: C_17  and  N_19 
REMARK       I    between atoms: N_22  and  C_25 
REMARK    4  A    between atoms: C_25  and  C_27 
ROOT
ATOM      1  C   UNK d   1      13.893 -58.695  34.037  0.00  0.00     0.224 C 
ATOM      2  O   UNK d   1      13.294 -57.666  33.569  0.00  0.00    -0.273 OA
ATOM      3  N   UNK d   1      13.120 -59.664  34.652  0.00  0.00    -0.349 N 
ATOM      4  C   UNK d   1      11.700 -59.567  34.788  0.00  0.00     0.145 C 
ATOM      5  C   UNK d   1      11.369 -59.600  36.282  0.00  0.00     0.145 C 
ATOM      6  N   UNK d   1      11.928 -60.772  36.865  0.00  0.00    -0.355 N 
ATOM      7  C   UNK d   1      12.703 -61.653  35.965  0.00  0.00     0.145 C 
ATOM      8  C   UNK d   1      13.733 -60.852  35.200  0.00  0.00     0.145 C 
ATOM      9  C   UNK d   1      11.811 -61.154  38.218  0.00  0.00     0.204 C 
ATOM     10  O   UNK d   1      12.421 -62.302  38.497  0.00  0.00    -0.170 OA
ENDROOT
BRANCH   1  11
ATOM     11  C   UNK d   1      15.372 -58.756  33.875  0.00  0.00     0.148 C 
BRANCH  11  12
ATOM     12  C   UNK d   1      16.015 -57.494  34.308  0.00  0.00     0.033 A 
ATOM     13  C   UNK d   1      16.418 -56.555  33.360  0.00  0.00     0.295 A 
ATOM     14  O   UNK d   1      16.990 -55.422  33.685  0.00  0.00    -0.274 OA
ATOM     15  O   UNK d   1      16.199 -56.854  32.138  0.00  0.00    -0.259 OA
ATOM     16  C   UNK d   1      17.231 -55.078  34.927  0.00  0.00     0.093 A 
ATOM     17  C   UNK d   1      16.873 -55.934  35.943  0.00  0.00     0.006 A 
ATOM     18  C   UNK d   1      17.846 -53.859  35.243  0.00  0.00     0.076 A 
ATOM     19  C   UNK d   1      17.132 -55.560  37.239  0.00  0.00     0.041 A 
ATOM     20  C   UNK d   1      16.260 -57.148  35.617  0.00  0.00    -0.036 A 
ATOM     21  C   UNK d   1      17.743 -54.349  37.549  0.00  0.00     0.068 A 
ATOM     22 Cl   UNK d   1      18.076 -53.871  39.198  0.00  0.00    -0.081 Cl
ATOM     23  C   UNK d   1      18.106 -53.485  36.542  0.00  0.00     0.092 A 
ATOM     24  C   UNK d   1      15.880 -58.047  36.702  0.00  0.00     0.050 C 
BRANCH  23  25
ATOM     25  O   UNK d   1      18.724 -52.259  36.850  0.00  0.00    -0.354 OA
ATOM     26  C   UNK d   1      19.892 -51.829  36.195  0.00  0.00     0.210 C 
ENDBRANCH  23  25
ENDBRANCH  11  12
ENDBRANCH   1  11
BRANCH   9  27
ATOM     27  C   UNK d   1      11.161 -60.536  39.334  0.00  0.00     0.095 A 
ATOM     28  C   UNK d   1      11.706 -60.696  40.633  0.00  0.00     0.108 A 
ATOM     29  C   UNK d   1      11.112 -60.125  41.726  0.00  0.00     0.253 A 
ATOM     30  O   UNK d   1      11.617 -60.283  42.869  0.00  0.00    -0.268 OA
ATOM     31  N   UNK d   1       9.994 -59.392  41.641  0.00  0.00    -0.271 N 
ATOM     32  C   UNK d   1       9.480 -59.242  40.420  0.00  0.00     0.329 A 
ATOM     33  C   UNK d   1       9.379 -58.800  42.807  0.00  0.00     0.164 C 
ATOM     34  O   UNK d   1       8.416 -58.553  40.285  0.00  0.00    -0.246 OA
ATOM     35  N   UNK d   1      10.054 -59.803  39.298  0.00  0.00    -0.304 N 
ATOM     36  H   UNK d   1       9.577 -59.622  38.393  0.00  0.00     0.171 HD
ENDBRANCH   9  27
TORSDOF 4
ENDMDL
