/Users/jonathanwahrer/Desktop/Msc/3_Semester/Drug_Design_Praktikum/waehrer_HTS_screening/HTS_experiment/out/docking_results/vina_output/6s1j/1822_docked.pdbqt
 OpenBabel03222222243D

 24 27  0  0  1  0  0  0  0  0999 V2000
   14.6970  -60.6350   31.9650 Cl  0  0  0  0  0  0  0  0  0  0  0  0
   14.9480  -59.7710   33.4780 C   0  0  0  0  0  0  0  0  0  0  0  0
   14.3730  -60.2760   34.6230 C   0  0  0  0  0  0  0  0  0  0  0  0
   14.5710  -59.6100   35.7710 N   0  0  0  0  0  0  0  0  0  0  0  0
   15.3100  -58.4720   35.8420 C   0  0  0  0  0  0  0  0  0  0  0  0
   15.8770  -57.9710   34.7310 N   0  0  0  0  0  0  0  0  0  0  0  0
   16.5410  -56.8650   35.0520 N   0  0  0  0  0  0  0  0  0  0  0  0
   16.4240  -56.6200   36.3730 C   0  0  0  0  0  0  0  0  0  0  0  0
   15.6540  -57.6360   36.8380 N   0  0  0  0  0  0  0  0  0  0  0  0
   15.6970  -58.6180   33.5540 C   0  0  0  0  0  0  0  0  0  0  0  0
   16.2330  -58.1460   32.5010 O   0  0  0  0  0  0  0  0  0  0  0  0
   13.5530  -61.5330   34.5620 C   0  0  0  0  0  1  0  0  0  0  0  0
   14.1360  -59.9880   36.6460 H   0  0  0  0  0  0  0  0  0  0  0  0
   16.9820  -55.5390   37.1160 N   0  0  0  0  0  0  0  0  0  0  0  0
   18.1900  -54.8550   36.8130 C   0  0  0  0  0  0  0  0  0  0  0  0
   18.8060  -54.8110   35.7170 O   0  0  0  0  0  0  0  0  0  0  0  0
   18.6730  -54.1420   38.0440 C   0  0  2  0  0  3  0  0  0  0  0  0
   17.5370  -54.1850   39.0030 C   0  0  1  0  0  3  0  0  0  0  0  0
   19.0140  -52.7140   37.6770 C   0  0  0  0  0  2  0  0  0  0  0  0
   16.9560  -52.8260   39.3500 C   0  0  0  0  0  2  0  0  0  0  0  0
   16.4760  -54.9190   38.2880 C   0  0  0  0  0  0  0  0  0  0  0  0
   16.7150  -52.1230   38.0480 C   0  0  0  0  0  3  0  0  0  0  0  0
   17.7510  -52.0790   37.2310 C   0  0  0  0  0  3  0  0  0  0  0  0
   15.2600  -54.9980   38.6610 O   0  0  0  0  0  0  0  0  0  0  0  0
  1  2  1  0  0  0  0
  2 10  1  0  0  0  0
  2  3  2  0  0  0  0
  3  4  1  0  0  0  0
  4  5  1  0  0  0  0
  4 13  1  0  0  0  0
  5  9  2  0  0  0  0
  6  7  1  0  0  0  0
  6  5  1  0  0  0  0
  7  8  2  0  0  0  0
  8  9  1  0  0  0  0
  8 14  1  0  0  0  0
 10  6  1  0  0  0  0
 11 10  2  0  0  0  0
 12  3  1  0  0  0  0
 14 21  1  0  0  0  0
 15 14  1  0  0  0  0
 15 17  1  0  0  0  0
 16 15  2  0  0  0  0
 17 19  1  6  0  0  0
 17 18  1  0  0  0  0
 18 20  1  6  0  0  0
 21 24  2  0  0  0  0
 21 18  1  0  0  0  0
 22 20  1  0  0  0  0
 23 19  1  0  0  0  0
 23 22  2  0  0  0  0
M  END
>  <Pose>
1

>  <Score>
-9.809

$$$$
