MODEL 1
REMARK VINA RESULT:    -9.809      0.000      0.000
REMARK INTER + INTRA:         -10.534
REMARK INTER:                 -10.382
REMARK INTRA:                  -0.152
REMARK UNBOUND:                -0.152
REMARK  1 active torsions:
REMARK  status: ('A' for Active; 'I' for Inactive)
REMARK    1  A    between atoms: C_8  and  N_10 
ROOT
ATOM      1 Cl   UNK d   1      14.697 -60.635  31.965  0.00  0.00    -0.076 Cl
ATOM      2  C   UNK d   1      14.948 -59.771  33.478  0.00  0.00     0.127 A 
ATOM      3  C   UNK d   1      14.373 -60.276  34.623  0.00  0.00     0.050 A 
ATOM      4  N   UNK d   1      14.571 -59.610  35.771  0.00  0.00    -0.190 N 
ATOM      5  C   UNK d   1      15.310 -58.472  35.842  0.00  0.00     0.747 A 
ATOM      6  N   UNK d   1      15.877 -57.971  34.731  0.00  0.00    -0.005 N 
ATOM      7  N   UNK d   1      16.541 -56.865  35.052  0.00  0.00     0.046 NA
ATOM      8  C   UNK d   1      16.424 -56.620  36.373  0.00  0.00     0.772 A 
ATOM      9  N   UNK d   1      15.654 -57.636  36.838  0.00  0.00     0.133 NA
ATOM     10  C   UNK d   1      15.697 -58.618  33.554  0.00  0.00     0.308 A 
ATOM     11  O   UNK d   1      16.233 -58.146  32.501  0.00  0.00    -0.264 OA
ATOM     12  C   UNK d   1      13.553 -61.533  34.562  0.00  0.00     0.071 C 
ATOM     13  H   UNK d   1      14.136 -59.988  36.646  0.00  0.00     0.184 HD
ENDROOT
BRANCH   8  14
ATOM     14  N   UNK d   1      16.982 -55.539  37.116  0.00  0.00    -0.076 N 
ATOM     15  C   UNK d   1      18.190 -54.855  36.813  0.00  0.00     0.251 C 
ATOM     16  O   UNK d   1      18.806 -54.811  35.717  0.00  0.00    -0.272 OA
ATOM     17  C   UNK d   1      18.673 -54.142  38.044  0.00  0.00     0.096 C 
ATOM     18  C   UNK d   1      17.537 -54.185  39.003  0.00  0.00     0.096 C 
ATOM     19  C   UNK d   1      19.014 -52.714  37.677  0.00  0.00     0.042 C 
ATOM     20  C   UNK d   1      16.956 -52.826  39.350  0.00  0.00     0.042 C 
ATOM     21  C   UNK d   1      16.476 -54.919  38.288  0.00  0.00     0.251 C 
ATOM     22  C   UNK d   1      16.715 -52.123  38.048  0.00  0.00    -0.030 C 
ATOM     23  C   UNK d   1      17.751 -52.079  37.231  0.00  0.00    -0.030 C 
ATOM     24  O   UNK d   1      15.260 -54.998  38.661  0.00  0.00    -0.272 OA
ENDBRANCH   8  14
TORSDOF 1
ENDMDL
