/Users/jonathanwahrer/Desktop/Msc/3_Semester/Drug_Design_Praktikum/waehrer_HTS_screening/HTS_experiment/out/docking_results/vina_output/6s1j/1850_docked.pdbqt
 OpenBabel03222222263D

 24 27  0  0  0  0  0  0  0  0999 V2000
   13.2130  -57.4880   33.7830 Cl  0  0  0  0  0  0  0  0  0  0  0  0
   14.5320  -57.7710   34.9100 C   0  0  0  0  0  0  0  0  0  0  0  0
   15.8030  -57.3090   34.6320 C   0  0  0  0  0  0  0  0  0  0  0  0
   16.8290  -57.5280   35.5070 C   0  0  0  0  0  0  0  0  0  0  0  0
   16.5620  -58.2200   36.6670 C   0  0  0  0  0  3  0  0  0  0  0  0
   15.3020  -58.6900   36.9650 C   0  0  0  0  0  3  0  0  0  0  0  0
   14.2730  -58.4630   36.0740 C   0  0  0  0  0  3  0  0  0  0  0  0
   18.2180  -57.0640   35.2790 C   0  0  0  0  0  2  0  0  0  0  0  0
   18.1970  -56.2140   34.1140 N   0  0  0  0  0  0  0  0  0  0  0  0
   17.4600  -56.6960   32.9700 C   0  0  0  0  0  2  0  0  0  0  0  0
   15.9790  -56.5730   33.3460 C   0  0  0  0  0  2  0  0  0  0  0  0
   18.8570  -54.9630   34.0670 C   0  0  0  0  0  0  0  0  0  0  0  0
   18.7990  -54.2690   33.0180 O   0  0  0  0  0  0  0  0  0  0  0  0
   19.6300  -54.4070   35.2020 C   0  0  0  0  0  2  0  0  0  0  0  0
   19.0810  -53.2200   35.6840 O   0  0  0  0  0  0  0  0  0  0  0  0
   18.1560  -53.1530   36.7180 C   0  0  0  0  0  0  0  0  0  0  0  0
   17.3780  -54.2220   36.9750 N   0  0  0  0  0  0  0  0  0  0  0  0
   16.4740  -54.2210   37.9510 N   0  0  0  0  0  0  0  0  0  0  0  0
   16.2770  -53.1590   38.7430 C   0  0  0  0  0  0  0  0  0  0  0  0
   15.6170  -55.1760   38.3550 C   0  0  0  0  0  3  0  0  0  0  0  0
   15.3070  -53.4460   39.6330 N   0  0  0  0  0  0  0  0  0  0  0  0
   17.0620  -52.0360   38.5070 C   0  0  0  0  0  3  0  0  0  0  0  0
   14.9170  -54.6720   39.3850 N   0  0  0  0  0  0  0  0  0  0  0  0
   17.9970  -52.0360   37.4990 C   0  0  0  0  0  3  0  0  0  0  0  0
  1  2  1  0  0  0  0
  2  7  1  0  0  0  0
  3  2  2  0  0  0  0
  3  4  1  0  0  0  0
  4  5  2  0  0  0  0
  5  6  1  0  0  0  0
  7  6  2  0  0  0  0
  8  4  1  0  0  0  0
  9  8  1  0  0  0  0
 10 11  1  0  0  0  0
 10  9  1  0  0  0  0
 11  3  1  0  0  0  0
 12  9  1  0  0  0  0
 12 14  1  0  0  0  0
 13 12  2  0  0  0  0
 14 15  1  0  0  0  0
 15 16  1  0  0  0  0
 16 17  2  0  0  0  0
 16 24  1  0  0  0  0
 17 18  1  0  0  0  0
 18 20  1  0  0  0  0
 18 19  1  0  0  0  0
 19 21  2  0  0  0  0
 20 23  2  0  0  0  0
 22 19  1  0  0  0  0
 23 21  1  0  0  0  0
 24 22  2  0  0  0  0
M  END
>  <Pose>
1

>  <Score>
-9.205

$$$$
