/Users/jonathanwahrer/Desktop/Msc/3_Semester/Drug_Design_Praktikum/waehrer_HTS_screening/HTS_experiment/out/docking_results/vina_output/6s1j/1852_docked.pdbqt
 OpenBabel03222222263D

 26 29  0  0  1  0  0  0  0  0999 V2000
   17.4380  -52.7190   37.1860 N   0  0  0  0  0  0  0  0  0  0  0  0
   17.6980  -53.5640   36.0630 C   0  0  0  0  0  2  0  0  0  0  0  0
   19.0180  -53.1230   35.4530 C   0  0  1  0  0  3  0  0  0  0  0  0
   19.7300  -52.5330   36.6520 C   0  0  0  0  0  2  0  0  0  0  0  0
   18.5600  -51.8550   37.3750 C   0  0  0  0  0  2  0  0  0  0  0  0
   17.0210  -53.6070   38.6000 S   0  0  0  0  0  0  0  0  0  0  0  0
   16.3010  -52.7270   39.5640 O   0  0  0  0  0  0  0  0  0  0  0  0
   18.3040  -54.0760   39.2360 O   0  0  0  0  0  0  0  0  0  0  0  0
   16.0370  -55.0020   38.2230 C   0  0  0  0  0  0  0  0  0  0  0  0
   16.4970  -55.9660   37.3480 C   0  0  0  0  0  3  0  0  0  0  0  0
   15.7570  -57.0880   37.0160 C   0  0  0  0  0  0  0  0  0  0  0  0
   14.5040  -57.2740   37.5700 C   0  0  0  0  0  0  0  0  0  0  0  0
   16.2050  -58.0550   36.1460 O   0  0  0  0  0  0  0  0  0  0  0  0
   14.0540  -56.3120   38.4380 C   0  0  0  0  0  3  0  0  0  0  0  0
   13.7980  -58.4110   37.2110 O   0  0  0  0  0  0  0  0  0  0  0  0
   14.7880  -55.1940   38.7720 C   0  0  0  0  0  3  0  0  0  0  0  0
   14.0050  -59.1060   35.9940 C   0  0  0  0  0  2  0  0  0  0  0  0
   15.4170  -59.0010   35.4840 C   0  0  0  0  0  2  0  0  0  0  0  0
   19.7160  -54.2890   35.0510 O   0  0  0  0  0  0  0  0  0  0  0  0
   19.2340  -55.1310   34.0620 C   0  0  0  0  0  0  0  0  0  0  0  0
   19.2410  -54.6250   32.7940 N   0  0  0  0  0  0  0  0  0  0  0  0
   18.7800  -55.4190   31.8140 C   0  0  0  0  0  3  0  0  0  0  0  0
   18.3120  -56.6960   32.0500 C   0  0  0  0  0  0  0  0  0  0  0  0
   18.3280  -57.1550   33.3540 C   0  0  0  0  0  2  0  0  0  0  0  0
   17.7120  -57.7190   30.7610 Cl  0  0  0  0  0  0  0  0  0  0  0  0
   18.7930  -56.3570   34.3390 N   0  0  0  0  0  0  0  0  0  0  0  0
  1  5  1  0  0  0  0
  1  6  1  0  0  0  0
  2  1  1  0  0  0  0
  3 19  1  1  0  0  0
  3  2  1  0  0  0  0
  3  4  1  0  0  0  0
  4  5  1  0  0  0  0
  6  8  2  0  0  0  0
  6  7  2  0  0  0  0
  9  6  1  0  0  0  0
  9 16  1  0  0  0  0
 10  9  2  0  0  0  0
 11 10  1  0  0  0  0
 11 12  2  0  0  0  0
 12 14  1  0  0  0  0
 13 11  1  0  0  0  0
 14 16  2  0  0  0  0
 15 12  1  0  0  0  0
 17 15  1  0  0  0  0
 18 17  1  0  0  0  0
 18 13  1  0  0  0  0
 20 26  2  0  0  0  0
 20 19  1  0  0  0  0
 21 20  2  0  0  0  0
 22 23  2  0  0  0  0
 22 21  1  0  0  0  0
 23 24  1  0  0  0  0
 24 26  1  0  0  0  0
 25 23  1  0  0  0  0
M  END
>  <Pose>
1

>  <Score>
-8.818

$$$$
