/Users/jonathanwahrer/Desktop/Msc/3_Semester/Drug_Design_Praktikum/waehrer_HTS_screening/HTS_experiment/out/docking_results/vina_output/6s1j/1856_docked.pdbqt
 OpenBabel03222222263D

 31 34  0  0  0  0  0  0  0  0999 V2000
   13.7520  -57.2800   38.3930 C   0  0  0  0  0  0  0  0  0  0  0  0
   14.1150  -57.3960   37.1070 N   0  0  0  0  0  4  0  0  0  0  0  0
   13.8850  -58.5010   36.3510 C   0  0  0  0  0  0  0  0  0  0  0  0
   13.2450  -59.5140   36.9950 N   0  0  0  0  0  0  0  0  0  0  0  0
   12.8590  -59.4560   38.2780 C   0  0  0  0  0  0  0  0  0  0  0  0
   13.1200  -58.3410   38.9490 N   0  0  0  0  0  2  0  0  0  0  0  0
   14.0160  -56.1020   39.1420 N   0  0  0  0  0  0  0  0  0  0  0  0
   13.6650  -55.9910   40.1130 H   0  0  0  0  0  0  0  0  0  0  0  0
   14.7580  -55.0510   38.6000 N   0  0  0  0  0  0  0  0  0  0  0  0
   16.0660  -55.0980   38.7300 C   0  0  0  0  0  3  0  0  0  0  0  0
   16.8780  -54.0230   38.1800 C   0  0  0  0  0  0  0  0  0  0  0  0
   17.8190  -54.3130   37.1810 C   0  0  0  0  0  3  0  0  0  0  0  0
   18.5890  -53.3200   36.6530 C   0  0  0  0  0  0  0  0  0  0  0  0
   19.8700  -53.7090   35.2950 Br  0  0  0  0  0  0  0  0  0  0  0  0
   18.4610  -52.0180   37.0840 C   0  0  0  0  0  3  0  0  0  0  0  0
   17.5470  -51.7100   38.0590 C   0  0  0  0  0  3  0  0  0  0  0  0
   16.7520  -52.7290   38.6070 C   0  0  0  0  0  0  0  0  0  0  0  0
   15.8420  -52.3860   39.5880 O   0  0  0  0  0  0  0  0  0  0  0  0
   14.8990  -52.1030   39.4150 H   0  0  0  0  0  0  0  0  0  0  0  0
   14.2780  -58.5900   35.0020 N   0  0  0  0  0  0  0  0  0  0  0  0
   13.8300  -57.6220   34.0470 C   0  0  0  0  0  2  0  0  0  0  0  0
   15.0660  -57.0710   33.3550 C   0  0  0  0  0  2  0  0  0  0  0  0
   15.7210  -58.1610   32.7640 O   0  0  0  0  0  0  0  0  0  0  0  0
   16.2610  -58.9890   33.7490 C   0  0  0  0  0  2  0  0  0  0  0  0
   15.1330  -59.6470   34.5520 C   0  0  0  0  0  2  0  0  0  0  0  0
   12.1970  -60.5490   38.8850 N   0  0  0  0  0  0  0  0  0  0  0  0
   11.7730  -60.5490   40.2700 C   0  0  0  0  0  2  0  0  0  0  0  0
   10.5410  -61.4140   40.4270 C   0  0  0  0  0  2  0  0  0  0  0  0
   10.7110  -62.7000   39.9910 O   0  0  0  0  0  0  0  0  0  0  0  0
   11.8330  -62.8780   39.1920 C   0  0  0  0  0  2  0  0  0  0  0  0
   11.8910  -61.7740   38.1400 C   0  0  0  0  0  2  0  0  0  0  0  0
  1  6  1  0  0  0  0
  1  7  1  0  0  0  0
  2  1  2  0  0  0  0
  3  4  1  0  0  0  0
  3  2  2  0  0  0  0
  4  5  2  0  0  0  0
  5 26  1  0  0  0  0
  5  6  1  0  0  0  0
  7  8  1  0  0  0  0
  9 10  2  0  0  0  0
  9  7  1  0  0  0  0
 11 17  1  0  0  0  0
 11 10  1  0  0  0  0
 12 11  2  0  0  0  0
 13 15  2  0  0  0  0
 13 12  1  0  0  0  0
 14 13  1  0  0  0  0
 15 16  1  0  0  0  0
 16 17  2  0  0  0  0
 17 18  1  0  0  0  0
 19 18  1  0  0  0  0
 20  3  1  0  0  0  0
 21 20  1  0  0  0  0
 22 21  1  0  0  0  0
 23 22  1  0  0  0  0
 23 24  1  0  0  0  0
 24 25  1  0  0  0  0
 25 20  1  0  0  0  0
 26 27  1  0  0  0  0
 27 28  1  0  0  0  0
 29 28  1  0  0  0  0
 30 29  1  0  0  0  0
 31 26  1  0  0  0  0
 31 30  1  0  0  0  0
M  END
>  <Pose>
1

>  <Score>
-9.511

$$$$
