/Users/jonathanwahrer/Desktop/Msc/3_Semester/Drug_Design_Praktikum/waehrer_HTS_screening/HTS_experiment/out/docking_results/vina_output/6s1j/1871_docked.pdbqt
 OpenBabel03222222273D

 28 31  0  0  1  0  0  0  0  0999 V2000
   19.0670  -54.5680   37.1540 C   0  0  2  0  0  0  0  0  0  0  0  0
   18.0310  -55.2940   36.5300 N   0  0  0  0  0  4  0  0  0  0  0  0
   16.8700  -55.2720   37.3160 C   0  0  0  0  0  0  0  0  0  0  0  0
   15.6650  -55.7820   37.3770 C   0  0  0  0  0  3  0  0  0  0  0  0
   14.7370  -55.4380   38.4610 C   0  0  0  0  0  3  0  0  0  0  0  0
   14.9840  -54.2710   39.2990 C   0  0  0  0  0  3  0  0  0  0  0  0
   16.2930  -53.5620   39.0520 C   0  0  0  0  0  2  0  0  0  0  0  0
   17.2390  -54.4240   38.4400 N   0  0  0  0  0  0  0  0  0  0  0  0
   18.6480  -54.7510   38.6230 C   0  0  2  0  0  3  0  0  0  0  0  0
   19.2810  -53.8390   39.5880 C   0  0  0  0  0  1  0  0  0  0  0  0
   18.3600  -56.3460   36.7160 H   0  0  0  0  0  0  0  0  0  0  0  0
   19.2040  -53.1430   36.8620 C   0  0  0  0  0  0  0  0  0  0  0  0
   20.1410  -52.7200   35.9560 C   0  0  0  0  0  3  0  0  0  0  0  0
   20.3240  -51.3720   35.6570 C   0  0  0  0  0  3  0  0  0  0  0  0
   19.5260  -50.4390   36.3050 C   0  0  0  0  0  0  0  0  0  0  0  0
   19.6810  -48.7190   35.9990 Cl  0  0  0  0  0  0  0  0  0  0  0  0
   18.5860  -50.8810   37.2150 C   0  0  0  0  0  3  0  0  0  0  0  0
   18.4050  -52.2170   37.5100 C   0  0  0  0  0  3  0  0  0  0  0  0
   20.2580  -55.2450   37.0280 O   0  0  0  0  0  0  0  0  0  0  0  0
   20.9230  -54.8630   36.4260 H   0  0  0  0  0  0  0  0  0  0  0  0
   17.9860  -55.3050   35.1400 C   0  0  0  0  0  0  0  0  0  0  0  0
   18.7820  -56.2340   34.4900 C   0  0  0  0  0  3  0  0  0  0  0  0
   18.8380  -56.3410   33.1210 C   0  0  0  0  0  3  0  0  0  0  0  0
   18.0860  -55.5090   32.2850 C   0  0  0  0  0  0  0  0  0  0  0  0
   17.3090  -54.5980   32.9550 C   0  0  0  0  0  3  0  0  0  0  0  0
   17.2580  -54.4970   34.3240 C   0  0  0  0  0  3  0  0  0  0  0  0
   18.1470  -55.6280   30.9100 O   0  0  0  0  0  0  0  0  0  0  0  0
   18.0760  -56.9020   30.3200 C   0  0  0  0  0  1  0  0  0  0  0  0
  1 19  1  6  0  0  0
  1  9  1  0  0  0  0
  2 11  1  0  0  0  0
  2  1  1  0  0  0  0
  2  3  1  0  0  0  0
  3  4  2  0  0  0  0
  3  8  1  0  0  0  0
  4  5  1  0  0  0  0
  5  6  2  0  0  0  0
  7  6  1  0  0  0  0
  8  9  1  0  0  0  0
  8  7  1  0  0  0  0
  9 10  1  1  0  0  0
 12  1  1  0  0  0  0
 12 18  1  0  0  0  0
 13 12  2  0  0  0  0
 14 13  1  0  0  0  0
 14 15  2  0  0  0  0
 15 17  1  0  0  0  0
 16 15  1  0  0  0  0
 17 18  2  0  0  0  0
 20 19  1  0  0  0  0
 21  2  1  0  0  0  0
 22 21  1  0  0  0  0
 23 22  2  0  0  0  0
 24 25  2  0  0  0  0
 24 23  1  0  0  0  0
 25 26  1  0  0  0  0
 26 21  2  0  0  0  0
 27 24  1  0  0  0  0
 28 27  1  0  0  0  0
M  END
>  <Pose>
1

>  <Score>
-7.474

$$$$
