MODEL 1
REMARK VINA RESULT:    -7.474      0.000      0.000
REMARK INTER + INTRA:          -7.791
REMARK INTER:                  -9.003
REMARK INTRA:                   1.212
REMARK UNBOUND:                 1.212
REMARK  4 active torsions:
REMARK  status: ('A' for Active; 'I' for Inactive)
REMARK    1  A    between atoms: C_5  and  C_8 
REMARK    2  A    between atoms: C_8  and  O_26 
REMARK    3  A    between atoms: N_9  and  C_18 
REMARK    4  A    between atoms: C_21  and  O_24 
ROOT
ATOM      1  C   UNK d   1      19.067 -54.568  37.154  0.00  0.00     0.287 C 
ATOM      2  N   UNK d   1      18.031 -55.294  36.530  0.00  0.00     0.042 N 
ATOM      3  C   UNK d   1      16.870 -55.272  37.316  0.00  0.00     0.210 C 
ATOM      4  C   UNK d   1      15.665 -55.782  37.377  0.00  0.00     0.030 C 
ATOM      5  C   UNK d   1      14.737 -55.438  38.461  0.00  0.00     0.032 C 
ATOM      6  C   UNK d   1      14.984 -54.271  39.299  0.00  0.00     0.024 C 
ATOM      7  C   UNK d   1      16.293 -53.562  39.052  0.00  0.00     0.125 C 
ATOM      8  N   UNK d   1      17.239 -54.424  38.440  0.00  0.00    -0.351 N 
ATOM      9  C   UNK d   1      18.648 -54.751  38.623  0.00  0.00     0.151 C 
ATOM     10  C   UNK d   1      19.281 -53.839  39.588  0.00  0.00     0.038 C 
ATOM     11  H   UNK d   1      18.360 -56.346  36.716  0.00  0.00     0.299 HD
ENDROOT
BRANCH   1  12
ATOM     12  C   UNK d   1      19.204 -53.143  36.862  0.00  0.00     0.008 A 
ATOM     13  C   UNK d   1      20.141 -52.720  35.956  0.00  0.00     0.014 A 
ATOM     14  C   UNK d   1      20.324 -51.372  35.657  0.00  0.00     0.024 A 
ATOM     15  C   UNK d   1      19.526 -50.439  36.305  0.00  0.00     0.034 A 
ATOM     16 Cl   UNK d   1      19.681 -48.719  35.999  0.00  0.00    -0.084 Cl
ATOM     17  C   UNK d   1      18.586 -50.881  37.215  0.00  0.00     0.024 A 
ATOM     18  C   UNK d   1      18.405 -52.217  37.510  0.00  0.00     0.014 A 
ENDBRANCH   1  12
BRANCH   1  19
ATOM     19  O   UNK d   1      20.258 -55.245  37.028  0.00  0.00    -0.359 OA
ATOM     20  H   UNK d   1      20.923 -54.863  36.426  0.00  0.00     0.213 HD
ENDBRANCH   1  19
BRANCH   2  21
ATOM     21  C   UNK d   1      17.986 -55.305  35.140  0.00  0.00     0.146 A 
ATOM     22  C   UNK d   1      18.782 -56.234  34.490  0.00  0.00     0.041 A 
ATOM     23  C   UNK d   1      18.838 -56.341  33.121  0.00  0.00     0.039 A 
ATOM     24  C   UNK d   1      18.086 -55.509  32.285  0.00  0.00     0.068 A 
ATOM     25  C   UNK d   1      17.309 -54.598  32.955  0.00  0.00     0.039 A 
ATOM     26  C   UNK d   1      17.258 -54.497  34.324  0.00  0.00     0.041 A 
BRANCH  24  27
ATOM     27  O   UNK d   1      18.147 -55.628  30.910  0.00  0.00    -0.356 OA
ATOM     28  C   UNK d   1      18.076 -56.902  30.320  0.00  0.00     0.210 C 
ENDBRANCH  24  27
ENDBRANCH   2  21
TORSDOF 4
ENDMDL
