/Users/jonathanwahrer/Desktop/Msc/3_Semester/Drug_Design_Praktikum/waehrer_HTS_screening/HTS_experiment/out/docking_results/vina_output/6s1j/1893_docked.pdbqt
 OpenBabel03222222273D

 28 31  0  0  0  0  0  0  0  0999 V2000
   16.3910  -57.1550   34.0070 N   0  0  0  0  0  0  0  0  0  0  0  0
   17.1540  -56.6050   34.9810 C   0  0  0  0  0  0  0  0  0  0  0  0
   16.9970  -56.8300   36.2090 O   0  0  0  0  0  0  0  0  0  0  0  0
   18.1190  -55.7700   34.4420 C   0  0  0  0  0  0  0  0  0  0  0  0
   17.9440  -55.8090   33.1310 C   0  0  0  0  0  0  0  0  0  0  0  0
   18.8860  -54.9950   32.6090 N   0  0  0  0  0  0  0  0  0  0  0  0
   19.6110  -54.4770   33.6100 N   0  0  0  0  0  0  0  0  0  0  0  0
   19.1420  -54.9530   34.7510 N   0  0  0  0  0  0  0  0  0  0  0  0
   16.8880  -56.6550   32.8630 C   0  0  0  0  0  0  0  0  0  0  0  0
   16.4750  -56.9030   31.7080 O   0  0  0  0  0  0  0  0  0  0  0  0
   19.0180  -54.8060   31.5990 H   0  0  0  0  0  0  0  0  0  0  0  0
   20.4130  -53.8140   33.5480 H   0  0  0  0  0  0  0  0  0  0  0  0
   19.6320  -54.6590   36.0820 C   0  0  0  0  0  2  0  0  0  0  0  0
   18.8420  -53.6090   36.7720 C   0  0  0  0  0  0  0  0  0  0  0  0
   17.7220  -53.8600   37.5340 C   0  0  0  0  0  3  0  0  0  0  0  0
   16.9910  -52.8810   38.1760 C   0  0  0  0  0  0  0  0  0  0  0  0
   17.3900  -51.5720   38.0550 C   0  0  0  0  0  3  0  0  0  0  0  0
   18.5030  -51.2750   37.3040 C   0  0  0  0  0  3  0  0  0  0  0  0
   19.2190  -52.2780   36.6700 C   0  0  0  0  0  3  0  0  0  0  0  0
   15.8660  -53.2450   38.9270 O   0  0  0  0  0  0  0  0  0  0  0  0
   15.2910  -54.5320   38.8180 C   0  0  0  0  0  1  0  0  0  0  0  0
   15.3150  -58.0510   34.1790 C   0  0  0  0  0  0  0  0  0  0  0  0
   15.5140  -59.4120   34.2760 C   0  0  0  0  0  3  0  0  0  0  0  0
   14.4770  -60.3110   34.4430 C   0  0  0  0  0  3  0  0  0  0  0  0
   13.1910  -59.8180   34.5150 C   0  0  0  0  0  0  0  0  0  0  0  0
   11.8130  -60.9050   34.7280 Cl  0  0  0  0  0  0  0  0  0  0  0  0
   12.9380  -58.4650   34.4220 C   0  0  0  0  0  3  0  0  0  0  0  0
   14.0130  -57.5960   34.2540 C   0  0  0  0  0  3  0  0  0  0  0  0
  1 22  1  0  0  0  0
  1  2  1  0  0  0  0
  2  3  2  0  0  0  0
  4  8  1  0  0  0  0
  4  2  1  0  0  0  0
  5  4  2  0  0  0  0
  6  5  1  0  0  0  0
  6  7  1  0  0  0  0
  7  8  1  0  0  0  0
  8 13  1  0  0  0  0
  9  5  1  0  0  0  0
  9  1  1  0  0  0  0
 10  9  2  0  0  0  0
 11  6  1  0  0  0  0
 12  7  1  0  0  0  0
 13 14  1  0  0  0  0
 14 15  1  0  0  0  0
 15 16  2  0  0  0  0
 16 20  1  0  0  0  0
 17 16  1  0  0  0  0
 18 17  2  0  0  0  0
 19 14  2  0  0  0  0
 19 18  1  0  0  0  0
 21 20  1  0  0  0  0
 22 28  2  0  0  0  0
 22 23  1  0  0  0  0
 23 24  2  0  0  0  0
 24 25  1  0  0  0  0
 25 26  1  0  0  0  0
 27 25  2  0  0  0  0
 28 27  1  0  0  0  0
M  END
>  <Pose>
1

>  <Score>
-9.495

$$$$
