MODEL 1
REMARK VINA RESULT:    -9.571      0.000      0.000
REMARK INTER + INTRA:         -11.916
REMARK INTER:                 -11.249
REMARK INTRA:                  -0.667
REMARK UNBOUND:                -0.667
REMARK  3 active torsions:
REMARK  status: ('A' for Active; 'I' for Inactive)
REMARK    1  A    between atoms: C_5  and  N_8 
REMARK    2  A    between atoms: N_15  and  C_16 
REMARK    3  A    between atoms: C_16  and  C_17 
ROOT
ATOM      1  N   UNK d   1      16.681 -56.827  34.116  0.00  0.00    -0.241 N 
ATOM      2  C   UNK d   1      17.434 -56.295  35.105  0.00  0.00     0.286 A 
ATOM      3  O   UNK d   1      17.267 -56.537  36.319  0.00  0.00    -0.265 OA
ATOM      4  C   UNK d   1      18.407 -55.455  34.591  0.00  0.00     0.154 A 
ATOM      5  C   UNK d   1      18.242 -55.476  33.260  0.00  0.00     0.152 A 
ATOM      6  N   UNK d   1      19.192 -54.660  32.771  0.00  0.00    -0.279 N 
ATOM      7  N   UNK d   1      19.904 -54.163  33.766  0.00  0.00    -0.239 N 
ATOM      8  N   UNK d   1      19.433 -54.643  34.896  0.00  0.00    -0.266 N 
ATOM      9  C   UNK d   1      17.185 -56.318  32.985  0.00  0.00     0.286 A 
ATOM     10  O   UNK d   1      16.754 -56.571  31.827  0.00  0.00    -0.265 OA
ATOM     11  H   UNK d   1      19.367 -54.431  31.771  0.00  0.00     0.189 HD
ATOM     12  H   UNK d   1      20.721 -53.488  33.678  0.00  0.00     0.208 HD
ENDROOT
BRANCH   1  13
ATOM     13  C   UNK d   1      15.587 -57.733  34.248  0.00  0.00     0.046 A 
ATOM     14  C   UNK d   1      15.790 -59.066  34.533  0.00  0.00     0.032 A 
ATOM     15  C   UNK d   1      14.736 -59.951  34.663  0.00  0.00     0.026 A 
ATOM     16  C   UNK d   1      13.430 -59.534  34.512  0.00  0.00     0.034 A 
ATOM     17 Cl   UNK d   1      12.089 -60.664  34.679  0.00  0.00    -0.084 Cl
ATOM     18  C   UNK d   1      13.215 -58.201  34.227  0.00  0.00     0.026 A 
ATOM     19  C   UNK d   1      14.275 -57.324  34.098  0.00  0.00     0.032 A 
ENDBRANCH   1  13
BRANCH   8  20
ATOM     20  C   UNK d   1      19.910 -54.361  36.229  0.00  0.00     0.189 C 
BRANCH  20  21
ATOM     21  C   UNK d   1      19.003 -53.497  37.016  0.00  0.00    -0.038 A 
ATOM     22  C   UNK d   1      18.908 -52.160  36.717  0.00  0.00     0.009 A 
ATOM     23  C   UNK d   1      18.061 -51.374  37.464  0.00  0.00     0.001 A 
ATOM     24  C   UNK d   1      17.312 -51.902  38.500  0.00  0.00     0.000 A 
ATOM     25  C   UNK d   1      17.407 -53.242  38.801  0.00  0.00     0.001 A 
ATOM     26  C   UNK d   1      18.253 -54.009  38.049  0.00  0.00     0.009 A 
ENDBRANCH  20  21
ENDBRANCH   8  20
TORSDOF 3
ENDMDL
