/Users/jonathanwahrer/Desktop/Msc/3_Semester/Drug_Design_Praktikum/waehrer_HTS_screening/HTS_experiment/out/docking_results/vina_output/6s1j/1895_docked.pdbqt
 OpenBabel03222222273D

 32 35  0  0  1  0  0  0  0  0999 V2000
   15.7050  -56.6470   38.0310 N   0  0  0  0  0  0  0  0  0  0  0  0
   16.2350  -56.6410   36.7230 C   0  0  0  0  0  2  0  0  0  0  0  0
   16.4640  -58.1110   36.3130 C   0  0  0  0  0  2  0  0  0  0  0  0
   15.1270  -58.6280   36.1710 N   0  0  0  0  0  0  0  0  0  0  0  0
   14.4080  -58.6830   37.4620 C   0  0  0  0  0  2  0  0  0  0  0  0
   14.6650  -57.5330   38.3470 C   0  0  0  0  0  2  0  0  0  0  0  0
   14.4620  -59.0610   35.0260 C   0  0  0  0  0  0  0  0  0  0  0  0
   13.2300  -59.4660   35.2690 O   0  0  0  0  0  0  0  0  0  0  0  0
   14.8070  -59.1660   33.6320 C   0  0  0  0  0  2  0  0  0  0  0  0
   16.1230  -58.7770   33.2240 N   0  0  0  0  0  0  0  0  0  0  0  0
   17.2330  -59.6590   33.0450 C   0  0  0  0  0  0  0  0  0  0  0  0
   17.1760  -60.9180   33.2510 O   0  0  0  0  0  0  0  0  0  0  0  0
   18.3390  -58.8930   32.6170 N   0  0  0  0  0  0  0  0  0  0  0  0
   17.8460  -57.6090   32.1430 C   0  0  1  0  0  0  0  0  0  0  0  0
   19.3320  -59.1720   32.6280 H   0  0  0  0  0  0  0  0  0  0  0  0
   18.7340  -56.4580   32.4600 C   0  0  1  0  0  3  0  0  0  0  0  0
   17.5910  -57.7580   30.6600 C   0  0  0  0  0  2  0  0  0  0  0  0
   16.5680  -57.4580   32.9000 C   0  0  0  0  0  0  0  0  0  0  0  0
   18.6080  -55.4470   31.3160 C   0  0  0  0  0  2  0  0  0  0  0  0
   18.3550  -55.7140   33.7200 C   0  0  0  0  0  1  0  0  0  0  0  0
   19.3530  -56.0510   30.1410 C   0  0  0  0  0  2  0  0  0  0  0  0
   18.9150  -57.4840   29.9610 C   0  0  0  0  0  2  0  0  0  0  0  0
   15.9940  -56.3920   33.1950 O   0  0  0  0  0  0  0  0  0  0  0  0
   15.6140  -55.1130   38.7740 S   0  0  0  0  0  0  0  0  0  0  0  0
   14.3790  -54.3590   38.4740 O   0  0  0  0  0  0  0  0  0  0  0  0
   15.7070  -55.3110   40.2690 O   0  0  0  0  0  0  0  0  0  0  0  0
   17.0290  -54.1870   38.2450 C   0  0  0  0  0  0  0  0  0  0  0  0
   17.1370  -52.8920   37.1450 S   0  0  0  0  0  0  0  0  0  0  0  0
   18.8140  -52.6080   37.2190 C   0  0  0  0  0  0  0  0  0  0  0  0
   19.2510  -53.5480   38.1160 C   0  0  0  0  0  3  0  0  0  0  0  0
   19.7640  -51.3930   36.3490 Cl  0  0  0  0  0  0  0  0  0  0  0  0
   18.3210  -54.3630   38.6440 C   0  0  0  0  0  3  0  0  0  0  0  0
  1  6  1  0  0  0  0
  1 24  1  0  0  0  0
  2  1  1  0  0  0  0
  3  2  1  0  0  0  0
  4  3  1  0  0  0  0
  4  5  1  0  0  0  0
  5  6  1  0  0  0  0
  7  8  2  0  0  0  0
  7  4  1  0  0  0  0
  9  7  1  0  0  0  0
 10  9  1  0  0  0  0
 11 10  1  0  0  0  0
 11 12  2  0  0  0  0
 13 15  1  0  0  0  0
 13 11  1  0  0  0  0
 14 17  1  6  0  0  0
 14 16  1  0  0  0  0
 14 13  1  0  0  0  0
 14 18  1  0  0  0  0
 16 20  1  1  0  0  0
 18 23  2  0  0  0  0
 18 10  1  0  0  0  0
 19 16  1  0  0  0  0
 21 19  1  0  0  0  0
 22 21  1  0  0  0  0
 22 17  1  0  0  0  0
 24 26  2  0  0  0  0
 25 24  2  0  0  0  0
 27 32  2  0  0  0  0
 27 24  1  0  0  0  0
 28 29  1  0  0  0  0
 28 27  1  0  0  0  0
 29 30  2  0  0  0  0
 30 32  1  0  0  0  0
 31 29  1  0  0  0  0
M  END
>  <Pose>
1

>  <Score>
-9.524

$$$$
