/Users/jonathanwahrer/Desktop/Msc/3_Semester/Drug_Design_Praktikum/waehrer_HTS_screening/HTS_experiment/out/docking_results/vina_output/6s1j/1913_docked.pdbqt
 OpenBabel03222222283D

 29 32  0  0  1  0  0  0  0  0999 V2000
   17.9000  -53.8900   36.5360 N   0  0  0  0  0  0  0  0  0  0  0  0
   16.9960  -52.7910   36.7890 C   0  0  0  0  0  2  0  0  0  0  0  0
   17.1790  -52.1660   38.1460 C   0  0  0  0  0  2  0  0  0  0  0  0
   17.3030  -53.2370   39.1740 C   0  0  2  0  0  3  0  0  0  0  0  0
   18.5340  -54.0380   38.9250 C   0  0  0  0  0  3  0  0  0  0  0  0
   18.8020  -54.4150   37.5140 C   0  0  0  0  0  3  0  0  0  0  0  0
   16.0760  -54.0210   39.3260 C   0  0  0  0  0  0  0  0  0  0  0  0
   15.0300  -53.4310   39.6920 O   0  0  0  0  0  0  0  0  0  0  0  0
   16.0110  -55.4090   39.0830 N   0  0  0  0  0  0  0  0  0  0  0  0
   16.8950  -55.9080   38.7730 H   0  0  0  0  0  0  0  0  0  0  0  0
   14.8090  -56.1950   39.2290 C   0  0  0  0  0  2  0  0  0  0  0  0
   14.1550  -56.5470   37.9230 C   0  0  0  0  0  2  0  0  0  0  0  0
   14.0400  -57.9860   37.7680 N   0  0  0  0  0  0  0  0  0  0  0  0
   14.5930  -58.4610   36.5450 C   0  0  0  0  0  2  0  0  0  0  0  0
   13.4920  -58.9120   35.6060 C   0  0  0  0  0  2  0  0  0  0  0  0
   12.8520  -59.9770   36.1900 O   0  0  0  0  0  0  0  0  0  0  0  0
   12.3750  -59.7730   37.4580 C   0  0  0  0  0  2  0  0  0  0  0  0
   12.7570  -58.4880   38.1060 C   0  0  0  0  0  2  0  0  0  0  0  0
   17.8870  -54.4720   35.2520 C   0  0  0  0  0  0  0  0  0  0  0  0
   18.8860  -54.2050   34.3540 C   0  0  0  0  0  0  0  0  0  0  0  0
   18.8820  -54.8020   33.0850 C   0  0  0  0  0  0  0  0  0  0  0  0
   19.9780  -53.4240   34.3940 N   0  0  0  0  0  0  0  0  0  0  0  0
   17.8750  -55.6300   32.7940 N   0  0  0  0  0  4  0  0  0  0  0  0
   19.9380  -54.3890   32.3950 N   0  0  0  0  0  0  0  0  0  0  0  0
   16.8950  -55.8980   33.6600 C   0  0  0  0  0  0  0  0  0  0  0  0
   15.6190  -56.9830   33.2160 Cl  0  0  0  0  0  0  0  0  0  0  0  0
   16.8960  -55.3310   34.8700 N   0  0  0  0  0  2  0  0  0  0  0  0
   20.5920  -53.5520   33.2110 C   0  0  0  0  0  3  0  0  0  0  0  0
   20.2540  -52.8380   35.2170 H   0  0  0  0  0  0  0  0  0  0  0  0
  1  2  1  0  0  0  0
  1  6  1  0  0  0  0
  2  3  1  0  0  0  0
  3  4  1  0  0  0  0
  4  7  1  6  0  0  0
  5  4  1  0  0  0  0
  6  5  2  0  0  0  0
  7  8  2  0  0  0  0
  9 11  1  0  0  0  0
  9  7  1  0  0  0  0
 10  9  1  0  0  0  0
 12 11  1  0  0  0  0
 13 12  1  0  0  0  0
 13 18  1  0  0  0  0
 14 13  1  0  0  0  0
 15 16  1  0  0  0  0
 15 14  1  0  0  0  0
 16 17  1  0  0  0  0
 17 18  1  0  0  0  0
 19  1  1  0  0  0  0
 20 22  1  0  0  0  0
 20 19  2  0  0  0  0
 21 20  1  0  0  0  0
 22 29  1  0  0  0  0
 23 21  2  0  0  0  0
 23 25  2  0  0  0  0
 24 21  1  0  0  0  0
 24 28  2  0  0  0  0
 25 27  1  0  0  0  0
 26 25  1  0  0  0  0
 27 19  1  0  0  0  0
 28 22  1  0  0  0  0
M  END
>  <Pose>
1

>  <Score>
-8.720

$$$$
