/Users/jonathanwahrer/Desktop/Msc/3_Semester/Drug_Design_Praktikum/waehrer_HTS_screening/HTS_experiment/out/docking_results/vina_output/6s1j/1927_docked.pdbqt
 OpenBabel03222222283D

 36 39  0  0  1  0  0  0  0  0999 V2000
   16.6720  -59.2080   33.2870 C   0  0  0  0  0  2  0  0  0  0  0  0
   16.7850  -59.0260   31.8320 C   0  0  0  0  0  0  0  0  0  0  0  0
   17.3830  -58.0260   31.0770 N   0  0  0  0  0  0  0  0  0  0  0  0
   17.8630  -56.7800   31.5610 C   0  0  0  0  0  2  0  0  0  0  0  0
   17.5640  -58.2690   29.6220 C   0  0  0  0  0  2  0  0  0  0  0  0
   19.3390  -56.6290   31.2540 C   0  0  0  0  0  2  0  0  0  0  0  0
   19.3830  -56.5010   29.7330 C   0  0  2  0  0  0  0  0  0  0  0  0
   18.8290  -57.7050   29.0690 C   0  0  0  0  0  2  0  0  0  0  0  0
   16.2040  -59.9830   31.1560 O   0  0  0  0  0  0  0  0  0  0  0  0
   20.6970  -56.0610   29.3000 C   0  0  0  0  0  0  0  0  0  0  0  0
   20.7750  -55.3380   28.1020 C   0  0  0  0  0  3  0  0  0  0  0  0
   21.9910  -54.9000   27.5800 C   0  0  0  0  0  3  0  0  0  0  0  0
   23.1730  -55.1620   28.2300 C   0  0  0  0  0  0  0  0  0  0  0  0
   24.7310  -54.6120   27.5600 Cl  0  0  0  0  0  0  0  0  0  0  0  0
   23.1110  -55.8760   29.4150 C   0  0  0  0  0  3  0  0  0  0  0  0
   21.8990  -56.3050   29.9210 C   0  0  0  0  0  3  0  0  0  0  0  0
   18.4690  -55.4300   29.4710 O   0  0  0  0  0  0  0  0  0  0  0  0
   18.7670  -54.6690   30.0280 H   0  0  0  0  0  0  0  0  0  0  0  0
   16.6620  -58.0660   34.0920 N   0  0  0  0  0  0  0  0  0  0  0  0
   17.7870  -57.5600   34.8110 C   0  0  0  0  0  0  0  0  0  0  0  0
   18.8400  -58.2410   34.6990 O   0  0  0  0  0  0  0  0  0  0  0  0
   15.8090  -57.4490   34.1590 H   0  0  0  0  0  0  0  0  0  0  0  0
   17.6930  -56.3570   35.5920 C   0  0  0  0  0  3  0  0  0  0  0  0
   18.3400  -55.2410   35.5170 C   0  0  0  0  0  0  0  0  0  0  0  0
   19.3680  -54.9930   34.5550 N   0  0  0  0  0  0  0  0  0  0  0  0
   18.0260  -54.1140   36.4310 C   0  0  0  0  0  0  0  0  0  0  0  0
   20.0440  -53.7570   34.4810 N   0  0  0  0  0  0  0  0  0  0  0  0
   19.6550  -55.7330   33.8700 H   0  0  0  0  0  0  0  0  0  0  0  0
   19.7270  -52.7030   35.3610 C   0  0  0  0  0  0  0  0  0  0  0  0
   20.7890  -53.6040   33.7620 H   0  0  0  0  0  0  0  0  0  0  0  0
   20.3550  -51.6090   35.2590 O   0  0  0  0  0  0  0  0  0  0  0  0
   18.6890  -52.9110   36.3520 C   0  0  0  0  0  0  0  0  0  0  0  0
   18.3980  -51.8400   37.1720 C   0  0  0  0  0  3  0  0  0  0  0  0
   17.3860  -51.9990   38.1160 C   0  0  0  0  0  3  0  0  0  0  0  0
   16.6980  -53.1750   38.2350 C   0  0  0  0  0  3  0  0  0  0  0  0
   17.0430  -54.2220   37.3720 C   0  0  0  0  0  3  0  0  0  0  0  0
  1 19  1  0  0  0  0
  2  1  1  0  0  0  0
  3  4  1  0  0  0  0
  3  2  1  0  0  0  0
  5  3  1  0  0  0  0
  6  4  1  0  0  0  0
  7 17  1  6  0  0  0
  7  6  1  0  0  0  0
  8  5  1  0  0  0  0
  8  7  1  0  0  0  0
  9  2  2  0  0  0  0
 10  7  1  0  0  0  0
 10 16  1  0  0  0  0
 11 10  2  0  0  0  0
 12 11  1  0  0  0  0
 12 13  2  0  0  0  0
 13 15  1  0  0  0  0
 14 13  1  0  0  0  0
 15 16  2  0  0  0  0
 17 18  1  0  0  0  0
 19 22  1  0  0  0  0
 19 20  1  0  0  0  0
 20 23  1  0  0  0  0
 21 20  2  0  0  0  0
 24 23  2  0  0  0  0
 24 26  1  0  0  0  0
 25 24  1  0  0  0  0
 26 36  1  0  0  0  0
 27 25  1  0  0  0  0
 27 29  1  0  0  0  0
 28 25  1  0  0  0  0
 29 32  1  0  0  0  0
 30 27  1  0  0  0  0
 31 29  2  0  0  0  0
 32 26  2  0  0  0  0
 32 33  1  0  0  0  0
 33 34  2  0  0  0  0
 34 35  1  0  0  0  0
 36 35  2  0  0  0  0
M  END
>  <Pose>
1

>  <Score>
-10.737

$$$$
