/Users/jonathanwahrer/Desktop/Msc/3_Semester/Drug_Design_Praktikum/waehrer_HTS_screening/HTS_experiment/out/docking_results/vina_output/6s1j/1928_docked.pdbqt
 OpenBabel03222222283D

 28 31  0  0  0  0  0  0  0  0999 V2000
   14.0040  -57.9100   37.6740 N   0  0  0  0  0  0  0  0  0  0  0  0
   13.0180  -58.8180   37.5200 C   0  0  0  0  0  2  0  0  0  0  0  0
   12.7290  -59.3400   36.2840 C   0  0  0  0  0  0  0  0  0  0  0  0
   13.5070  -58.8990   35.1210 C   0  0  0  0  0  0  0  0  0  0  0  0
   13.0140  -59.5660   34.0550 N   0  0  0  0  0  2  0  0  0  0  0  0
   12.0330  -60.3520   34.4480 N   0  0  0  0  0  0  0  0  0  0  0  0
   11.8180  -60.2600   35.7690 C   0  0  0  0  0  0  0  0  0  0  0  0
   10.9640  -60.8710   36.4540 O   0  0  0  0  0  0  0  0  0  0  0  0
   14.5050  -57.9700   35.3280 C   0  0  0  0  0  0  0  0  0  0  0  0
   14.6980  -57.5230   36.6060 C   0  0  0  0  0  3  0  0  0  0  0  0
   11.4940  -60.9680   33.8110 H   0  0  0  0  0  0  0  0  0  0  0  0
   14.2670  -57.3870   39.0160 C   0  0  0  0  0  2  0  0  0  0  0  0
   14.8740  -56.0450   38.9210 C   0  0  0  0  0  0  0  0  0  0  0  0
   14.4410  -54.9880   39.5630 O   0  0  0  0  0  0  0  0  0  0  0  0
   15.1930  -53.9730   39.2600 N   0  0  0  0  0  0  0  0  0  0  0  0
   16.1520  -54.3470   38.3990 C   0  0  0  0  0  0  0  0  0  0  0  0
   15.9500  -55.6550   38.1860 N   0  0  0  0  0  0  0  0  0  0  0  0
   17.1770  -53.4760   37.8420 C   0  0  0  0  0  0  0  0  0  0  0  0
   18.1890  -53.9650   37.0500 C   0  0  0  0  0  3  0  0  0  0  0  0
   19.1670  -53.1480   36.5150 C   0  0  0  0  0  3  0  0  0  0  0  0
   19.1550  -51.7880   36.7670 C   0  0  0  0  0  0  0  0  0  0  0  0
   20.3850  -50.7280   36.0990 Cl  0  0  0  0  0  0  0  0  0  0  0  0
   18.1350  -51.2900   37.5650 C   0  0  0  0  0  3  0  0  0  0  0  0
   17.1600  -52.1200   38.0950 C   0  0  0  0  0  3  0  0  0  0  0  0
   15.3010  -57.5060   34.1920 C   0  0  0  0  0  0  0  0  0  0  0  0
   14.7770  -56.8690   33.2680 O   0  0  0  0  0  0  0  0  0  0  0  0
   16.6590  -57.7660   34.1190 O   0  0  0  0  0  0  0  0  0  0  0  0
   17.6470  -56.9240   34.6660 C   0  0  0  0  0  1  0  0  0  0  0  0
  1 12  1  0  0  0  0
  2  1  1  0  0  0  0
  3  2  1  0  0  0  0
  4  9  1  0  0  0  0
  4  3  2  0  0  0  0
  5  6  1  0  0  0  0
  5  4  1  0  0  0  0
  6  7  1  0  0  0  0
  7  3  1  0  0  0  0
  7  8  2  0  0  0  0
  9 10  2  0  0  0  0
 10  1  1  0  0  0  0
 11  6  1  0  0  0  0
 13 12  1  0  0  0  0
 13 14  1  0  0  0  0
 15 14  1  0  0  0  0
 16 15  2  0  0  0  0
 17 16  1  0  0  0  0
 17 13  2  0  0  0  0
 18 24  1  0  0  0  0
 18 16  1  0  0  0  0
 19 18  2  0  0  0  0
 20 21  2  0  0  0  0
 20 19  1  0  0  0  0
 21 23  1  0  0  0  0
 22 21  1  0  0  0  0
 23 24  2  0  0  0  0
 25  9  1  0  0  0  0
 26 25  2  0  0  0  0
 27 25  1  0  0  0  0
 27 28  1  0  0  0  0
M  END
>  <Pose>
1

>  <Score>
-9.916

$$$$
