MODEL 1
REMARK VINA RESULT:    -9.296      0.000      0.000
REMARK INTER + INTRA:         -12.641
REMARK INTER:                 -11.741
REMARK INTRA:                  -0.900
REMARK UNBOUND:                -0.900
REMARK  5 active torsions:
REMARK  status: ('A' for Active; 'I' for Inactive)
REMARK    1  A    between atoms: C_6  and  C_12 
REMARK    2  A    between atoms: C_12  and  C_13 
REMARK    3  A    between atoms: C_13  and  C_14 
REMARK       I    between atoms: C_14  and  N_16 
REMARK    4  A    between atoms: C_18  and  N_24 
REMARK    5  A    between atoms: C_19  and  O_22 
ROOT
ATOM      1  C   UNK d   1      18.032 -57.802  32.205  0.00  0.00     0.220 C 
ATOM      2  O   UNK d   1      17.517 -58.223  31.138  0.00  0.00    -0.273 OA
ATOM      3  N   UNK d   1      17.643 -58.367  33.434  0.00  0.00    -0.350 N 
ATOM      4  C   UNK d   1      16.653 -59.440  33.527  0.00  0.00     0.154 C 
ATOM      5  C   UNK d   1      15.482 -58.841  34.280  0.00  0.00     0.146 C 
ATOM      6  C   UNK d   1      15.925 -58.280  35.611  0.00  0.00     0.078 C 
ATOM      7  C   UNK d   1      17.413 -58.570  35.843  0.00  0.00     0.059 C 
ATOM      8  C   UNK d   1      18.195 -57.933  34.706  0.00  0.00     0.129 C 
ATOM      9  C   UNK d   1      15.121 -58.774  36.775  0.00  0.00     0.048 C 
ENDROOT
BRANCH   1  10
ATOM     10  C   UNK d   1      19.038 -56.715  32.137  0.00  0.00     0.110 C 
BRANCH  10  11
ATOM     11  C   UNK d   1      18.439 -55.348  32.086  0.00  0.00     0.088 C 
BRANCH  11  12
ATOM     12  C   UNK d   1      18.357 -54.678  33.407  0.00  0.00     0.107 A 
ATOM     13  N   UNK d   1      17.348 -54.668  34.294  0.00  0.00    -0.233 NA
ATOM     14  C   UNK d   1      17.665 -53.941  35.378  0.00  0.00     0.087 A 
ATOM     15  C   UNK d   1      17.031 -53.599  36.563  0.00  0.00     0.057 A 
ATOM     16  C   UNK d   1      18.942 -53.461  35.173  0.00  0.00     0.064 A 
ATOM     17  C   UNK d   1      17.624 -52.814  37.518  0.00  0.00     0.036 A 
ATOM     18 Cl   UNK d   1      16.830 -52.374  39.023  0.00  0.00    -0.084 Cl
ATOM     19  C   UNK d   1      18.901 -52.351  37.282  0.00  0.00     0.026 A 
ATOM     20  C   UNK d   1      19.575 -52.669  36.107  0.00  0.00     0.034 A 
ATOM     21  N   UNK d   1      19.337 -53.919  33.979  0.00  0.00    -0.338 N 
ATOM     22  C   UNK d   1      20.618 -53.683  33.316  0.00  0.00     0.158 C 
ENDBRANCH  11  12
ENDBRANCH  10  11
ENDBRANCH   1  10
BRANCH   5  23
ATOM     23  N   UNK d   1      14.331 -59.671  34.340  0.00  0.00    -0.300 N 
ATOM     24  C   UNK d   1      14.433 -61.028  34.458  0.00  0.00     0.108 A 
ATOM     25  C   UNK d   1      13.317 -61.835  34.516  0.00  0.00     0.022 A 
ATOM     26  C   UNK d   1      12.064 -61.267  34.453  0.00  0.00     0.256 A 
ATOM     27  C   UNK d   1      13.392 -63.312  34.644  0.00  0.00     0.056 C 
ATOM     28  O   UNK d   1      11.005 -61.980  34.503  0.00  0.00    -0.267 OA
ATOM     29  N   UNK d   1      11.972 -59.931  34.337  0.00  0.00    -0.275 N 
ATOM     30  C   UNK d   1      13.105 -59.172  34.283  0.00  0.00     0.329 A 
ATOM     31  H   UNK d   1      11.031 -59.498  34.290  0.00  0.00     0.173 HD
ATOM     32  O   UNK d   1      12.957 -57.935  34.175  0.00  0.00    -0.246 OA
ENDBRANCH   5  23
BRANCH   6  33
ATOM     33  O   UNK d   1      15.838 -56.866  35.647  0.00  0.00    -0.388 OA
ATOM     34  H   UNK d   1      16.475 -56.541  34.965  0.00  0.00     0.210 HD
ENDBRANCH   6  33
TORSDOF 5
ENDMDL
