/Users/jonathanwahrer/Desktop/Msc/3_Semester/Drug_Design_Praktikum/waehrer_HTS_screening/HTS_experiment/out/docking_results/vina_output/6s1j/1936_docked.pdbqt
 OpenBabel03222222293D

 25 28  0  0  0  0  0  0  0  0999 V2000
   14.0800  -57.3350   36.9480 N   0  0  0  0  0  0  0  0  0  0  0  0
   14.7530  -58.3680   36.2680 C   0  0  0  0  0  0  0  0  0  0  0  0
   15.7490  -58.8680   36.8180 O   0  0  0  0  0  0  0  0  0  0  0  0
   13.2390  -56.8990   36.5030 H   0  0  0  0  0  0  0  0  0  0  0  0
   14.5050  -56.8420   38.2460 C   0  0  0  0  0  2  0  0  0  0  0  0
   15.4060  -55.6520   38.0710 C   0  0  0  0  0  0  0  0  0  0  0  0
   16.5280  -55.5860   37.3300 N   0  0  0  0  0  0  0  0  0  0  0  0
   17.0780  -54.3610   37.4070 C   0  0  0  0  0  0  0  0  0  0  0  0
   18.1890  -53.7410   36.8770 C   0  0  0  0  0  3  0  0  0  0  0  0
   16.2570  -53.6030   38.2470 C   0  0  0  0  0  0  0  0  0  0  0  0
   18.5320  -52.4230   37.1300 C   0  0  0  0  0  0  0  0  0  0  0  0
   19.9640  -51.6770   36.4250 Cl  0  0  0  0  0  0  0  0  0  0  0  0
   17.6960  -51.6930   37.9690 C   0  0  0  0  0  3  0  0  0  0  0  0
   16.5860  -52.2930   38.5060 C   0  0  0  0  0  3  0  0  0  0  0  0
   15.2620  -54.4340   38.6170 N   0  0  0  0  0  0  0  0  0  0  0  0
   14.4760  -54.1670   39.2520 H   0  0  0  0  0  0  0  0  0  0  0  0
   14.3260  -58.8690   34.9500 C   0  0  0  0  0  0  0  0  0  0  0  0
   13.6090  -60.1620   34.9430 C   0  0  0  0  0  2  0  0  0  0  0  0
   12.7740  -58.9560   34.7620 C   0  0  0  0  0  2  0  0  0  0  0  0
   14.9630  -58.3800   33.7640 N   0  0  0  0  0  0  0  0  0  0  0  0
   15.8680  -59.2550   33.1300 C   0  0  0  0  0  2  0  0  0  0  0  0
   17.2730  -58.8790   33.5860 C   0  0  0  0  0  2  0  0  0  0  0  0
   17.6250  -57.6570   33.0640 O   0  0  0  0  0  0  0  0  0  0  0  0
   16.5820  -56.7880   32.8640 C   0  0  0  0  0  2  0  0  0  0  0  0
   15.4150  -57.0500   33.7940 C   0  0  0  0  0  2  0  0  0  0  0  0
  1  5  1  0  0  0  0
  2  3  2  0  0  0  0
  2  1  1  0  0  0  0
  4  1  1  0  0  0  0
  6  5  1  0  0  0  0
  6 15  1  0  0  0  0
  7  8  1  0  0  0  0
  7  6  2  0  0  0  0
  8 10  1  0  0  0  0
  9 11  1  0  0  0  0
  9  8  2  0  0  0  0
 10 14  2  0  0  0  0
 10 15  1  0  0  0  0
 11 13  2  0  0  0  0
 12 11  1  0  0  0  0
 13 14  1  0  0  0  0
 15 16  1  0  0  0  0
 17  2  1  0  0  0  0
 18 17  1  0  0  0  0
 19 18  1  0  0  0  0
 19 17  1  0  0  0  0
 20 25  1  0  0  0  0
 20 17  1  0  0  0  0
 21 22  1  0  0  0  0
 21 20  1  0  0  0  0
 23 22  1  0  0  0  0
 24 23  1  0  0  0  0
 24 25  1  0  0  0  0
M  END
>  <Pose>
1

>  <Score>
-8.304

$$$$
