MODEL 1
REMARK VINA RESULT:    -8.402      0.000      0.000
REMARK INTER + INTRA:         -10.932
REMARK INTER:                  -9.876
REMARK INTRA:                  -1.056
REMARK UNBOUND:                -1.056
REMARK  3 active torsions:
REMARK  status: ('A' for Active; 'I' for Inactive)
REMARK    1  A    between atoms: C_5  and  C_8 
REMARK    2  A    between atoms: C_8  and  N_9 
REMARK    3  A    between atoms: C_13  and  N_14 
ROOT
ATOM      1  N   UNK d   1      17.654 -55.415  33.438  0.00  0.00    -0.168 N 
ATOM      2  C   UNK d   1      18.665 -55.397  32.517  0.00  0.00     0.167 A 
ATOM      3  C   UNK d   1      18.738 -56.606  31.881  0.00  0.00     0.185 A 
ATOM      4  N   UNK d   1      17.771 -57.328  32.432  0.00  0.00    -0.044 NA
ATOM      5  C   UNK d   1      17.089 -56.622  33.391  0.00  0.00     0.707 A 
ATOM      6  N   UNK d   1      19.658 -56.850  30.931  0.00  0.00    -0.286 N 
ATOM      7  C   UNK d   1      20.544 -55.880  30.585  0.00  0.00     0.330 A 
ATOM      8  O   UNK d   1      21.382 -56.153  29.696  0.00  0.00    -0.246 OA
ATOM      9  N   UNK d   1      20.513 -54.676  31.181  0.00  0.00    -0.273 N 
ATOM     10  C   UNK d   1      19.591 -54.443  32.128  0.00  0.00     0.280 A 
ATOM     11  O   UNK d   1      19.604 -53.309  32.654  0.00  0.00    -0.265 OA
ATOM     12  C   UNK d   1      19.664 -58.162  30.307  0.00  0.00     0.163 C 
ATOM     13  H   UNK d   1      21.214 -53.967  30.880  0.00  0.00     0.173 HD
ENDROOT
BRANCH   1  14
ATOM     14  C   UNK d   1      17.338 -54.281  34.265  0.00  0.00     0.186 C 
BRANCH  14  15
ATOM     15  C   UNK d   1      17.782 -54.331  35.656  0.00  0.00    -0.039 A 
ATOM     16  C   UNK d   1      16.995 -54.678  36.704  0.00  0.00     0.010 A 
ATOM     17  C   UNK d   1      17.451 -54.662  38.026  0.00  0.00     0.024 A 
ATOM     18  C   UNK d   1      18.731 -54.289  38.309  0.00  0.00     0.034 A 
ATOM     19 Cl   UNK d   1      19.255 -54.285  39.978  0.00  0.00    -0.084 Cl
ATOM     20  C   UNK d   1      19.564 -53.929  37.274  0.00  0.00     0.024 A 
ATOM     21  C   UNK d   1      19.093 -53.952  35.982  0.00  0.00     0.010 A 
ENDBRANCH  14  15
ENDBRANCH   1  14
BRANCH   5  22
ATOM     22  N   UNK d   1      16.021 -57.180  34.128  0.00  0.00    -0.212 N 
ATOM     23  C   UNK d   1      14.668 -56.947  33.642  0.00  0.00     0.171 C 
ATOM     24  C   UNK d   1      13.940 -58.264  33.970  0.00  0.00     0.290 C 
ATOM     25  N   UNK d   1      14.827 -59.401  33.872  0.00  0.00     0.086 N 
ATOM     26  C   UNK d   1      15.876 -59.416  34.869  0.00  0.00     0.290 C 
ATOM     27  H   UNK d   1      14.247 -60.244  34.017  0.00  0.00     0.316 HD
ATOM     28  C   UNK d   1      16.068 -57.970  35.303  0.00  0.00     0.171 C 
ENDBRANCH   5  22
TORSDOF 3
ENDMDL
