/Users/jonathanwahrer/Desktop/Msc/3_Semester/Drug_Design_Praktikum/waehrer_HTS_screening/HTS_experiment/out/docking_results/vina_output/6s1j/1940_docked.pdbqt
 OpenBabel03222222303D

 30 33  0  0  1  0  0  0  0  0999 V2000
   16.1560  -58.3010   35.5670 C   0  0  1  0  0  3  0  0  0  0  0  0
   14.8720  -58.6870   34.9680 N   0  0  0  0  0  0  0  0  0  0  0  0
   14.4910  -57.5910   34.1570 C   0  0  0  0  0  0  0  0  0  0  0  0
   13.3210  -57.2450   33.8680 O   0  0  0  0  0  0  0  0  0  0  0  0
   15.7340  -56.9310   33.7150 C   0  0  0  0  0  0  0  0  0  0  0  0
   15.8500  -55.9220   32.9840 O   0  0  0  0  0  0  0  0  0  0  0  0
   16.8010  -57.7150   34.3220 C   0  0  0  0  0  0  0  0  0  0  0  0
   18.0020  -57.8720   33.8840 C   0  0  0  0  0  0  0  0  0  0  0  0
   18.9190  -58.6680   34.5680 O   0  0  0  0  0  1  0  0  0  0  0  0
   14.1600  -59.9370   35.1910 C   0  0  0  0  0  2  0  0  0  0  0  0
   12.8830  -59.7900   35.9580 C   0  0  0  0  0  2  0  0  0  0  0  0
   12.7590  -60.5850   37.1310 N   0  0  0  0  0  4  0  0  0  0  0  0
   13.0400  -59.9450   38.3760 C   0  0  0  0  0  2  0  0  0  0  0  0
   12.0850  -58.8230   38.7120 C   0  0  0  0  0  2  0  0  0  0  0  0
   10.7700  -59.2780   38.7240 O   0  0  0  0  0  0  0  0  0  0  0  0
   10.4460  -59.9730   37.5640 C   0  0  0  0  0  2  0  0  0  0  0  0
   11.3860  -61.1130   37.2720 C   0  0  0  0  0  2  0  0  0  0  0  0
   13.4020  -61.4020   37.0430 H   0  0  0  0  0  0  0  0  0  0  0  0
   15.9780  -57.1510   36.4870 C   0  0  0  0  0  0  0  0  0  0  0  0
   14.9250  -57.0680   37.3620 C   0  0  0  0  0  3  0  0  0  0  0  0
   14.7560  -56.0070   38.2300 C   0  0  0  0  0  3  0  0  0  0  0  0
   15.6750  -54.9790   38.2320 C   0  0  0  0  0  0  0  0  0  0  0  0
   15.5400  -53.6020   39.2970 Cl  0  0  0  0  0  0  0  0  0  0  0  0
   16.7360  -55.0410   37.3650 C   0  0  0  0  0  3  0  0  0  0  0  0
   16.8980  -56.1020   36.5020 C   0  0  0  0  0  3  0  0  0  0  0  0
   18.4410  -57.2160   32.6560 C   0  0  0  0  0  0  0  0  0  0  0  0
   18.2850  -57.5160   31.4160 O   0  0  0  0  0  0  0  0  0  0  0  0
   18.8540  -56.6330   30.6460 C   0  0  0  0  0  3  0  0  0  0  0  0
   19.4370  -55.6640   31.4230 C   0  0  0  0  0  3  0  0  0  0  0  0
   19.1790  -56.0270   32.7160 C   0  0  0  0  0  3  0  0  0  0  0  0
  1 19  1  1  0  0  0
  2 10  1  0  0  0  0
  2  1  1  0  0  0  0
  3  2  1  0  0  0  0
  4  3  2  0  0  0  0
  5  3  1  0  0  0  0
  5  7  1  0  0  0  0
  6  5  2  0  0  0  0
  7  1  1  0  0  0  0
  8  7  2  0  0  0  0
  8  9  1  0  0  0  0
 10 11  1  0  0  0  0
 11 12  1  0  0  0  0
 12 17  1  0  0  0  0
 12 13  1  0  0  0  0
 13 14  1  0  0  0  0
 14 15  1  0  0  0  0
 16 15  1  0  0  0  0
 17 16  1  0  0  0  0
 18 12  1  0  0  0  0
 19 25  2  0  0  0  0
 19 20  1  0  0  0  0
 20 21  2  0  0  0  0
 21 22  1  0  0  0  0
 22 23  1  0  0  0  0
 24 22  2  0  0  0  0
 25 24  1  0  0  0  0
 26 30  2  0  0  0  0
 26  8  1  0  0  0  0
 27 26  1  0  0  0  0
 28 27  1  0  0  0  0
 28 29  2  0  0  0  0
 29 30  1  0  0  0  0
M  END
>  <Pose>
1

>  <Score>
-8.882

$$$$
