/Users/jonathanwahrer/Desktop/Msc/3_Semester/Drug_Design_Praktikum/waehrer_HTS_screening/HTS_experiment/out/docking_results/vina_output/6s1j/1941_docked.pdbqt
 OpenBabel03222222303D

 22 25  0  0  1  0  0  0  0  0999 V2000
   16.7880  -55.7230   36.0580 N   0  0  0  0  0  0  0  0  0  0  0  0
   17.9880  -55.1590   35.5080 C   0  0  0  0  0  0  0  0  0  0  0  0
   18.8550  -55.8790   34.9020 O   0  0  0  0  0  0  0  0  0  0  0  0
   18.0120  -53.7100   35.7650 C   0  0  1  0  0  3  0  0  0  0  0  0
   17.0370  -53.5520   36.9070 C   0  0  2  0  0  3  0  0  0  0  0  0
   17.7820  -53.0390   38.1210 C   0  0  2  0  0  3  0  0  0  0  0  0
   18.2150  -51.6110   37.7580 C   0  0  0  0  0  2  0  0  0  0  0  0
   19.1770  -51.7680   36.6160 C   0  0  0  0  0  0  0  0  0  0  0  0
   19.7520  -50.8130   36.1680 O   0  0  0  0  0  0  0  0  0  0  0  0
   19.3600  -53.1640   36.0870 C   0  0  1  0  0  3  0  0  0  0  0  0
   19.9960  -53.9550   37.2360 C   0  0  0  0  0  2  0  0  0  0  0  0
   19.0350  -53.8270   38.3860 C   0  0  0  0  0  0  0  0  0  0  0  0
   19.2910  -54.3370   39.4420 O   0  0  0  0  0  0  0  0  0  0  0  0
   16.3870  -54.8470   37.1030 C   0  0  0  0  0  0  0  0  0  0  0  0
   15.6060  -55.1360   38.0360 O   0  0  0  0  0  0  0  0  0  0  0  0
   16.1180  -56.9110   35.6550 C   0  0  0  0  0  0  0  0  0  0  0  0
   15.5700  -57.0010   34.3890 C   0  0  0  0  0  3  0  0  0  0  0  0
   14.9130  -58.1300   33.9520 C   0  0  0  0  0  3  0  0  0  0  0  0
   14.7730  -59.2260   34.7670 C   0  0  0  0  0  0  0  0  0  0  0  0
   13.9360  -60.6730   34.2180 Cl  0  0  0  0  0  0  0  0  0  0  0  0
   15.3140  -59.1570   36.0400 C   0  0  0  0  0  3  0  0  0  0  0  0
   15.9660  -58.0200   36.4570 C   0  0  0  0  0  3  0  0  0  0  0  0
  1 14  1  0  0  0  0
  2  1  1  0  0  0  0
  3  2  2  0  0  0  0
  4  2  1  1  0  0  0
  4 10  1  0  0  0  0
  4  5  1  0  0  0  0
  5 14  1  1  0  0  0
  5  6  1  0  0  0  0
  6  7  1  6  0  0  0
  6 12  1  0  0  0  0
  8  7  1  0  0  0  0
  9  8  2  0  0  0  0
 10  8  1  0  0  0  0
 10 11  1  1  0  0  0
 11 12  1  0  0  0  0
 12 13  2  0  0  0  0
 14 15  2  0  0  0  0
 16  1  1  0  0  0  0
 16 22  1  0  0  0  0
 17 16  2  0  0  0  0
 18 17  1  0  0  0  0
 18 19  2  0  0  0  0
 19 21  1  0  0  0  0
 20 19  1  0  0  0  0
 21 22  2  0  0  0  0
M  END
>  <Pose>
1

>  <Score>
-9.295

$$$$
