MODEL 1
REMARK VINA RESULT:    -9.295      0.000      0.000
REMARK INTER + INTRA:         -10.204
REMARK INTER:                  -9.838
REMARK INTRA:                  -0.366
REMARK UNBOUND:                -0.366
REMARK  1 active torsions:
REMARK  status: ('A' for Active; 'I' for Inactive)
REMARK    1  A    between atoms: C_5  and  N_8 
ROOT
ATOM      1  N   UNK d   1      16.788 -55.723  36.058  0.00  0.00    -0.252 N 
ATOM      2  C   UNK d   1      17.988 -55.159  35.508  0.00  0.00     0.237 C 
ATOM      3  O   UNK d   1      18.855 -55.879  34.902  0.00  0.00    -0.272 OA
ATOM      4  C   UNK d   1      18.012 -53.710  35.765  0.00  0.00     0.104 C 
ATOM      5  C   UNK d   1      17.037 -53.552  36.907  0.00  0.00     0.104 C 
ATOM      6  C   UNK d   1      17.782 -53.039  38.121  0.00  0.00     0.076 C 
ATOM      7  C   UNK d   1      18.215 -51.611  37.758  0.00  0.00     0.091 C 
ATOM      8  C   UNK d   1      19.177 -51.768  36.616  0.00  0.00     0.133 C 
ATOM      9  O   UNK d   1      19.752 -50.813  36.168  0.00  0.00    -0.298 OA
ATOM     10  C   UNK d   1      19.360 -53.164  36.087  0.00  0.00     0.076 C 
ATOM     11  C   UNK d   1      19.996 -53.955  37.236  0.00  0.00     0.091 C 
ATOM     12  C   UNK d   1      19.035 -53.827  38.386  0.00  0.00     0.133 C 
ATOM     13  O   UNK d   1      19.291 -54.337  39.442  0.00  0.00    -0.298 OA
ATOM     14  C   UNK d   1      16.387 -54.847  37.103  0.00  0.00     0.237 C 
ATOM     15  O   UNK d   1      15.606 -55.136  38.036  0.00  0.00    -0.272 OA
ENDROOT
BRANCH   1  16
ATOM     16  C   UNK d   1      16.118 -56.911  35.655  0.00  0.00     0.045 A 
ATOM     17  C   UNK d   1      15.570 -57.001  34.389  0.00  0.00     0.032 A 
ATOM     18  C   UNK d   1      14.913 -58.130  33.952  0.00  0.00     0.026 A 
ATOM     19  C   UNK d   1      14.773 -59.226  34.767  0.00  0.00     0.034 A 
ATOM     20 Cl   UNK d   1      13.936 -60.673  34.218  0.00  0.00    -0.084 Cl
ATOM     21  C   UNK d   1      15.314 -59.157  36.040  0.00  0.00     0.026 A 
ATOM     22  C   UNK d   1      15.966 -58.020  36.457  0.00  0.00     0.032 A 
ENDBRANCH   1  16
TORSDOF 1
ENDMDL
