MODEL 1
REMARK VINA RESULT:    -9.162      0.000      0.000
REMARK INTER + INTRA:         -11.779
REMARK INTER:                 -10.769
REMARK INTRA:                  -1.010
REMARK UNBOUND:                -1.010
REMARK  3 active torsions:
REMARK  status: ('A' for Active; 'I' for Inactive)
REMARK    1  A    between atoms: C_5  and  N_8 
REMARK    2  A    between atoms: C_14  and  C_18 
REMARK    3  A    between atoms: C_18  and  C_19 
REMARK       I    between atoms: C_19  and  N_21 
ROOT
ATOM      1  N   UNK d   1      17.636 -55.974  32.654  0.00  0.00    -0.252 N 
ATOM      2  C   UNK d   1      18.378 -55.079  33.511  0.00  0.00     0.239 C 
ATOM      3  O   UNK d   1      19.537 -54.696  33.328  0.00  0.00    -0.272 OA
ATOM      4  C   UNK d   1      17.540 -54.682  34.650  0.00  0.00     0.147 C 
ATOM      5  C   UNK d   1      18.199 -54.762  36.006  0.00  0.00     0.279 C 
ATOM      6  N   UNK d   1      17.914 -56.064  36.558  0.00  0.00     0.114 N 
ATOM      7  C   UNK d   1      17.394 -56.864  35.467  0.00  0.00     0.245 C 
ATOM      8  C   UNK d   1      16.567 -55.836  34.721  0.00  0.00     0.129 C 
ATOM      9  C   UNK d   1      16.364 -56.159  33.297  0.00  0.00     0.238 C 
ATOM     10  O   UNK d   1      15.283 -56.512  32.818  0.00  0.00    -0.272 OA
ATOM     11  C   UNK d   1      17.556 -53.667  36.812  0.00  0.00     0.017 A 
ATOM     12  C   UNK d   1      18.498 -52.700  37.019  0.00  0.00     0.044 A 
ATOM     13  C   UNK d   1      18.195 -51.506  37.693  0.00  0.00     0.030 A 
ATOM     14  C   UNK d   1      16.920 -51.284  38.169  0.00  0.00     0.002 A 
ATOM     15  C   UNK d   1      15.975 -52.255  37.964  0.00  0.00     0.001 A 
ATOM     16  C   UNK d   1      16.289 -53.422  37.299  0.00  0.00     0.012 A 
ATOM     17  N   UNK d   1      19.768 -53.117  36.546  0.00  0.00    -0.324 N 
ATOM     18  C   UNK d   1      19.608 -54.425  36.019  0.00  0.00     0.267 C 
ATOM     19  O   UNK d   1      20.564 -55.134  35.642  0.00  0.00    -0.270 OA
ATOM     20  H   UNK d   1      18.812 -56.457  36.929  0.00  0.00     0.318 HD
ATOM     21  H   UNK d   1      20.673 -52.554  36.580  0.00  0.00     0.169 HD
ENDROOT
BRANCH   7  22
ATOM     22  C   UNK d   1      16.540 -58.006  35.951  0.00  0.00     0.139 C 
BRANCH  22  23
ATOM     23  C   UNK d   1      15.371 -57.596  36.724  0.00  0.00     0.217 C 
ATOM     24  O   UNK d   1      15.502 -57.137  37.874  0.00  0.00    -0.274 OA
ATOM     25  N   UNK d   1      14.077 -57.719  36.168  0.00  0.00    -0.370 N 
ATOM     26  H   UNK d   1      13.872 -58.149  35.233  0.00  0.00     0.159 HD
ATOM     27  H   UNK d   1      13.203 -57.382  36.666  0.00  0.00     0.159 HD
ENDBRANCH  22  23
ENDBRANCH   7  22
BRANCH   1  28
ATOM     28  C   UNK d   1      18.022 -56.555  31.441  0.00  0.00     0.045 A 
ATOM     29  C   UNK d   1      18.556 -55.844  30.402  0.00  0.00     0.032 A 
ATOM     30  C   UNK d   1      18.942 -56.423  29.199  0.00  0.00     0.026 A 
ATOM     31  C   UNK d   1      18.789 -57.778  29.026  0.00  0.00     0.034 A 
ATOM     32 Cl   UNK d   1      19.282 -58.525  27.517  0.00  0.00    -0.084 Cl
ATOM     33  C   UNK d   1      18.260 -58.516  30.039  0.00  0.00     0.026 A 
ATOM     34  C   UNK d   1      17.879 -57.906  31.238  0.00  0.00     0.032 A 
ENDBRANCH   1  28
TORSDOF 3
ENDMDL
