MODEL 1
REMARK VINA RESULT:    -8.649      0.000      0.000
REMARK INTER + INTRA:         -11.137
REMARK INTER:                 -10.672
REMARK INTRA:                  -0.465
REMARK UNBOUND:                -0.465
REMARK  4 active torsions:
REMARK  status: ('A' for Active; 'I' for Inactive)
REMARK    1  A    between atoms: N_15  and  C_16 
REMARK    2  A    between atoms: C_16  and  C_17 
REMARK       I    between atoms: C_17  and  N_19 
REMARK    3  A    between atoms: N_19  and  C_20 
REMARK    4  A    between atoms: C_20  and  C_21 
ROOT
ATOM      1 Cl   UNK d   1      20.109 -50.717  36.158  0.00  0.00    -0.084 Cl
ATOM      2  C   UNK d   1      18.928 -51.887  36.711  0.00  0.00     0.036 A 
ATOM      3  C   UNK d   1      18.851 -53.152  36.174  0.00  0.00     0.054 A 
ATOM      4  C   UNK d   1      17.904 -54.075  36.624  0.00  0.00     0.055 A 
ATOM      5  C   UNK d   1      17.037 -53.685  37.634  0.00  0.00     0.037 A 
ATOM      6  C   UNK d   1      17.101 -52.426  38.181  0.00  0.00     0.019 A 
ATOM      7  C   UNK d   1      18.034 -51.529  37.729  0.00  0.00     0.025 A 
ATOM      8  C   UNK d   1      16.022 -54.626  38.142  0.00  0.00     0.141 A 
ATOM      9  N   UNK d   1      15.114 -54.524  39.052  0.00  0.00    -0.270 NA
ATOM     10  C   UNK d   1      14.345 -55.729  39.200  0.00  0.00     0.171 A 
ATOM     11  C   UNK d   1      14.933 -56.667  38.191  0.00  0.00     0.157 A 
ATOM     12  N   UNK d   1      15.983 -55.914  37.559  0.00  0.00    -0.281 N 
ATOM     13  C   UNK d   1      16.886 -56.283  36.525  0.00  0.00     0.331 A 
ATOM     14  O   UNK d   1      16.869 -57.429  35.992  0.00  0.00    -0.246 OA
ATOM     15  N   UNK d   1      17.878 -55.367  36.027  0.00  0.00    -0.290 N 
ENDROOT
BRANCH  15  16
ATOM     16  C   UNK d   1      18.793 -55.768  34.968  0.00  0.00     0.236 C 
BRANCH  16  17
ATOM     17  C   UNK d   1      18.091 -55.879  33.669  0.00  0.00     0.236 C 
ATOM     18  O   UNK d   1      17.620 -54.833  33.159  0.00  0.00    -0.272 OA
ATOM     19  N   UNK d   1      17.928 -57.104  32.979  0.00  0.00    -0.359 N 
ATOM     20  H   UNK d   1      18.325 -57.961  33.414  0.00  0.00     0.162 HD
BRANCH  19  21
ATOM     21  C   UNK d   1      17.240 -57.184  31.713  0.00  0.00     0.127 C 
BRANCH  21  22
ATOM     22  C   UNK d   1      18.211 -57.544  30.620  0.00  0.00     0.003 A 
ATOM     23  C   UNK d   1      19.590 -56.988  30.655  0.00  0.00     0.007 A 
ATOM     24  C   UNK d   1      18.615 -56.447  29.680  0.00  0.00     0.007 A 
ENDBRANCH  21  22
ENDBRANCH  19  21
ENDBRANCH  16  17
ENDBRANCH  15  16
TORSDOF 4
ENDMDL
