MODEL 1
REMARK VINA RESULT:    -9.650      0.000      0.000
REMARK INTER + INTRA:         -14.483
REMARK INTER:                 -13.317
REMARK INTRA:                  -1.166
REMARK UNBOUND:                -1.166
REMARK  7 active torsions:
REMARK  status: ('A' for Active; 'I' for Inactive)
REMARK    1  A    between atoms: C_5  and  C_8 
REMARK    2  A    between atoms: C_8  and  O_9 
REMARK    3  A    between atoms: C_8  and  C_10 
REMARK    4  A    between atoms: N_17  and  C_20 
REMARK    5  A    between atoms: C_20  and  C_21 
REMARK    6  A    between atoms: C_21  and  C_22 
REMARK    7  A    between atoms: C_22  and  O_23 
ROOT
ATOM      1  C   UNK d   1      17.863 -55.215  35.358  0.00  0.00     0.269 C 
ATOM      2  N   UNK d   1      16.523 -55.676  35.696  0.00  0.00     0.116 N 
ATOM      3  C   UNK d   1      16.314 -56.915  34.974  0.00  0.00     0.279 A 
ATOM      4  C   UNK d   1      17.689 -57.516  34.952  0.00  0.00     0.147 C 
ATOM      5  C   UNK d   1      18.623 -56.358  34.797  0.00  0.00     0.131 C 
ATOM      6  C   UNK d   1      18.882 -56.234  33.336  0.00  0.00     0.233 C 
ATOM      7  O   UNK d   1      19.397 -55.254  32.749  0.00  0.00    -0.272 OA
ATOM      8  N   UNK d   1      18.424 -57.466  32.736  0.00  0.00    -0.287 N 
ATOM      9  C   UNK d   1      17.978 -58.332  33.759  0.00  0.00     0.234 C 
ATOM     10  O   UNK d   1      17.842 -59.578  33.693  0.00  0.00    -0.272 OA
ATOM     11  C   UNK d   1      15.340 -57.800  35.658  0.00  0.00     0.017 A 
ATOM     12  C   UNK d   1      14.284 -57.968  34.793  0.00  0.00     0.044 A 
ATOM     13  C   UNK d   1      13.217 -58.765  35.185  0.00  0.00     0.030 A 
ATOM     14  C   UNK d   1      13.245 -59.364  36.422  0.00  0.00     0.002 A 
ATOM     15  C   UNK d   1      14.304 -59.203  37.299  0.00  0.00     0.001 A 
ATOM     16  C   UNK d   1      15.357 -58.408  36.897  0.00  0.00     0.012 A 
ATOM     17  N   UNK d   1      14.495 -57.235  33.573  0.00  0.00    -0.324 N 
ATOM     18  C   UNK d   1      15.745 -56.579  33.681  0.00  0.00     0.267 A 
ATOM     19  O   UNK d   1      16.223 -55.851  32.795  0.00  0.00    -0.270 OA
ATOM     20  H   UNK d   1      15.824 -54.966  35.452  0.00  0.00     0.318 HD
ATOM     21  H   UNK d   1      13.809 -57.230  32.784  0.00  0.00     0.169 HD
ENDROOT
BRANCH   1  22
ATOM     22  C   UNK d   1      18.434 -54.648  36.630  0.00  0.00     0.185 C 
BRANCH  22  23
ATOM     23  C   UNK d   1      18.893 -53.237  36.487  0.00  0.00    -0.028 A 
ATOM     24  C   UNK d   1      18.329 -52.230  37.269  0.00  0.00     0.011 A 
ATOM     25  C   UNK d   1      18.719 -50.922  37.142  0.00  0.00     0.024 A 
ATOM     26  C   UNK d   1      19.689 -50.540  36.235  0.00  0.00     0.034 A 
ATOM     27 Cl   UNK d   1      20.198 -48.869  36.063  0.00  0.00    -0.084 Cl
ATOM     28  C   UNK d   1      20.231 -51.551  35.474  0.00  0.00     0.024 A 
ATOM     29  C   UNK d   1      19.857 -52.870  35.581  0.00  0.00     0.011 A 
ENDBRANCH  22  23
BRANCH  22  30
ATOM     30  O   UNK d   1      17.592 -54.738  37.708  0.00  0.00    -0.389 OA
ATOM     31  H   UNK d   1      16.794 -54.181  37.521  0.00  0.00     0.210 HD
ENDBRANCH  22  30
ENDBRANCH   1  22
BRANCH   8  32
ATOM     32  C   UNK d   1      18.416 -57.746  31.330  0.00  0.00     0.137 C 
BRANCH  32  33
ATOM     33  C   UNK d   1      19.738 -58.001  30.710  0.00  0.00     0.046 C 
BRANCH  33  34
ATOM     34  C   UNK d   1      20.230 -56.987  29.738  0.00  0.00     0.168 C 
BRANCH  34  35
ATOM     35  O   UNK d   1      21.300 -56.241  30.213  0.00  0.00    -0.396 OA
ATOM     36  C   UNK d   1      22.473 -56.617  29.525  0.00  0.00     0.201 C 
ENDBRANCH  34  35
ENDBRANCH  33  34
ENDBRANCH  32  33
ENDBRANCH   8  32
TORSDOF 7
ENDMDL
