/Users/jonathanwahrer/Desktop/Msc/3_Semester/Drug_Design_Praktikum/waehrer_HTS_screening/HTS_experiment/out/docking_results/vina_output/6s1j/1958_docked.pdbqt
 OpenBabel03222222313D

 28 31  0  0  1  0  0  0  0  0999 V2000
   19.9430  -54.1640   34.4180 C   0  0  0  0  0  0  0  0  0  0  0  0
   20.7160  -53.2010   34.0800 O   0  0  0  0  0  0  0  0  0  0  0  0
   19.0680  -54.7670   33.5030 N   0  0  0  0  0  0  0  0  0  0  0  0
   18.2020  -55.8410   33.8730 C   0  0  0  0  0  2  0  0  0  0  0  0
   17.8290  -56.7560   32.7410 C   0  0  0  0  0  2  0  0  0  0  0  0
   18.8610  -56.7000   31.6780 C   0  0  2  0  0  3  0  0  0  0  0  0
   19.4740  -55.5050   31.3490 C   0  0  0  0  0  0  0  0  0  0  0  0
   20.4020  -55.4440   30.3880 N   0  0  0  0  0  0  0  0  0  0  0  0
   20.7980  -56.5260   29.6840 C   0  0  2  0  0  3  0  0  0  0  0  0
   20.2010  -57.6990   30.0030 N   0  0  0  0  0  0  0  0  0  0  0  0
   19.2640  -57.8110   30.9600 C   0  0  0  0  0  0  0  0  0  0  0  0
   19.0320  -54.3000   32.1450 C   0  0  0  0  0  2  0  0  0  0  0  0
   20.0210  -54.6150   35.8440 C   0  0  0  0  0  2  0  0  0  0  0  0
   19.0210  -53.9270   36.6760 C   0  0  0  0  0  0  0  0  0  0  0  0
   19.0410  -52.5720   36.9270 C   0  0  0  0  0  3  0  0  0  0  0  0
   18.0910  -51.9560   37.7130 C   0  0  0  0  0  3  0  0  0  0  0  0
   17.0680  -52.7040   38.2860 C   0  0  0  0  0  0  0  0  0  0  0  0
   15.8530  -51.9370   39.2860 Cl  0  0  0  0  0  0  0  0  0  0  0  0
   17.0610  -54.0610   38.0260 C   0  0  0  0  0  3  0  0  0  0  0  0
   18.0110  -54.6750   37.2400 C   0  0  0  0  0  3  0  0  0  0  0  0
   18.6710  -59.0290   31.2610 O   0  0  0  0  0  0  0  0  0  0  0  0
   19.0320  -59.6430   31.9960 H   0  0  0  0  0  0  0  0  0  0  0  0
   21.7800  -56.4080   28.6850 N   0  0  0  0  0  0  0  0  0  0  0  0
   22.5910  -57.5310   28.3210 C   0  0  0  0  0  2  0  0  0  0  0  0
   23.0950  -57.2530   26.8970 C   0  0  0  0  0  2  0  0  0  0  0  0
   23.8800  -56.1280   26.8600 O   0  0  0  0  0  0  0  0  0  0  0  0
   23.3860  -55.0250   27.5010 C   0  0  0  0  0  2  0  0  0  0  0  0
   21.9800  -55.1550   28.0190 C   0  0  0  0  0  2  0  0  0  0  0  0
  1 13  1  0  0  0  0
  2  1  2  0  0  0  0
  3  4  1  0  0  0  0
  3  1  1  0  0  0  0
  5  4  1  0  0  0  0
  6  5  1  6  0  0  0
  7  6  1  0  0  0  0
  7 12  1  0  0  0  0
  8  7  2  0  0  0  0
  9 23  1  1  0  0  0
  9 10  1  0  0  0  0
  9  8  1  0  0  0  0
 10 11  2  0  0  0  0
 11 21  1  0  0  0  0
 11  6  1  0  0  0  0
 12  3  1  0  0  0  0
 13 14  1  0  0  0  0
 14 15  2  0  0  0  0
 14 20  1  0  0  0  0
 15 16  1  0  0  0  0
 16 17  2  0  0  0  0
 17 18  1  0  0  0  0
 19 17  1  0  0  0  0
 20 19  2  0  0  0  0
 21 22  1  0  0  0  0
 24 23  1  0  0  0  0
 25 24  1  0  0  0  0
 26 25  1  0  0  0  0
 26 27  1  0  0  0  0
 27 28  1  0  0  0  0
 28 23  1  0  0  0  0
M  END
>  <Pose>
1

>  <Score>
-9.273

$$$$
