/Users/jonathanwahrer/Desktop/Msc/3_Semester/Drug_Design_Praktikum/waehrer_HTS_screening/HTS_experiment/out/docking_results/vina_output/6s1j/1960_docked.pdbqt
 OpenBabel03222222313D

 28 31  0  0  0  0  0  0  0  0999 V2000
   14.2130  -56.5220   38.3880 C   0  0  0  0  0  0  0  0  0  0  0  0
   13.2290  -55.8110   38.0540 O   0  0  0  0  0  0  0  0  0  0  0  0
   14.3880  -57.7660   37.7610 N   0  0  0  0  0  0  0  0  0  0  0  0
   13.4430  -58.2390   36.7330 C   0  0  0  0  0  2  0  0  0  0  0  0
   14.2390  -58.9650   35.6600 C   0  0  0  0  0  2  0  0  0  0  0  0
   15.5700  -58.3930   35.6700 N   0  0  0  0  0  0  0  0  0  0  0  0
   16.3960  -58.7590   36.8080 C   0  0  0  0  0  2  0  0  0  0  0  0
   15.4790  -58.6880   38.0420 C   0  0  0  0  0  2  0  0  0  0  0  0
   16.0250  -57.5230   34.6450 C   0  0  0  0  0  0  0  0  0  0  0  0
   15.2390  -57.2970   33.5300 C   0  0  0  0  0  3  0  0  0  0  0  0
   15.7050  -56.4660   32.5520 N   0  0  0  0  0  0  0  0  0  0  0  0
   16.8780  -55.8660   32.6200 N   0  0  0  0  0  0  0  0  0  0  0  0
   17.7060  -56.0450   33.6950 C   0  0  0  0  0  0  0  0  0  0  0  0
   17.2370  -56.8740   34.6670 C   0  0  0  0  0  3  0  0  0  0  0  0
   18.9490  -55.3740   33.7010 N   0  0  0  0  0  0  0  0  0  0  0  0
   19.5310  -54.8920   34.9400 C   0  0  0  0  0  2  0  0  0  0  0  0
   20.0730  -53.4730   34.7590 C   0  0  0  0  0  2  0  0  0  0  0  0
   20.8280  -53.3590   33.6090 O   0  0  0  0  0  0  0  0  0  0  0  0
   20.0010  -53.6110   32.5260 C   0  0  0  0  0  2  0  0  0  0  0  0
   19.7050  -55.1210   32.5010 C   0  0  0  0  0  2  0  0  0  0  0  0
   15.1180  -55.9880   39.4230 C   0  0  0  0  0  2  0  0  0  0  0  0
   15.9150  -54.8410   38.9120 C   0  0  0  0  0  0  0  0  0  0  0  0
   15.6130  -53.5540   39.3500 C   0  0  0  0  0  3  0  0  0  0  0  0
   16.3310  -52.4620   38.9000 C   0  0  0  0  0  3  0  0  0  0  0  0
   17.3780  -52.6290   37.9920 C   0  0  0  0  0  0  0  0  0  0  0  0
   18.2860  -51.2620   37.4210 Cl  0  0  0  0  0  0  0  0  0  0  0  0
   17.6630  -53.9060   37.5700 C   0  0  0  0  0  3  0  0  0  0  0  0
   16.9400  -55.0090   38.0230 C   0  0  0  0  0  3  0  0  0  0  0  0
  1 21  1  0  0  0  0
  2  1  2  0  0  0  0
  3  8  1  0  0  0  0
  3  1  1  0  0  0  0
  4  3  1  0  0  0  0
  5  6  1  0  0  0  0
  5  4  1  0  0  0  0
  6  7  1  0  0  0  0
  7  8  1  0  0  0  0
  9 14  1  0  0  0  0
  9  6  1  0  0  0  0
 10  9  2  0  0  0  0
 11 12  2  0  0  0  0
 11 10  1  0  0  0  0
 12 13  1  0  0  0  0
 13 15  1  0  0  0  0
 13 14  2  0  0  0  0
 15 16  1  0  0  0  0
 17 16  1  0  0  0  0
 18 17  1  0  0  0  0
 19 18  1  0  0  0  0
 20 19  1  0  0  0  0
 20 15  1  0  0  0  0
 22 23  1  0  0  0  0
 22 21  1  0  0  0  0
 24 23  2  0  0  0  0
 25 24  1  0  0  0  0
 26 25  1  0  0  0  0
 27 25  2  0  0  0  0
 27 28  1  0  0  0  0
 28 22  2  0  0  0  0
M  END
>  <Pose>
1

>  <Score>
-9.733

$$$$
