MODEL 1
REMARK VINA RESULT:    -9.427      0.000      0.000
REMARK INTER + INTRA:         -11.690
REMARK INTER:                 -11.081
REMARK INTRA:                  -0.609
REMARK UNBOUND:                -0.609
REMARK  3 active torsions:
REMARK  status: ('A' for Active; 'I' for Inactive)
REMARK    1  A    between atoms: C_6  and  C_7 
REMARK       I    between atoms: C_7  and  N_9 
REMARK    2  A    between atoms: C_10  and  C_11 
REMARK    3  A    between atoms: N_12  and  C_16 
ROOT
ATOM      1  C   UNK d   1      14.927 -56.526  38.550  0.00  0.00     0.275 C 
ATOM      2  O   UNK d   1      14.714 -56.558  39.825  0.00  0.00    -0.266 OA
ATOM      3  N   UNK d   1      14.407 -57.432  37.660  0.00  0.00    -0.348 N 
ATOM      4  C   UNK d   1      13.890 -58.332  36.775  0.00  0.00     0.205 C 
ATOM      5  H   UNK d   1      13.787 -58.100  38.679  0.00  0.00     0.163 HD
ENDROOT
BRANCH   1   6
ATOM      6  C   UNK d   1      15.805 -55.378  38.201  0.00  0.00     0.183 A 
ATOM      7  C   UNK d   1      16.853 -55.329  37.317  0.00  0.00     0.231 A 
ATOM      8  F   UNK d   1      17.333 -56.344  36.555  0.00  0.00    -0.183 F 
ATOM      9  N   UNK d   1      17.400 -54.076  37.284  0.00  0.00    -0.279 N 
ATOM     10  C   UNK d   1      16.680 -53.352  38.156  0.00  0.00     0.137 A 
ATOM     11  C   UNK d   1      18.422 -53.547  36.591  0.00  0.00     0.125 A 
ATOM     12  N   UNK d   1      15.730 -54.129  38.702  0.00  0.00    -0.220 NA
ATOM     13  C   UNK d   1      17.029 -52.034  38.318  0.00  0.00     0.053 A 
ATOM     14  C   UNK d   1      18.084 -51.446  37.617  0.00  0.00     0.029 A 
ATOM     15  C   UNK d   1      18.795 -52.216  36.736  0.00  0.00     0.050 A 
ATOM     16 Cl   UNK d   1      20.137 -51.538  35.813  0.00  0.00    -0.083 Cl
ENDBRANCH   1   6
BRANCH   4  17
ATOM     17  C   UNK d   1      14.268 -58.117  35.331  0.00  0.00     0.171 A 
ATOM     18  N   UNK d   1      13.991 -58.946  34.321  0.00  0.00    -0.197 N 
ATOM     19  N   UNK d   1      14.480 -58.411  33.215  0.00  0.00    -0.039 NA
ATOM     20  N   UNK d   1      15.060 -57.263  33.489  0.00  0.00    -0.023 NA
ATOM     21  N   UNK d   1      14.924 -57.088  34.804  0.00  0.00    -0.112 NA
BRANCH  18  22
ATOM     22  C   UNK d   1      13.276 -60.170  34.497  0.00  0.00     0.062 A 
ATOM     23  C   UNK d   1      13.980 -61.364  34.374  0.00  0.00     0.032 A 
ATOM     24  C   UNK d   1      13.341 -62.589  34.516  0.00  0.00     0.002 A 
ATOM     25  C   UNK d   1      11.988 -62.661  34.783  0.00  0.00     0.000 A 
ATOM     26  C   UNK d   1      11.297 -61.475  34.905  0.00  0.00     0.002 A 
ATOM     27  C   UNK d   1      11.931 -60.253  34.763  0.00  0.00     0.032 A 
ENDBRANCH  18  22
ENDBRANCH   4  17
TORSDOF 3
ENDMDL
