MODEL 1
REMARK VINA RESULT:    -9.390      0.000      0.000
REMARK INTER + INTRA:         -11.844
REMARK INTER:                 -11.036
REMARK INTRA:                  -0.808
REMARK UNBOUND:                -0.808
REMARK  3 active torsions:
REMARK  status: ('A' for Active; 'I' for Inactive)
REMARK    1  A    between atoms: C_4  and  N_8 
REMARK    2  A    between atoms: C_11  and  C_13 
REMARK    3  A    between atoms: N_18  and  C_21 
ROOT
ATOM      1  C   UNK d   1      17.309 -57.798  33.453  0.00  0.00     0.209 C 
ATOM      2  O   UNK d   1      18.090 -58.925  33.689  0.00  0.00    -0.170 OA
ATOM      3  N   UNK d   1      15.991 -58.113  33.441  0.00  0.00    -0.354 N 
ATOM      4  C   UNK d   1      14.814 -57.302  33.338  0.00  0.00     0.145 C 
ATOM      5  C   UNK d   1      13.631 -58.037  34.000  0.00  0.00     0.161 C 
ATOM      6  N   UNK d   1      14.256 -58.794  35.094  0.00  0.00    -0.211 N 
ATOM      7  C   UNK d   1      15.063 -59.924  34.774  0.00  0.00     0.161 C 
ATOM      8  C   UNK d   1      15.700 -59.582  33.465  0.00  0.00     0.145 C 
ENDROOT
BRANCH   1   9
ATOM      9  C   UNK d   1      18.309 -56.755  33.322  0.00  0.00     0.151 A 
ATOM     10  N   UNK d   1      19.148 -55.883  33.213  0.00  0.00    -0.126 NA
ATOM     11  N   UNK d   1      19.409 -54.878  33.786  0.00  0.00    -0.060 NA
ATOM     12  N   UNK d   1      18.525 -54.795  34.757  0.00  0.00    -0.224 N 
ATOM     13  C   UNK d   1      17.758 -55.845  34.633  0.00  0.00     0.158 A 
BRANCH  12  14
ATOM     14  C   UNK d   1      18.538 -53.681  35.679  0.00  0.00     0.061 A 
ATOM     15  C   UNK d   1      17.639 -53.488  36.670  0.00  0.00     0.055 A 
ATOM     16  C   UNK d   1      17.726 -52.395  37.523  0.00  0.00     0.036 A 
ATOM     17 Cl   UNK d   1      16.606 -52.072  38.808  0.00  0.00    -0.084 Cl
ATOM     18  C   UNK d   1      18.785 -51.444  37.354  0.00  0.00     0.024 A 
ATOM     19  C   UNK d   1      19.677 -51.656  36.361  0.00  0.00     0.004 A 
ATOM     20  C   UNK d   1      19.541 -52.740  35.562  0.00  0.00     0.032 A 
ENDBRANCH  12  14
ENDBRANCH   1   9
BRANCH   6  21
ATOM     21  C   UNK d   1      14.145 -58.328  36.400  0.00  0.00     0.724 A 
ATOM     22  N   UNK d   1      15.051 -57.391  36.910  0.00  0.00    -0.075 NA
ATOM     23  C   UNK d   1      15.024 -56.878  38.089  0.00  0.00     0.138 A 
ATOM     24  C   UNK d   1      14.029 -57.212  39.021  0.00  0.00     0.040 A 
ATOM     25  C   UNK d   1      13.129 -58.146  38.526  0.00  0.00     0.138 A 
ATOM     26  N   UNK d   1      13.212 -58.625  37.342  0.00  0.00    -0.075 NA
ENDBRANCH   6  21
TORSDOF 3
ENDMDL
