/Users/jonathanwahrer/Desktop/Msc/3_Semester/Drug_Design_Praktikum/waehrer_HTS_screening/HTS_experiment/out/docking_results/vina_output/6s1j/1971_docked.pdbqt
 OpenBabel03222222323D

 22 25  0  0  1  0  0  0  0  0999 V2000
   18.3400  -55.0910   34.9370 N   0  0  0  0  0  0  0  0  0  0  0  0
   18.8560  -55.2750   33.6050 C   0  0  0  0  0  0  0  0  0  0  0  0
   19.3980  -54.3750   32.9210 O   0  0  0  0  0  0  0  0  0  0  0  0
   18.6480  -56.6570   33.1830 C   0  0  2  0  0  3  0  0  0  0  0  0
   17.5890  -56.8580   32.1500 C   0  0  1  0  0  0  0  0  0  0  0  0
   17.2120  -58.1940   32.4350 O   0  0  0  0  0  0  0  0  0  0  0  0
   16.7750  -57.9580   33.7650 C   0  0  1  0  0  3  0  0  0  0  0  0
   18.0260  -57.3880   34.3840 C   0  0  2  0  0  3  0  0  0  0  0  0
   17.6940  -56.3030   35.3100 C   0  0  0  0  0  0  0  0  0  0  0  0
   16.9430  -56.4050   36.3100 O   0  0  0  0  0  0  0  0  0  0  0  0
   15.8300  -56.8430   33.5450 C   0  0  0  0  0  2  0  0  0  0  0  0
   16.3290  -56.1590   32.4900 C   0  0  0  0  0  2  0  0  0  0  0  0
   18.4300  -53.9370   35.7640 C   0  0  0  0  0  0  0  0  0  0  0  0
   17.4630  -53.6270   36.7070 C   0  0  0  0  0  3  0  0  0  0  0  0
   17.5520  -52.5090   37.5090 C   0  0  0  0  0  0  0  0  0  0  0  0
   16.3220  -52.1310   38.6950 Cl  0  0  0  0  0  0  0  0  0  0  0  0
   18.6210  -51.6430   37.4010 C   0  0  0  0  0  3  0  0  0  0  0  0
   19.5890  -51.9440   36.4650 C   0  0  0  0  0  3  0  0  0  0  0  0
   19.4990  -53.0700   35.6580 C   0  0  0  0  0  3  0  0  0  0  0  0
   18.0360  -56.6950   30.7400 C   0  0  0  0  0  2  0  0  0  0  0  0
   18.0370  -55.3460   30.4100 O   0  0  0  0  0  0  0  0  0  0  0  0
   17.8910  -55.2300   29.4420 H   0  0  0  0  0  0  0  0  0  0  0  0
  1  9  1  0  0  0  0
  1 13  1  0  0  0  0
  2  1  1  0  0  0  0
  3  2  2  0  0  0  0
  4  2  1  1  0  0  0
  4  8  1  0  0  0  0
  5 20  1  6  0  0  0
  5  6  1  0  0  0  0
  5 12  1  0  0  0  0
  5  4  1  0  0  0  0
  6  7  1  0  0  0  0
  7 11  1  6  0  0  0
  7  8  1  0  0  0  0
  8  9  1  1  0  0  0
  9 10  2  0  0  0  0
 12 11  1  0  0  0  0
 13 14  1  0  0  0  0
 14 15  2  0  0  0  0
 15 16  1  0  0  0  0
 17 15  1  0  0  0  0
 18 17  2  0  0  0  0
 19 13  2  0  0  0  0
 19 18  1  0  0  0  0
 21 20  1  0  0  0  0
 22 21  1  0  0  0  0
M  END
>  <Pose>
1

>  <Score>
-9.011

$$$$
