MODEL 1
REMARK VINA RESULT:    -8.744      0.000      0.000
REMARK INTER + INTRA:          -8.200
REMARK INTER:                  -9.256
REMARK INTRA:                   1.056
REMARK UNBOUND:                 1.056
REMARK  1 active torsions:
REMARK  status: ('A' for Active; 'I' for Inactive)
REMARK       I    between atoms: N_10  and  C_13 
REMARK    1  A    between atoms: C_13  and  C_15 
ROOT
ATOM      1 Cl   UNK d   1      18.474 -51.945  37.087  0.00  0.00    -0.083 Cl
ATOM      2  C   UNK d   1      17.270 -53.040  37.763  0.00  0.00     0.050 A 
ATOM      3  C   UNK d   1      17.171 -54.356  37.362  0.00  0.00     0.125 A 
ATOM      4  N   UNK d   1      16.253 -55.213  37.870  0.00  0.00    -0.271 N 
ATOM      5  C   UNK d   1      15.370 -54.826  38.809  0.00  0.00     0.137 A 
ATOM      6  N   UNK d   1      14.441 -55.671  39.330  0.00  0.00    -0.234 NA
ATOM      7  C   UNK d   1      14.339 -56.956  38.944  0.00  0.00     0.051 A 
ATOM      8  C   UNK d   1      15.244 -57.372  37.973  0.00  0.00     0.053 A 
ATOM      9  C   UNK d   1      15.132 -58.791  37.545  0.00  0.00     0.172 C 
ATOM     10  N   UNK d   1      13.696 -59.020  37.346  0.00  0.00    -0.347 N 
ATOM     11  C   UNK d   1      12.837 -58.878  38.487  0.00  0.00     0.132 C 
ATOM     12  C   UNK d   1      13.330 -57.890  39.506  0.00  0.00     0.080 C 
ATOM     13  C   UNK d   1      13.192 -59.360  36.072  0.00  0.00     0.224 C 
ATOM     14  O   UNK d   1      14.038 -59.447  35.119  0.00  0.00    -0.273 OA
ATOM     15  C   UNK d   1      16.175 -56.493  37.463  0.00  0.00     0.263 A 
ATOM     16  O   UNK d   1      16.993 -56.899  36.576  0.00  0.00    -0.267 OA
ATOM     17  C   UNK d   1      15.451 -53.508  39.225  0.00  0.00     0.053 A 
ATOM     18  C   UNK d   1      16.377 -52.616  38.724  0.00  0.00     0.029 A 
ENDROOT
BRANCH  13  19
ATOM     19  C   UNK d   1      11.756 -59.614  35.816  0.00  0.00     0.082 C 
ATOM     20  C   UNK d   1      11.204 -60.714  36.696  0.00  0.00     0.040 C 
ATOM     21  C   UNK d   1      12.272 -61.800  36.720  0.00  0.00     0.168 C 
ATOM     22  O   UNK d   1      12.863 -61.919  35.464  0.00  0.00    -0.391 OA
ATOM     23  C   UNK d   1      11.956 -61.616  34.439  0.00  0.00     0.168 C 
ATOM     24  C   UNK d   1      11.626 -60.137  34.378  0.00  0.00     0.040 C 
ENDBRANCH  13  19
TORSDOF 1
ENDMDL
