/Users/jonathanwahrer/Desktop/Msc/3_Semester/Drug_Design_Praktikum/waehrer_HTS_screening/HTS_experiment/out/docking_results/vina_output/6s1j/1973_docked.pdbqt
 OpenBabel03222222323D

 24 27  0  0  1  0  0  0  0  0999 V2000
   18.4740  -51.9450   37.0870 Cl  0  0  0  0  0  0  0  0  0  0  0  0
   17.2700  -53.0400   37.7630 C   0  0  0  0  0  0  0  0  0  0  0  0
   17.1710  -54.3560   37.3620 C   0  0  0  0  0  2  0  0  0  0  0  0
   16.2530  -55.2130   37.8700 N   0  0  0  0  0  0  0  0  0  0  0  0
   15.3700  -54.8260   38.8090 C   0  0  0  0  0  0  0  0  0  0  0  0
   14.4410  -55.6710   39.3300 N   0  0  0  0  0  0  0  0  0  0  0  0
   14.3390  -56.9560   38.9440 C   0  0  0  0  0  0  0  0  0  0  0  0
   15.2440  -57.3720   37.9730 C   0  0  2  0  0  3  0  0  0  0  0  0
   15.1320  -58.7910   37.5450 C   0  0  0  0  0  2  0  0  0  0  0  0
   13.6960  -59.0200   37.3460 N   0  0  0  0  0  0  0  0  0  0  0  0
   12.8370  -58.8780   38.4870 C   0  0  0  0  0  2  0  0  0  0  0  0
   13.3300  -57.8900   39.5060 C   0  0  0  0  0  2  0  0  0  0  0  0
   13.1920  -59.3600   36.0720 C   0  0  0  0  0  0  0  0  0  0  0  0
   14.0380  -59.4470   35.1190 O   0  0  0  0  0  0  0  0  0  0  0  0
   16.1750  -56.4930   37.4630 C   0  0  0  0  0  0  0  0  0  0  0  0
   16.9930  -56.8990   36.5760 O   0  0  0  0  0  0  0  0  0  0  0  0
   15.4510  -53.5080   39.2250 C   0  0  0  0  0  3  0  0  0  0  0  0
   16.3770  -52.6160   38.7240 C   0  0  0  0  0  3  0  0  0  0  0  0
   11.7560  -59.6140   35.8160 C   0  0  0  0  0  3  0  0  0  0  0  0
   11.2040  -60.7140   36.6960 C   0  0  0  0  0  2  0  0  0  0  0  0
   12.2720  -61.8000   36.7200 C   0  0  0  0  0  2  0  0  0  0  0  0
   12.8630  -61.9190   35.4640 O   0  0  0  0  0  0  0  0  0  0  0  0
   11.9560  -61.6160   34.4390 C   0  0  0  0  0  2  0  0  0  0  0  0
   11.6260  -60.1370   34.3780 C   0  0  0  0  0  2  0  0  0  0  0  0
  1  2  1  0  0  0  0
  2 18  2  0  0  0  0
  3  2  1  0  0  0  0
  3  4  1  0  0  0  0
  4  5  1  0  0  0  0
  5 17  2  0  0  0  0
  5  6  1  0  0  0  0
  7  6  2  0  0  0  0
  7 12  1  0  0  0  0
  8  9  1  1  0  0  0
  8  7  1  0  0  0  0
 10  9  1  0  0  0  0
 10 11  1  0  0  0  0
 11 12  1  0  0  0  0
 13 10  1  0  0  0  0
 14 13  2  0  0  0  0
 15  4  1  0  0  0  0
 15  8  1  0  0  0  0
 16 15  2  0  0  0  0
 18 17  1  0  0  0  0
 19 13  1  0  0  0  0
 19 20  1  0  0  0  0
 20 21  1  0  0  0  0
 22 21  1  0  0  0  0
 23 22  1  0  0  0  0
 24 23  1  0  0  0  0
 24 19  1  0  0  0  0
M  END
>  <Pose>
1

>  <Score>
-8.744

$$$$
