/Users/jonathanwahrer/Desktop/Msc/3_Semester/Drug_Design_Praktikum/waehrer_HTS_screening/HTS_experiment/out/docking_results/vina_output/6s1j/1976_docked.pdbqt
 OpenBabel03222222323D

 26 29  0  0  0  0  0  0  0  0999 V2000
   16.2560  -57.9610   34.7850 C   0  0  0  0  0  0  0  0  0  0  0  0
   15.0480  -58.2630   34.4890 O   0  0  0  0  0  0  0  0  0  0  0  0
   17.1620  -57.4670   33.8100 N   0  0  0  0  0  0  0  0  0  0  0  0
   18.4900  -57.1430   34.1970 C   0  0  0  0  0  2  0  0  0  0  0  0
   18.8220  -55.7540   33.6390 C   0  0  0  0  0  2  0  0  0  0  0  0
   18.7650  -55.9750   32.1420 C   0  0  0  0  0  0  0  0  0  0  0  0
   17.7480  -56.7410   31.6100 C   0  0  0  0  0  0  0  0  0  0  0  0
   17.7230  -56.9390   30.2610 N   0  0  0  0  0  0  0  0  0  0  0  0
   18.6440  -56.4190   29.4350 C   0  0  0  0  0  3  0  0  0  0  0  0
   19.6280  -55.6750   29.9700 N   0  0  0  0  0  0  0  0  0  0  0  0
   19.7080  -55.4400   31.3130 C   0  0  0  0  0  0  0  0  0  0  0  0
   16.7010  -57.3270   32.4700 C   0  0  0  0  0  2  0  0  0  0  0  0
   16.6790  -58.1490   36.2100 C   0  0  0  0  0  2  0  0  0  0  0  0
   16.2400  -56.9850   37.0380 C   0  0  0  0  0  0  0  0  0  0  0  0
   15.2010  -57.0680   37.9440 C   0  0  0  0  0  0  0  0  0  0  0  0
   14.3850  -58.6010   38.1020 Cl  0  0  0  0  0  0  0  0  0  0  0  0
   14.8270  -55.9670   38.6970 C   0  0  0  0  0  3  0  0  0  0  0  0
   15.4630  -54.7440   38.5830 C   0  0  0  0  0  0  0  0  0  0  0  0
   16.5050  -54.6460   37.6810 C   0  0  0  0  0  0  0  0  0  0  0  0
   15.1320  -53.6250   39.3040 O   0  0  0  0  0  0  0  0  0  0  0  0
   16.8650  -55.7550   36.9390 C   0  0  0  0  0  3  0  0  0  0  0  0
   17.1400  -53.4260   37.5690 O   0  0  0  0  0  0  0  0  0  0  0  0
   17.0870  -52.3940   38.5330 C   0  0  0  0  0  2  0  0  0  0  0  0
   15.9780  -52.5270   39.5160 C   0  0  0  0  0  2  0  0  0  0  0  0
   20.7190  -54.6760   31.8660 O   0  0  0  0  0  0  0  0  0  0  0  0
   21.3870  -54.2450   31.2380 H   0  0  0  0  0  0  0  0  0  0  0  0
  1 13  1  0  0  0  0
  2  1  2  0  0  0  0
  3  4  1  0  0  0  0
  3  1  1  0  0  0  0
  5  4  1  0  0  0  0
  6  5  1  0  0  0  0
  7  6  2  0  0  0  0
  7 12  1  0  0  0  0
  8  7  1  0  0  0  0
  9 10  1  0  0  0  0
  9  8  2  0  0  0  0
 10 11  2  0  0  0  0
 11 25  1  0  0  0  0
 11  6  1  0  0  0  0
 12  3  1  0  0  0  0
 13 14  1  0  0  0  0
 14 15  1  0  0  0  0
 15 16  1  0  0  0  0
 15 17  2  0  0  0  0
 18 17  1  0  0  0  0
 18 20  1  0  0  0  0
 19 18  2  0  0  0  0
 20 24  1  0  0  0  0
 21 14  2  0  0  0  0
 21 19  1  0  0  0  0
 22 19  1  0  0  0  0
 22 23  1  0  0  0  0
 23 24  1  0  0  0  0
 26 25  1  0  0  0  0
M  END
>  <Pose>
1

>  <Score>
-8.882

$$$$
