MODEL 1
REMARK VINA RESULT:    -8.882      0.000      0.000
REMARK INTER + INTRA:         -10.739
REMARK INTER:                 -10.180
REMARK INTRA:                  -0.559
REMARK UNBOUND:                -0.559
REMARK  3 active torsions:
REMARK  status: ('A' for Active; 'I' for Inactive)
REMARK    1  A    between atoms: C_7  and  C_8 
REMARK    2  A    between atoms: C_8  and  C_9 
REMARK       I    between atoms: C_9  and  N_11 
REMARK    3  A    between atoms: C_19  and  O_20 
ROOT
ATOM      1  C   UNK d   1      16.256 -57.961  34.785  0.00  0.00     0.224 C 
ATOM      2  O   UNK d   1      15.048 -58.263  34.489  0.00  0.00    -0.273 OA
ATOM      3  N   UNK d   1      17.162 -57.467  33.810  0.00  0.00    -0.346 N 
ATOM      4  C   UNK d   1      18.490 -57.143  34.197  0.00  0.00     0.131 C 
ATOM      5  C   UNK d   1      18.822 -55.754  33.639  0.00  0.00     0.065 C 
ATOM      6  C   UNK d   1      18.765 -55.975  32.142  0.00  0.00     0.022 A 
ATOM      7  C   UNK d   1      17.748 -56.741  31.610  0.00  0.00     0.064 A 
ATOM      8  N   UNK d   1      17.723 -56.939  30.261  0.00  0.00    -0.244 NA
ATOM      9  C   UNK d   1      18.644 -56.419  29.435  0.00  0.00     0.236 A 
ATOM     10  N   UNK d   1      19.628 -55.675  29.970  0.00  0.00    -0.217 NA
ATOM     11  C   UNK d   1      19.708 -55.440  31.313  0.00  0.00     0.171 A 
ATOM     12  C   UNK d   1      16.701 -57.327  32.470  0.00  0.00     0.185 C 
ENDROOT
BRANCH   1  13
ATOM     13  C   UNK d   1      16.679 -58.149  36.210  0.00  0.00     0.143 C 
BRANCH  13  14
ATOM     14  C   UNK d   1      16.240 -56.985  37.038  0.00  0.00    -0.025 A 
ATOM     15  C   UNK d   1      15.201 -57.068  37.944  0.00  0.00     0.043 A 
ATOM     16 Cl   UNK d   1      14.385 -58.601  38.102  0.00  0.00    -0.084 Cl
ATOM     17  C   UNK d   1      14.827 -55.967  38.697  0.00  0.00     0.064 A 
ATOM     18  C   UNK d   1      15.463 -54.744  38.583  0.00  0.00     0.103 A 
ATOM     19  C   UNK d   1      16.505 -54.646  37.681  0.00  0.00     0.102 A 
ATOM     20  O   UNK d   1      15.132 -53.625  39.304  0.00  0.00    -0.346 OA
ATOM     21  C   UNK d   1      16.865 -55.755  36.939  0.00  0.00     0.049 A 
ATOM     22  O   UNK d   1      17.140 -53.426  37.569  0.00  0.00    -0.346 OA
ATOM     23  C   UNK d   1      17.087 -52.394  38.533  0.00  0.00     0.202 C 
ATOM     24  C   UNK d   1      15.978 -52.527  39.516  0.00  0.00     0.202 C 
ENDBRANCH  13  14
ENDBRANCH   1  13
BRANCH  11  25
ATOM     25  O   UNK d   1      20.719 -54.676  31.866  0.00  0.00    -0.344 OA
ATOM     26  H   UNK d   1      21.387 -54.245  31.238  0.00  0.00     0.219 HD
ENDBRANCH  11  25
TORSDOF 3
ENDMDL
