MODEL 1
REMARK VINA RESULT:    -9.478      0.000      0.000
REMARK INTER + INTRA:         -11.561
REMARK INTER:                 -11.140
REMARK INTRA:                  -0.421
REMARK UNBOUND:                -0.421
REMARK  3 active torsions:
REMARK  status: ('A' for Active; 'I' for Inactive)
REMARK    1  A    between atoms: N_15  and  C_19 
REMARK    2  A    between atoms: C_19  and  C_20 
REMARK    3  A    between atoms: C_20  and  C_21 
REMARK       I    between atoms: C_21  and  N_23 
ROOT
ATOM      1 Cl   UNK d   1      19.627 -50.616  36.476  0.00  0.00    -0.084 Cl
ATOM      2  C   UNK d   1      18.547 -51.897  36.982  0.00  0.00     0.036 A 
ATOM      3  C   UNK d   1      18.501 -53.124  36.355  0.00  0.00     0.055 A 
ATOM      4  C   UNK d   1      17.653 -54.142  36.742  0.00  0.00     0.077 A 
ATOM      5  C   UNK d   1      16.816 -53.903  37.815  0.00  0.00     0.038 A 
ATOM      6  C   UNK d   1      16.854 -52.680  38.452  0.00  0.00     0.019 A 
ATOM      7  C   UNK d   1      17.701 -51.662  38.063  0.00  0.00     0.025 A 
ATOM      8  C   UNK d   1      15.900 -54.980  38.250  0.00  0.00     0.153 A 
ATOM      9  N   UNK d   1      15.048 -55.020  39.185  0.00  0.00    -0.270 NA
ATOM     10  C   UNK d   1      14.345 -56.282  39.275  0.00  0.00     0.172 A 
ATOM     11  C   UNK d   1      14.914 -57.116  38.174  0.00  0.00     0.171 A 
ATOM     12  N   UNK d   1      15.889 -56.228  37.571  0.00  0.00    -0.160 N 
ATOM     13  C   UNK d   1      16.785 -56.394  36.472  0.00  0.00     0.736 A 
ATOM     14  N   UNK d   1      16.992 -57.445  35.658  0.00  0.00     0.024 NA
ATOM     15  N   UNK d   1      17.924 -57.172  34.762  0.00  0.00    -0.203 N 
ATOM     16  C   UNK d   1      18.310 -55.900  35.031  0.00  0.00     0.364 A 
ATOM     17  O   UNK d   1      19.189 -55.299  34.376  0.00  0.00    -0.244 OA
ATOM     18  N   UNK d   1      17.627 -55.403  36.075  0.00  0.00    -0.090 N 
ENDROOT
BRANCH  15  19
ATOM     19  C   UNK d   1      18.423 -58.046  33.717  0.00  0.00     0.166 C 
BRANCH  19  20
ATOM     20  C   UNK d   1      17.324 -58.252  32.665  0.00  0.00     0.124 C 
BRANCH  20  21
ATOM     21  C   UNK d   1      16.800 -56.940  32.210  0.00  0.00     0.216 C 
ATOM     22  O   UNK d   1      15.632 -56.529  32.426  0.00  0.00    -0.274 OA
ATOM     23  N   UNK d   1      17.675 -56.092  31.484  0.00  0.00    -0.370 N 
ATOM     24  H   UNK d   1      18.363 -56.438  30.790  0.00  0.00     0.159 HD
ATOM     25  H   UNK d   1      17.619 -55.068  31.663  0.00  0.00     0.159 HD
ENDBRANCH  20  21
ENDBRANCH  19  20
ENDBRANCH  15  19
TORSDOF 3
ENDMDL
