MODEL 1
REMARK VINA RESULT:    -7.234      0.000      0.000
REMARK INTER + INTRA:          -7.039
REMARK INTER:                  -7.657
REMARK INTRA:                   0.618
REMARK UNBOUND:                 0.618
REMARK  1 active torsions:
REMARK  status: ('A' for Active; 'I' for Inactive)
REMARK    1  A    between atoms: C_11  and  C_12 
ROOT
ATOM      1 Cl   UNK d   1      19.760 -53.708  35.290  0.00  0.00    -0.084 Cl
ATOM      2  C   UNK d   1      19.326 -54.773  33.964  0.00  0.00     0.034 A 
ATOM      3  C   UNK d   1      18.857 -56.049  34.203  0.00  0.00     0.034 A 
ATOM      4  C   UNK d   1      18.511 -56.900  33.145  0.00  0.00    -0.009 A 
ATOM      5  C   UNK d   1      18.663 -56.400  31.877  0.00  0.00     0.085 A 
ATOM      6  C   UNK d   1      19.141 -55.103  31.639  0.00  0.00     0.039 A 
ATOM      7  C   UNK d   1      19.478 -54.274  32.687  0.00  0.00     0.026 A 
ATOM      8  O   UNK d   1      18.325 -57.225  30.808  0.00  0.00    -0.292 OA
ATOM      9  C   UNK d   1      17.848 -58.515  30.966  0.00  0.00     0.166 A 
ATOM     10  C   UNK d   1      17.695 -59.019  32.248  0.00  0.00     0.075 A 
ATOM     11  C   UNK d   1      18.016 -58.254  33.459  0.00  0.00     0.107 A 
ATOM     12  C   UNK d   1      17.215 -60.309  32.354  0.00  0.00     0.262 A 
ATOM     13  O   UNK d   1      17.054 -60.825  33.505  0.00  0.00    -0.267 OA
ATOM     14  N   UNK d   1      16.896 -61.087  31.307  0.00  0.00    -0.270 N 
ATOM     15  C   UNK d   1      17.061 -60.552  30.073  0.00  0.00     0.332 A 
ATOM     16  O   UNK d   1      16.755 -61.299  29.105  0.00  0.00    -0.246 OA
ATOM     17  N   UNK d   1      17.526 -59.298  29.922  0.00  0.00    -0.283 N 
ATOM     18  C   UNK d   1      17.676 -58.799  28.570  0.00  0.00     0.163 C 
ATOM     19  C   UNK d   1      16.388 -62.448  31.476  0.00  0.00     0.164 C 
ENDROOT
BRANCH  11  20
ATOM     20  C   UNK d   1      16.787 -58.137  34.310  0.00  0.00     0.078 A 
ATOM     21  C   UNK d   1      15.583 -57.752  33.762  0.00  0.00     0.197 A 
ATOM     22  N   UNK d   1      14.475 -57.647  34.545  0.00  0.00    -0.281 N 
ATOM     23  O   UNK d   1      15.510 -57.479  32.425  0.00  0.00    -0.171 OA
ATOM     24  C   UNK d   1      14.543 -57.918  35.873  0.00  0.00     0.332 A 
ATOM     25  C   UNK d   1      13.229 -57.238  33.905  0.00  0.00     0.163 C 
ATOM     26  O   UNK d   1      13.495 -57.809  36.569  0.00  0.00    -0.246 OA
ATOM     27  N   UNK d   1      15.703 -58.294  36.435  0.00  0.00    -0.270 N 
ATOM     28  C   UNK d   1      16.802 -58.400  35.665  0.00  0.00     0.262 A 
ATOM     29  C   UNK d   1      15.741 -58.577  37.866  0.00  0.00     0.164 C 
ATOM     30  O   UNK d   1      17.865 -58.749  36.198  0.00  0.00    -0.267 OA
ENDBRANCH  11  20
TORSDOF 1
ENDMDL
