MODEL 1
REMARK VINA RESULT:   -10.822      0.000      0.000
REMARK INTER + INTRA:         -13.470
REMARK INTER:                 -12.720
REMARK INTRA:                  -0.750
REMARK UNBOUND:                -0.750
REMARK  3 active torsions:
REMARK  status: ('A' for Active; 'I' for Inactive)
REMARK       I    between atoms: N_11  and  C_13 
REMARK    1  A    between atoms: C_13  and  C_15 
REMARK    2  A    between atoms: C_15  and  N_16 
REMARK    3  A    between atoms: C_19  and  C_22 
REMARK       I    between atoms: C_22  and  N_24 
ROOT
ATOM      1 Cl   UNK d   1      11.765 -60.388  36.755  0.00  0.00    -0.084 Cl
ATOM      2  C   UNK d   1      12.944 -59.332  36.016  0.00  0.00     0.034 A 
ATOM      3  C   UNK d   1      14.092 -58.972  36.686  0.00  0.00     0.035 A 
ATOM      4  C   UNK d   1      15.006 -58.142  36.091  0.00  0.00    -0.005 A 
ATOM      5  C   UNK d   1      14.766 -57.663  34.798  0.00  0.00     0.078 A 
ATOM      6  C   UNK d   1      13.614 -58.020  34.116  0.00  0.00     0.039 A 
ATOM      7  C   UNK d   1      12.726 -58.849  34.745  0.00  0.00     0.026 A 
ATOM      8  O   UNK d   1      15.586 -56.821  34.062  0.00  0.00    -0.338 OA
ATOM      9  C   UNK d   1      16.973 -56.624  34.206  0.00  0.00     0.088 C 
ATOM     10  C   UNK d   1      17.327 -56.003  35.518  0.00  0.00     0.164 C 
ATOM     11  N   UNK d   1      16.598 -56.495  36.647  0.00  0.00    -0.344 N 
ATOM     12  C   UNK d   1      16.190 -57.846  36.937  0.00  0.00     0.167 C 
ATOM     13  C   UNK d   1      16.196 -55.546  37.648  0.00  0.00     0.248 C 
ATOM     14  O   UNK d   1      15.561 -55.996  38.634  0.00  0.00    -0.271 OA
ATOM     15  C   UNK d   1      17.700 -57.938  33.964  0.00  0.00     0.066 C 
ATOM     16  C   UNK d   1      18.080 -58.065  32.499  0.00  0.00     0.170 C 
ATOM     17  O   UNK d   1      19.027 -57.135  32.116  0.00  0.00    -0.391 OA
ATOM     18  C   UNK d   1      18.935 -55.985  32.891  0.00  0.00     0.170 C 
ATOM     19  C   UNK d   1      17.468 -55.672  33.115  0.00  0.00     0.066 C 
ENDROOT
BRANCH  13  20
ATOM     20  C   UNK d   1      16.510 -54.123  37.529  0.00  0.00     0.374 C 
BRANCH  20  21
ATOM     21  N   UNK d   1      17.062 -53.472  38.660  0.00  0.00     0.097 N 
ATOM     22  C   UNK d   1      17.304 -52.049  38.407  0.00  0.00     0.273 C 
ATOM     23  C   UNK d   1      18.273 -51.934  37.291  0.00  0.00     0.044 C 
ATOM     24  C   UNK d   1      19.481 -52.806  37.363  0.00  0.00     0.081 C 
ATOM     25  C   UNK d   1      19.466 -53.904  38.352  0.00  0.00     0.044 C 
ATOM     26  C   UNK d   1      18.264 -54.051  39.207  0.00  0.00     0.273 C 
BRANCH  24  27
ATOM     27  C   UNK d   1      19.874 -53.306  36.022  0.00  0.00     0.219 C 
ATOM     28  O   UNK d   1      20.145 -54.515  35.875  0.00  0.00    -0.273 OA
ATOM     29  N   UNK d   1      19.940 -52.417  34.928  0.00  0.00    -0.370 N 
ATOM     30  H   UNK d   1      19.149 -52.498  34.223  0.00  0.00     0.159 HD
ATOM     31  H   UNK d   1      20.667 -51.712  34.755  0.00  0.00     0.159 HD
ENDBRANCH  24  27
ENDBRANCH  20  21
ENDBRANCH  13  20
TORSDOF 3
ENDMDL
