/Users/jonathanwahrer/Desktop/Msc/3_Semester/Drug_Design_Praktikum/waehrer_HTS_screening/HTS_experiment/out/docking_results/vina_output/6s1j/2003_docked.pdbqt
 OpenBabel03222222333D

 28 31  0  0  0  0  0  0  0  0999 V2000
   13.8720  -59.8610   35.1680 N   0  0  0  0  0  0  0  0  0  0  0  0
   13.5870  -58.4740   34.9630 C   0  0  0  0  0  2  0  0  0  0  0  0
   14.7890  -57.5840   35.1410 C   0  0  0  0  0  2  0  0  0  0  0  0
   16.0060  -58.2020   34.6650 N   0  0  0  0  0  0  0  0  0  0  0  0
   16.0510  -59.5050   34.0570 C   0  0  0  0  0  3  0  0  0  0  0  0
   14.9120  -60.4000   34.3670 C   0  0  0  0  0  3  0  0  0  0  0  0
   17.2220  -57.4800   34.8050 C   0  0  0  0  0  0  0  0  0  0  0  0
   18.3300  -57.9700   34.4030 O   0  0  0  0  0  0  0  0  0  0  0  0
   17.2420  -56.1510   35.4140 C   0  0  0  0  0  0  0  0  0  0  0  0
   17.5780  -55.0060   34.7200 C   0  0  0  0  0  3  0  0  0  0  0  0
   17.5740  -53.8140   35.3460 N   0  0  0  0  0  0  0  0  0  0  0  0
   17.2540  -53.6620   36.6440 C   0  0  0  0  0  0  0  0  0  0  0  0
   16.9230  -54.7680   37.3350 N   0  0  0  0  0  0  0  0  0  0  0  0
   17.2600  -52.4150   37.2570 C   0  0  0  0  0  3  0  0  0  0  0  0
   16.5990  -54.6360   38.6370 C   0  0  0  0  0  3  0  0  0  0  0  0
   16.9160  -55.9790   36.7440 C   0  0  0  0  0  0  0  0  0  0  0  0
   16.5970  -53.4110   39.2730 C   0  0  0  0  0  3  0  0  0  0  0  0
   16.9310  -52.2570   38.5920 C   0  0  0  0  0  3  0  0  0  0  0  0
   16.6080  -57.0110   37.3880 O   0  0  0  0  0  0  0  0  0  0  0  0
   12.5050  -60.8440   35.3430 S   0  0  0  0  0  0  0  0  0  0  0  0
   11.3550  -60.3040   34.5840 O   0  0  0  0  0  0  0  0  0  0  0  0
   12.8400  -62.2320   34.8450 O   0  0  0  0  0  0  0  0  0  0  0  0
   12.0970  -60.9490   37.0640 C   0  0  0  0  0  0  0  0  0  0  0  0
   12.4650  -59.8710   38.3320 S   0  0  0  0  0  0  0  0  0  0  0  0
   11.7200  -60.7050   39.6200 C   0  0  0  0  0  0  0  0  0  0  0  0
   11.2000  -61.8130   39.0110 C   0  0  0  0  0  3  0  0  0  0  0  0
   11.6190  -60.2770   41.3400 Cl  0  0  0  0  0  0  0  0  0  0  0  0
   11.3930  -61.9420   37.6950 C   0  0  0  0  0  3  0  0  0  0  0  0
  1 20  1  0  0  0  0
  2  3  1  0  0  0  0
  2  1  1  0  0  0  0
  4  7  1  0  0  0  0
  4  3  1  0  0  0  0
  5  6  2  0  0  0  0
  5  4  1  0  0  0  0
  6  1  1  0  0  0  0
  7  9  1  0  0  0  0
  8  7  2  0  0  0  0
  9 16  1  0  0  0  0
 10 11  1  0  0  0  0
 10  9  2  0  0  0  0
 11 12  2  0  0  0  0
 12 14  1  0  0  0  0
 12 13  1  0  0  0  0
 13 15  1  0  0  0  0
 14 18  2  0  0  0  0
 15 17  2  0  0  0  0
 16 13  1  0  0  0  0
 16 19  2  0  0  0  0
 18 17  1  0  0  0  0
 20 23  1  0  0  0  0
 21 20  2  0  0  0  0
 22 20  2  0  0  0  0
 23 28  2  0  0  0  0
 23 24  1  0  0  0  0
 24 25  1  0  0  0  0
 25 27  1  0  0  0  0
 26 25  2  0  0  0  0
 28 26  1  0  0  0  0
M  END
>  <Pose>
1

>  <Score>
-8.989

$$$$
