MODEL 1
REMARK VINA RESULT:    -8.989      0.000      0.000
REMARK INTER + INTRA:         -10.328
REMARK INTER:                 -10.566
REMARK INTRA:                   0.238
REMARK UNBOUND:                 0.238
REMARK  3 active torsions:
REMARK  status: ('A' for Active; 'I' for Inactive)
REMARK    1  A    between atoms: S_1  and  N_4 
REMARK    2  A    between atoms: S_1  and  C_23 
REMARK       I    between atoms: N_7  and  C_10 
REMARK    3  A    between atoms: C_10  and  C_12 
ROOT
ATOM      1  N   UNK d   1      13.872 -59.861  35.168  0.00  0.00    -0.303 N 
ATOM      2  C   UNK d   1      13.587 -58.474  34.963  0.00  0.00     0.155 C 
ATOM      3  C   UNK d   1      14.789 -57.584  35.141  0.00  0.00     0.146 C 
ATOM      4  N   UNK d   1      16.006 -58.202  34.665  0.00  0.00    -0.345 N 
ATOM      5  C   UNK d   1      16.051 -59.505  34.057  0.00  0.00     0.146 C 
ATOM      6  C   UNK d   1      14.912 -60.400  34.367  0.00  0.00     0.155 C 
ATOM      7  C   UNK d   1      17.222 -57.480  34.805  0.00  0.00     0.260 C 
ATOM      8  O   UNK d   1      18.330 -57.970  34.403  0.00  0.00    -0.267 OA
ENDROOT
BRANCH   7   9
ATOM      9  C   UNK d   1      17.242 -56.151  35.414  0.00  0.00     0.118 A 
ATOM     10  C   UNK d   1      17.578 -55.006  34.720  0.00  0.00     0.141 A 
ATOM     11  N   UNK d   1      17.574 -53.814  35.346  0.00  0.00    -0.242 NA
ATOM     12  C   UNK d   1      17.254 -53.662  36.644  0.00  0.00     0.136 A 
ATOM     13  N   UNK d   1      16.923 -54.768  37.335  0.00  0.00    -0.273 N 
ATOM     14  C   UNK d   1      17.260 -52.415  37.257  0.00  0.00     0.051 A 
ATOM     15  C   UNK d   1      16.599 -54.636  38.637  0.00  0.00     0.102 A 
ATOM     16  C   UNK d   1      16.916 -55.979  36.744  0.00  0.00     0.270 A 
ATOM     17  C   UNK d   1      16.597 -53.411  39.273  0.00  0.00     0.018 A 
ATOM     18  C   UNK d   1      16.931 -52.257  38.592  0.00  0.00     0.005 A 
ATOM     19  O   UNK d   1      16.608 -57.011  37.388  0.00  0.00    -0.266 OA
ENDBRANCH   7   9
BRANCH   1  20
ATOM     20  S   UNK d   1      12.505 -60.844  35.343  0.00  0.00     0.267 S 
ATOM     21  O   UNK d   1      11.355 -60.304  34.584  0.00  0.00    -0.200 OA
ATOM     22  O   UNK d   1      12.840 -62.232  34.845  0.00  0.00    -0.200 OA
BRANCH  20  23
ATOM     23  C   UNK d   1      12.097 -60.949  37.064  0.00  0.00     0.121 A 
ATOM     24  S   UNK d   1      12.465 -59.871  38.332  0.00  0.00    -0.064 SA
ATOM     25  C   UNK d   1      11.720 -60.705  39.620  0.00  0.00     0.075 A 
ATOM     26  C   UNK d   1      11.200 -61.813  39.011  0.00  0.00     0.033 A 
ATOM     27 Cl   UNK d   1      11.619 -60.277  41.340  0.00  0.00    -0.076 Cl
ATOM     28  C   UNK d   1      11.393 -61.942  37.695  0.00  0.00     0.035 A 
ENDBRANCH  20  23
ENDBRANCH   1  20
TORSDOF 3
ENDMDL
