/Users/jonathanwahrer/Desktop/Msc/3_Semester/Drug_Design_Praktikum/waehrer_HTS_screening/HTS_experiment/out/docking_results/vina_output/6s1j/2004_docked.pdbqt
 OpenBabel03222222333D

 29 32  0  0  1  0  0  0  0  0999 V2000
   17.5960  -54.0140   37.3310 S   0  0  0  0  0  0  0  0  0  0  0  0
   17.0190  -52.6130   37.1940 O   0  0  0  0  0  0  0  0  0  0  0  0
   18.6200  -53.8820   38.4580 O   0  0  0  0  0  0  0  0  0  0  0  0
   18.3790  -54.4960   35.9330 N   0  0  0  0  0  0  0  0  0  0  0  0
   19.2470  -53.5930   35.3150 C   0  0  0  0  0  2  0  0  0  0  0  0
   20.0980  -54.2420   34.2130 C   0  0  0  0  0  2  0  0  0  0  0  0
   19.3460  -55.2040   33.4640 N   0  0  0  0  0  0  0  0  0  0  0  0
   18.5070  -56.1290   34.1940 C   0  0  0  0  0  2  0  0  0  0  0  0
   19.4280  -55.2390   32.0670 C   0  0  0  0  0  0  0  0  0  0  0  0
   17.5690  -55.2880   35.0380 C   0  0  0  0  0  2  0  0  0  0  0  0
   20.1640  -54.4240   31.4540 O   0  0  0  0  0  0  0  0  0  0  0  0
   18.6610  -56.2260   31.2430 C   0  0  0  0  0  3  0  0  0  0  0  0
   19.1580  -57.6450   31.3800 C   0  0  0  0  0  2  0  0  0  0  0  0
   20.0770  -57.3680   30.1930 C   0  0  0  0  0  2  0  0  0  0  0  0
   19.1230  -56.2330   29.8080 C   0  0  0  0  0  2  0  0  0  0  0  0
   16.3320  -55.0670   37.9270 C   0  0  0  0  0  0  0  0  0  0  0  0
   16.2070  -56.3560   37.3700 C   0  0  0  0  0  3  0  0  0  0  0  0
   15.1970  -57.2080   37.7550 C   0  0  0  0  0  0  0  0  0  0  0  0
   14.2540  -56.8620   38.6960 C   0  0  0  0  0  0  0  0  0  0  0  0
   15.0970  -58.4790   37.1880 O   0  0  0  0  0  0  0  0  0  0  0  0
   14.3730  -55.6080   39.2420 C   0  0  0  0  0  3  0  0  0  0  0  0
   13.2390  -57.7840   39.0450 N   0  0  0  0  0  0  0  0  0  0  0  0
   15.3950  -54.7250   38.8650 C   0  0  0  0  0  0  0  0  0  0  0  0
   15.5220  -53.1760   39.6640 Cl  0  0  0  0  0  0  0  0  0  0  0  0
   13.1480  -59.0750   38.4550 C   0  0  0  0  0  0  0  0  0  0  0  0
   12.5250  -57.5150   39.7610 H   0  0  0  0  0  0  0  0  0  0  0  0
   12.4530  -60.0120   38.8920 O   0  0  0  0  0  0  0  0  0  0  0  0
   13.9540  -59.2900   37.2250 C   0  0  1  0  0  3  0  0  0  0  0  0
   13.1320  -59.0070   35.9880 C   0  0  0  0  0  1  0  0  0  0  0  0
  1 16  1  0  0  0  0
  1  3  2  0  0  0  0
  2  1  2  0  0  0  0
  4  1  1  0  0  0  0
  5  4  1  0  0  0  0
  6  5  1  0  0  0  0
  7  8  1  0  0  0  0
  7  6  1  0  0  0  0
  8 10  1  0  0  0  0
  9  7  1  0  0  0  0
 10  4  1  0  0  0  0
 11  9  2  0  0  0  0
 12 13  1  0  0  0  0
 12  9  1  0  0  0  0
 14 13  1  0  0  0  0
 15 14  1  0  0  0  0
 15 12  1  0  0  0  0
 16 23  1  0  0  0  0
 17 18  1  0  0  0  0
 17 16  2  0  0  0  0
 18 19  2  0  0  0  0
 19 22  1  0  0  0  0
 19 21  1  0  0  0  0
 20 28  1  0  0  0  0
 20 18  1  0  0  0  0
 22 26  1  0  0  0  0
 23 21  2  0  0  0  0
 23 24  1  0  0  0  0
 25 27  2  0  0  0  0
 25 22  1  0  0  0  0
 28 29  1  6  0  0  0
 28 25  1  0  0  0  0
M  END
>  <Pose>
1

>  <Score>
-9.406

$$$$
