MODEL 1
REMARK VINA RESULT:    -9.406      0.000      0.000
REMARK INTER + INTRA:         -10.403
REMARK INTER:                 -11.056
REMARK INTRA:                   0.653
REMARK UNBOUND:                 0.653
REMARK  3 active torsions:
REMARK  status: ('A' for Active; 'I' for Inactive)
REMARK    1  A    between atoms: S_1  and  N_4 
REMARK    2  A    between atoms: S_1  and  C_16 
REMARK       I    between atoms: N_7  and  C_10 
REMARK    3  A    between atoms: C_10  and  C_12 
ROOT
ATOM      1  S   UNK d   1      17.596 -54.014  37.331  0.00  0.00     0.262 S 
ATOM      2  O   UNK d   1      17.019 -52.613  37.194  0.00  0.00    -0.200 OA
ATOM      3  O   UNK d   1      18.620 -53.882  38.458  0.00  0.00    -0.200 OA
ENDROOT
BRANCH   1   4
ATOM      4  N   UNK d   1      18.379 -54.496  35.933  0.00  0.00    -0.304 N 
ATOM      5  C   UNK d   1      19.247 -53.593  35.315  0.00  0.00     0.155 C 
ATOM      6  C   UNK d   1      20.098 -54.242  34.213  0.00  0.00     0.146 C 
ATOM      7  N   UNK d   1      19.346 -55.204  33.464  0.00  0.00    -0.349 N 
ATOM      8  C   UNK d   1      18.507 -56.129  34.194  0.00  0.00     0.146 C 
ATOM      9  C   UNK d   1      19.428 -55.239  32.067  0.00  0.00     0.224 C 
ATOM     10  C   UNK d   1      17.569 -55.288  35.038  0.00  0.00     0.155 C 
ATOM     11  O   UNK d   1      20.164 -54.424  31.454  0.00  0.00    -0.273 OA
BRANCH   9  12
ATOM     12  C   UNK d   1      18.661 -56.226  31.243  0.00  0.00     0.078 C 
ATOM     13  C   UNK d   1      19.158 -57.645  31.380  0.00  0.00     0.014 C 
ATOM     14  C   UNK d   1      20.077 -57.368  30.193  0.00  0.00     0.002 C 
ATOM     15  C   UNK d   1      19.123 -56.233  29.808  0.00  0.00     0.014 C 
ENDBRANCH   9  12
ENDBRANCH   1   4
BRANCH   1  16
ATOM     16  C   UNK d   1      16.332 -55.067  37.927  0.00  0.00     0.104 A 
ATOM     17  C   UNK d   1      16.207 -56.356  37.370  0.00  0.00     0.066 A 
ATOM     18  C   UNK d   1      15.197 -57.208  37.755  0.00  0.00     0.098 A 
ATOM     19  C   UNK d   1      14.254 -56.862  38.696  0.00  0.00     0.070 A 
ATOM     20  O   UNK d   1      15.097 -58.479  37.188  0.00  0.00    -0.335 OA
ATOM     21  C   UNK d   1      14.373 -55.608  39.242  0.00  0.00     0.058 A 
ATOM     22  N   UNK d   1      13.239 -57.784  39.045  0.00  0.00    -0.323 N 
ATOM     23  C   UNK d   1      15.395 -54.725  38.865  0.00  0.00     0.059 A 
ATOM     24 Cl   UNK d   1      15.522 -53.176  39.664  0.00  0.00    -0.083 Cl
ATOM     25  C   UNK d   1      13.148 -59.075  38.455  0.00  0.00     0.251 C 
ATOM     26  H   UNK d   1      12.525 -57.515  39.761  0.00  0.00     0.169 HD
ATOM     27  O   UNK d   1      12.453 -60.012  38.892  0.00  0.00    -0.270 OA
ATOM     28  C   UNK d   1      13.954 -59.290  37.225  0.00  0.00     0.217 C 
ATOM     29  C   UNK d   1      13.132 -59.007  35.988  0.00  0.00     0.050 C 
ENDBRANCH   1  16
TORSDOF 3
ENDMDL
