/Users/jonathanwahrer/Desktop/Msc/3_Semester/Drug_Design_Praktikum/waehrer_HTS_screening/HTS_experiment/out/docking_results/vina_output/6s1j/2012_docked.pdbqt
 OpenBabel03222222333D

 25 28  0  0  1  0  0  0  0  0999 V2000
   16.0080  -55.5500   37.8030 N   0  0  0  0  0  0  0  0  0  0  0  0
   15.0750  -56.1710   38.6800 C   0  0  0  0  0  0  0  0  0  0  0  0
   14.3630  -55.5590   39.4950 O   0  0  0  0  0  0  0  0  0  0  0  0
   15.0980  -57.6270   38.4620 C   0  0  1  0  0  3  0  0  0  0  0  0
   13.9280  -58.3080   38.5640 O   0  0  0  0  0  0  0  0  0  0  0  0
   14.0610  -59.2820   37.5920 N   0  0  0  0  0  0  0  0  0  0  0  0
   14.7130  -58.6950   36.4630 C   0  0  0  0  0  0  0  0  0  0  0  0
   15.3600  -57.6590   36.9850 C   0  0  0  0  0  0  0  0  0  0  0  0
   16.1950  -56.4970   36.7180 C   0  0  0  0  0  0  0  0  0  0  0  0
   16.9340  -56.3870   35.7070 O   0  0  0  0  0  0  0  0  0  0  0  0
   13.7400  -60.2570   37.7070 H   0  0  0  0  0  0  0  0  0  0  0  0
   16.6580  -54.2870   37.8670 C   0  0  0  0  0  0  0  0  0  0  0  0
   17.8440  -54.0380   37.2170 C   0  0  0  0  0  3  0  0  0  0  0  0
   18.4060  -52.7700   37.3350 C   0  0  0  0  0  0  0  0  0  0  0  0
   19.9260  -52.3900   36.5300 Cl  0  0  0  0  0  0  0  0  0  0  0  0
   17.7810  -51.7970   38.0870 C   0  0  0  0  0  3  0  0  0  0  0  0
   16.5850  -52.0490   38.7390 C   0  0  0  0  0  3  0  0  0  0  0  0
   16.0300  -53.2880   38.6280 C   0  0  0  0  0  3  0  0  0  0  0  0
   14.7220  -59.1440   35.0850 C   0  0  0  0  0  0  0  0  0  0  0  0
   15.2980  -60.3630   34.7130 C   0  0  0  0  0  3  0  0  0  0  0  0
   15.1830  -60.5280   33.3870 N   0  0  0  0  0  0  0  0  0  0  0  0
   14.5540  -59.4600   32.8920 N   0  0  0  0  0  0  0  0  0  0  0  0
   15.6350  -61.6390   32.5560 C   0  0  0  0  0  1  0  0  0  0  0  0
   14.2710  -58.6150   33.9100 C   0  0  0  0  0  0  0  0  0  0  0  0
   13.5910  -57.3030   33.7780 C   0  0  0  0  0  1  0  0  0  0  0  0
  1 12  1  0  0  0  0
  1  2  1  0  0  0  0
  2  3  2  0  0  0  0
  4  8  1  6  0  0  0
  4  5  1  0  0  0  0
  4  2  1  0  0  0  0
  6 11  1  0  0  0  0
  6  5  1  0  0  0  0
  7  8  2  0  0  0  0
  7  6  1  0  0  0  0
  9  8  1  0  0  0  0
  9  1  1  0  0  0  0
 10  9  2  0  0  0  0
 12 18  1  0  0  0  0
 13 14  1  0  0  0  0
 13 12  2  0  0  0  0
 14 16  2  0  0  0  0
 15 14  1  0  0  0  0
 16 17  1  0  0  0  0
 18 17  2  0  0  0  0
 19  7  1  0  0  0  0
 20 19  2  0  0  0  0
 21 20  1  0  0  0  0
 22 21  1  0  0  0  0
 22 24  2  0  0  0  0
 23 21  1  0  0  0  0
 24 19  1  0  0  0  0
 25 24  1  0  0  0  0
M  END
>  <Pose>
1

>  <Score>
-9.855

$$$$
