MODEL 1
REMARK VINA RESULT:    -9.855      0.000      0.000
REMARK INTER + INTRA:         -10.977
REMARK INTER:                 -11.007
REMARK INTRA:                   0.031
REMARK UNBOUND:                 0.031
REMARK  2 active torsions:
REMARK  status: ('A' for Active; 'I' for Inactive)
REMARK    1  A    between atoms: C_4  and  N_8 
REMARK    2  A    between atoms: C_14  and  C_18 
ROOT
ATOM      1  N   UNK d   1      16.008 -55.550  37.803  0.00  0.00    -0.246 N 
ATOM      2  C   UNK d   1      15.075 -56.171  38.680  0.00  0.00     0.268 C 
ATOM      3  O   UNK d   1      14.363 -55.559  39.495  0.00  0.00    -0.269 OA
ATOM      4  C   UNK d   1      15.098 -57.627  38.462  0.00  0.00     0.285 C 
ATOM      5  O   UNK d   1      13.928 -58.308  38.564  0.00  0.00    -0.260 OA
ATOM      6  N   UNK d   1      14.061 -59.282  37.592  0.00  0.00    -0.264 N 
ATOM      7  C   UNK d   1      14.713 -58.695  36.463  0.00  0.00     0.083 C 
ATOM      8  C   UNK d   1      15.360 -57.659  36.985  0.00  0.00     0.080 C 
ATOM      9  C   UNK d   1      16.195 -56.497  36.718  0.00  0.00     0.266 C 
ATOM     10  O   UNK d   1      16.934 -56.387  35.707  0.00  0.00    -0.267 OA
ATOM     11  H   UNK d   1      13.740 -60.257  37.707  0.00  0.00     0.194 HD
ENDROOT
BRANCH   1  12
ATOM     12  C   UNK d   1      16.658 -54.287  37.867  0.00  0.00     0.047 A 
ATOM     13  C   UNK d   1      17.844 -54.038  37.217  0.00  0.00     0.054 A 
ATOM     14  C   UNK d   1      18.406 -52.770  37.335  0.00  0.00     0.036 A 
ATOM     15 Cl   UNK d   1      19.926 -52.390  36.530  0.00  0.00    -0.084 Cl
ATOM     16  C   UNK d   1      17.781 -51.797  38.087  0.00  0.00     0.024 A 
ATOM     17  C   UNK d   1      16.585 -52.049  38.739  0.00  0.00     0.004 A 
ATOM     18  C   UNK d   1      16.030 -53.288  38.628  0.00  0.00     0.030 A 
ENDBRANCH   1  12
BRANCH   7  19
ATOM     19  C   UNK d   1      14.722 -59.144  35.085  0.00  0.00     0.036 A 
ATOM     20  C   UNK d   1      15.298 -60.363  34.713  0.00  0.00     0.127 A 
ATOM     21  N   UNK d   1      15.183 -60.528  33.387  0.00  0.00    -0.284 N 
ATOM     22  N   UNK d   1      14.554 -59.460  32.892  0.00  0.00    -0.177 NA
ATOM     23  C   UNK d   1      15.635 -61.639  32.556  0.00  0.00     0.179 C 
ATOM     24  C   UNK d   1      14.271 -58.615  33.910  0.00  0.00     0.065 A 
ATOM     25  C   UNK d   1      13.591 -57.303  33.778  0.00  0.00     0.073 C 
ENDBRANCH   7  19
TORSDOF 2
ENDMDL
