MODEL 1
REMARK VINA RESULT:    -9.231      0.000      0.000
REMARK INTER + INTRA:          -9.044
REMARK INTER:                 -10.311
REMARK INTRA:                   1.266
REMARK UNBOUND:                 1.266
REMARK  2 active torsions:
REMARK  status: ('A' for Active; 'I' for Inactive)
REMARK    1  A    between atoms: C_4  and  C_10 
REMARK    2  A    between atoms: C_5  and  O_8 
ROOT
ATOM      1  C   UNK d   1      16.747 -55.691  34.186  0.00  0.00     0.188 A 
ATOM      2  N   UNK d   1      15.849 -56.484  34.765  0.00  0.00    -0.107 N 
ATOM      3  C   UNK d   1      15.174 -57.194  33.815  0.00  0.00     0.735 A 
ATOM      4  N   UNK d   1      15.706 -56.799  32.634  0.00  0.00     0.045 NA
ATOM      5  N   UNK d   1      16.638 -55.909  32.838  0.00  0.00    -0.114 NA
ATOM      6  N   UNK d   1      14.266 -58.002  34.383  0.00  0.00    -0.174 N 
ATOM      7  C   UNK d   1      14.320 -57.849  35.701  0.00  0.00     0.165 A 
ATOM      8  C   UNK d   1      15.319 -56.892  35.945  0.00  0.00     0.170 A 
ATOM      9  N   UNK d   1      15.605 -56.544  37.207  0.00  0.00    -0.286 N 
ATOM     10  C   UNK d   1      14.901 -57.137  38.208  0.00  0.00     0.332 A 
ATOM     11  O   UNK d   1      15.192 -56.786  39.394  0.00  0.00    -0.246 OA
ATOM     12  N   UNK d   1      13.945 -58.045  38.031  0.00  0.00    -0.269 N 
ATOM     13  C   UNK d   1      13.659 -58.397  36.776  0.00  0.00     0.282 A 
ATOM     14  O   UNK d   1      12.764 -59.251  36.551  0.00  0.00    -0.265 OA
ATOM     15  C   UNK d   1      13.229 -58.640  39.172  0.00  0.00     0.164 C 
ATOM     16  C   UNK d   1      16.638 -55.603  37.529  0.00  0.00     0.163 C 
ATOM     17  C   UNK d   1      13.362 -58.902  33.696  0.00  0.00     0.176 C 
ENDROOT
BRANCH   1  18
ATOM     18  C   UNK d   1      17.725 -54.743  34.709  0.00  0.00     0.047 A 
ATOM     19  C   UNK d   1      17.378 -53.851  35.721  0.00  0.00     0.037 A 
ATOM     20  C   UNK d   1      18.324 -53.020  36.255  0.00  0.00     0.012 A 
ATOM     21 Br   UNK d   1      17.863 -51.784  37.648  0.00  0.00    -0.051 Br
ATOM     22  C   UNK d   1      19.644 -53.010  35.841  0.00  0.00     0.022 A 
ATOM     23  C   UNK d   1      19.975 -53.902  34.834  0.00  0.00     0.039 A 
ATOM     24  C   UNK d   1      19.040 -54.735  34.295  0.00  0.00     0.082 A 
BRANCH  24  25
ATOM     25  O   UNK d   1      19.365 -55.650  33.269  0.00  0.00    -0.355 OA
ATOM     26  C   UNK d   1      19.775 -55.194  31.993  0.00  0.00     0.210 C 
ENDBRANCH  24  25
ENDBRANCH   1  18
TORSDOF 2
ENDMDL
