/Users/jonathanwahrer/Desktop/Msc/3_Semester/Drug_Design_Praktikum/waehrer_HTS_screening/HTS_experiment/out/docking_results/vina_output/6s1j/2014_docked.pdbqt
 OpenBabel03222222333D

 26 29  0  0  0  0  0  0  0  0999 V2000
   16.7470  -55.6910   34.1860 C   0  0  0  0  0  0  0  0  0  0  0  0
   15.8490  -56.4840   34.7650 N   0  0  0  0  0  0  0  0  0  0  0  0
   15.1740  -57.1940   33.8150 C   0  0  0  0  0  0  0  0  0  0  0  0
   15.7060  -56.7990   32.6340 N   0  0  0  0  0  0  0  0  0  0  0  0
   16.6380  -55.9090   32.8380 N   0  0  0  0  0  0  0  0  0  0  0  0
   14.2660  -58.0020   34.3830 N   0  0  0  0  0  0  0  0  0  0  0  0
   14.3200  -57.8490   35.7010 C   0  0  0  0  0  0  0  0  0  0  0  0
   15.3190  -56.8920   35.9450 C   0  0  0  0  0  0  0  0  0  0  0  0
   15.6050  -56.5440   37.2070 N   0  0  0  0  0  0  0  0  0  0  0  0
   14.9010  -57.1370   38.2080 C   0  0  0  0  0  0  0  0  0  0  0  0
   15.1920  -56.7860   39.3940 O   0  0  0  0  0  0  0  0  0  0  0  0
   13.9450  -58.0450   38.0310 N   0  0  0  0  0  0  0  0  0  0  0  0
   13.6590  -58.3970   36.7760 C   0  0  0  0  0  0  0  0  0  0  0  0
   12.7640  -59.2510   36.5510 O   0  0  0  0  0  0  0  0  0  0  0  0
   13.2290  -58.6400   39.1720 C   0  0  0  0  0  1  0  0  0  0  0  0
   16.6380  -55.6030   37.5290 C   0  0  0  0  0  1  0  0  0  0  0  0
   13.3620  -58.9020   33.6960 C   0  0  0  0  0  1  0  0  0  0  0  0
   17.7250  -54.7430   34.7090 C   0  0  0  0  0  0  0  0  0  0  0  0
   17.3780  -53.8510   35.7210 C   0  0  0  0  0  3  0  0  0  0  0  0
   18.3240  -53.0200   36.2550 C   0  0  0  0  0  0  0  0  0  0  0  0
   17.8630  -51.7840   37.6480 Br  0  0  0  0  0  0  0  0  0  0  0  0
   19.6440  -53.0100   35.8410 C   0  0  0  0  0  3  0  0  0  0  0  0
   19.9750  -53.9020   34.8340 C   0  0  0  0  0  3  0  0  0  0  0  0
   19.0400  -54.7350   34.2950 C   0  0  0  0  0  0  0  0  0  0  0  0
   19.3650  -55.6500   33.2690 O   0  0  0  0  0  0  0  0  0  0  0  0
   19.7750  -55.1940   31.9930 C   0  0  0  0  0  1  0  0  0  0  0  0
  1 18  1  0  0  0  0
  1  2  1  0  0  0  0
  2  8  1  0  0  0  0
  3  6  1  0  0  0  0
  3  2  1  0  0  0  0
  4  5  1  0  0  0  0
  4  3  2  0  0  0  0
  5  1  2  0  0  0  0
  6  7  1  0  0  0  0
  7  8  2  0  0  0  0
  7 13  1  0  0  0  0
  8  9  1  0  0  0  0
  9 16  1  0  0  0  0
  9 10  1  0  0  0  0
 10 11  2  0  0  0  0
 12 10  1  0  0  0  0
 12 15  1  0  0  0  0
 13 12  1  0  0  0  0
 14 13  2  0  0  0  0
 17  6  1  0  0  0  0
 18 19  1  0  0  0  0
 19 20  2  0  0  0  0
 20 21  1  0  0  0  0
 22 20  1  0  0  0  0
 23 22  2  0  0  0  0
 24 18  2  0  0  0  0
 24 23  1  0  0  0  0
 25 24  1  0  0  0  0
 26 25  1  0  0  0  0
M  END
>  <Pose>
1

>  <Score>
-9.231

$$$$
