MODEL 1
REMARK VINA RESULT:    -9.005      0.000      0.000
REMARK INTER + INTRA:         -10.396
REMARK INTER:                 -10.057
REMARK INTRA:                  -0.338
REMARK UNBOUND:                -0.338
REMARK  2 active torsions:
REMARK  status: ('A' for Active; 'I' for Inactive)
REMARK    1  A    between atoms: C_7  and  C_11 
REMARK    2  A    between atoms: C_11  and  N_12 
ROOT
ATOM      1 Cl   UNK d   1      18.457 -50.945  37.342  0.00  0.00    -0.083 Cl
ATOM      2  C   UNK d   1      17.893 -52.600  37.185  0.00  0.00     0.050 A 
ATOM      3  C   UNK d   1      16.907 -53.126  37.997  0.00  0.00     0.125 A 
ATOM      4  N   UNK d   1      16.478 -54.408  37.867  0.00  0.00    -0.272 N 
ATOM      5  C   UNK d   1      16.980 -55.248  36.945  0.00  0.00     0.137 A 
ATOM      6  N   UNK d   1      16.562 -56.520  36.809  0.00  0.00    -0.233 NA
ATOM      7  C   UNK d   1      15.603 -57.040  37.596  0.00  0.00     0.059 A 
ATOM      8  C   UNK d   1      15.075 -56.175  38.556  0.00  0.00     0.103 A 
ATOM      9  C   UNK d   1      15.511 -54.874  38.687  0.00  0.00     0.255 A 
ATOM     10  O   UNK d   1      15.027 -54.090  39.564  0.00  0.00    -0.268 OA
ATOM     11  C   UNK d   1      17.973 -54.745  36.115  0.00  0.00     0.053 A 
ATOM     12  C   UNK d   1      18.422 -53.445  36.232  0.00  0.00     0.029 A 
ENDROOT
BRANCH   7  13
ATOM     13  C   UNK d   1      15.108 -58.437  37.484  0.00  0.00     0.177 C 
BRANCH  13  14
ATOM     14  N   UNK d   1      13.859 -58.438  36.816  0.00  0.00    -0.401 N 
ATOM     15  C   UNK d   1      12.873 -59.349  37.260  0.00  0.00     0.122 C 
ATOM     16  C   UNK d   1      11.904 -59.802  36.179  0.00  0.00     0.061 C 
ATOM     17  C   UNK d   1      12.747 -60.224  35.028  0.00  0.00    -0.013 A 
ATOM     18  C   UNK d   1      13.743 -59.345  34.659  0.00  0.00     0.061 A 
ATOM     19  C   UNK d   1      12.526 -61.424  34.392  0.00  0.00     0.128 A 
ATOM     20  N   UNK d   1      14.530 -59.683  33.627  0.00  0.00    -0.236 NA
ATOM     21  C   UNK d   1      13.865 -58.087  35.436  0.00  0.00     0.177 C 
ATOM     22  C   UNK d   1      14.340 -60.868  32.969  0.00  0.00     0.122 A 
ATOM     23  N   UNK d   1      13.352 -61.706  33.361  0.00  0.00    -0.245 NA
ATOM     24  C   UNK d   1      15.206 -61.254  31.825  0.00  0.00     0.093 C 
ENDBRANCH  13  14
ENDBRANCH   7  13
TORSDOF 2
ENDMDL
