/Users/jonathanwahrer/Desktop/Msc/3_Semester/Drug_Design_Praktikum/waehrer_HTS_screening/HTS_experiment/out/docking_results/vina_output/6s1j/2028_docked.pdbqt
 OpenBabel03222222333D

 31 34  0  0  1  0  0  0  0  0999 V2000
   16.4900  -58.7160   35.2280 Cl  0  0  0  0  0  0  0  0  0  0  0  0
   15.4110  -58.1650   36.5070 C   0  0  0  0  0  0  0  0  0  0  0  0
   14.2150  -58.8770   36.7160 C   0  0  0  0  0  0  0  0  0  0  0  0
   13.3850  -58.4510   37.7100 C   0  0  0  0  0  0  0  0  0  0  0  0
   13.6890  -57.3490   38.4970 C   0  0  0  0  0  3  0  0  0  0  0  0
   14.8650  -56.6710   38.2680 C   0  0  0  0  0  0  0  0  0  0  0  0
   15.7340  -57.0710   37.2780 C   0  0  0  0  0  3  0  0  0  0  0  0
   15.1690  -55.4800   39.1350 C   0  0  0  0  0  1  0  0  0  0  0  0
   12.2690  -59.4410   37.8050 C   0  0  2  0  0  0  0  0  0  0  0  0
   11.0040  -58.8920   38.0920 N   0  0  0  0  0  0  0  0  0  0  0  0
   10.8850  -58.8500   39.5210 C   0  0  2  0  0  3  0  0  0  0  0  0
   11.9940  -59.6120   40.1240 C   0  0  2  0  0  3  0  0  0  0  0  0
   12.5070  -60.4090   38.9210 C   0  0  1  0  0  3  0  0  0  0  0  0
   11.5930  -61.5350   38.9270 C   0  0  0  0  0  0  0  0  0  0  0  0
   11.0340  -62.1950   38.0240 O   0  0  0  0  0  0  0  0  0  0  0  0
   11.3850  -61.8340   40.3330 N   0  0  0  0  0  0  0  0  0  0  0  0
   11.6580  -60.6590   41.0810 C   0  0  0  0  0  0  0  0  0  0  0  0
   11.6120  -60.5710   42.3160 O   0  0  0  0  0  0  0  0  0  0  0  0
   12.3570  -60.1700   36.5410 C   0  0  0  0  0  0  0  0  0  0  0  0
   11.5160  -60.9120   35.9420 O   0  0  0  0  0  0  0  0  0  0  0  0
   13.6260  -59.9400   35.9760 N   0  0  0  0  0  0  0  0  0  0  0  0
   10.8590  -57.9450   37.6640 H   0  0  0  0  0  0  0  0  0  0  0  0
   14.1010  -60.4210   35.1710 H   0  0  0  0  0  0  0  0  0  0  0  0
    9.4940  -59.2320   39.9920 C   0  0  2  0  0  3  0  0  0  0  0  0
    8.6700  -59.6400   38.8160 C   0  0  0  0  0  1  0  0  0  0  0  0
    8.9160  -58.3570   40.8630 O   0  0  0  0  0  0  0  0  0  0  0  0
    8.8810  -58.6710   41.8030 H   0  0  0  0  0  0  0  0  0  0  0  0
   10.9850  -63.0840   40.9230 C   0  0  0  0  0  2  0  0  0  0  0  0
    9.5350  -63.3910   40.8610 C   0  0  0  0  0  2  0  0  0  0  0  0
    8.6580  -62.3690   41.0650 O   0  0  0  0  0  0  0  0  0  0  0  0
    8.3690  -62.0960   42.3860 C   0  0  0  0  0  1  0  0  0  0  0  0
  1  2  1  0  0  0  0
  2  3  2  0  0  0  0
  2  7  1  0  0  0  0
  3  4  1  0  0  0  0
  4  9  1  0  0  0  0
  4  5  2  0  0  0  0
  6  5  1  0  0  0  0
  6  8  1  0  0  0  0
  7  6  2  0  0  0  0
  9 19  1  6  0  0  0
  9 10  1  0  0  0  0
  9 13  1  0  0  0  0
 10 11  1  0  0  0  0
 11 24  1  6  0  0  0
 11 12  1  0  0  0  0
 12 17  1  1  0  0  0
 13 14  1  6  0  0  0
 13 12  1  0  0  0  0
 14 16  1  0  0  0  0
 15 14  2  0  0  0  0
 16 28  1  0  0  0  0
 16 17  1  0  0  0  0
 17 18  2  0  0  0  0
 20 19  2  0  0  0  0
 21 19  1  0  0  0  0
 21  3  1  0  0  0  0
 22 10  1  0  0  0  0
 23 21  1  0  0  0  0
 24 25  1  6  0  0  0
 24 26  1  0  0  0  0
 26 27  1  0  0  0  0
 29 28  1  0  0  0  0
 29 30  1  0  0  0  0
 30 31  1  0  0  0  0
M  END
>  <Pose>
1

>  <Score>
-6.715

$$$$
