MODEL 1
REMARK VINA RESULT:   -10.227      0.000      0.000
REMARK INTER + INTRA:         -13.177
REMARK INTER:                 -13.216
REMARK INTRA:                   0.039
REMARK UNBOUND:                 0.039
REMARK  5 active torsions:
REMARK  status: ('A' for Active; 'I' for Inactive)
REMARK    1  A    between atoms: C_4  and  C_10 
REMARK    2  A    between atoms: C_5  and  O_8 
REMARK    3  A    between atoms: C_18  and  C_19 
REMARK    4  A    between atoms: C_19  and  N_20 
REMARK    5  A    between atoms: N_23  and  C_26 
ROOT
ATOM      1  C   UNK d   1      19.529 -53.074  35.478  0.00  0.00     0.055 C 
ATOM      2  C   UNK d   1      19.324 -53.815  34.438  0.00  0.00     0.128 A 
ATOM      3  O   UNK d   1      18.198 -54.537  34.157  0.00  0.00    -0.305 OA
ATOM      4  C   UNK d   1      18.369 -55.193  32.940  0.00  0.00     0.101 A 
ATOM      5  C   UNK d   1      19.583 -54.941  32.388  0.00  0.00     0.051 A 
ATOM      6  C   UNK d   1      19.947 -55.491  31.154  0.00  0.00     0.021 A 
ATOM      7  C   UNK d   1      19.107 -56.309  30.444  0.00  0.00     0.041 A 
ATOM      8  C   UNK d   1      17.864 -56.545  31.059  0.00  0.00     0.118 A 
ATOM      9  C   UNK d   1      17.481 -56.024  32.248  0.00  0.00     0.039 A 
ATOM     10  O   UNK d   1      17.044 -57.406  30.298  0.00  0.00    -0.191 OA
ATOM     11  C   UNK d   1      20.256 -54.040  33.331  0.00  0.00     0.218 A 
ATOM     12  O   UNK d   1      21.417 -53.553  33.204  0.00  0.00    -0.284 OA
ENDROOT
BRANCH   1  13
ATOM     13  C   UNK d   1      18.611 -52.840  36.583  0.00  0.00     0.001 A 
ATOM     14  C   UNK d   1      17.863 -53.871  37.091  0.00  0.00     0.033 A 
ATOM     15  C   UNK d   1      16.946 -53.645  38.132  0.00  0.00     0.011 A 
ATOM     16 Br   UNK d   1      15.897 -55.045  38.868  0.00  0.00    -0.051 Br
ATOM     17  C   UNK d   1      16.802 -52.373  38.640  0.00  0.00     0.022 A 
ATOM     18  C   UNK d   1      17.540 -51.351  38.136  0.00  0.00     0.039 A 
ATOM     19  C   UNK d   1      18.457 -51.574  37.098  0.00  0.00     0.078 A 
BRANCH  19  20
ATOM     20  O   UNK d   1      19.218 -50.598  36.555  0.00  0.00    -0.355 OA
ATOM     21  C   UNK d   1      20.568 -50.651  36.246  0.00  0.00     0.210 C 
ENDBRANCH  19  20
ENDBRANCH   1  13
BRANCH   9  22
ATOM     22  C   UNK d   1      16.198 -56.311  32.918  0.00  0.00     0.279 C 
BRANCH  22  23
ATOM     23  N   UNK d   1      16.373 -57.206  34.037  0.00  0.00    -0.064 N 
ATOM     24  C   UNK d   1      15.644 -58.435  33.785  0.00  0.00     0.254 C 
ATOM     25  C   UNK d   1      14.965 -59.007  34.957  0.00  0.00     0.144 C 
ATOM     26  N   UNK d   1      15.583 -58.772  36.223  0.00  0.00    -0.410 N 
ATOM     27  C   UNK d   1      16.645 -57.874  36.279  0.00  0.00     0.144 C 
ATOM     28  C   UNK d   1      16.377 -56.686  35.318  0.00  0.00     0.254 C 
ATOM     29  H   UNK d   1      17.434 -57.528  33.872  0.00  0.00     0.280 HD
BRANCH  26  30
ATOM     30  C   UNK d   1      14.766 -58.916  37.367  0.00  0.00     0.112 C 
ATOM     31  C   UNK d   1      13.676 -57.914  37.509  0.00  0.00     0.026 C 
ENDBRANCH  26  30
ENDBRANCH  22  23
ENDBRANCH   9  22
TORSDOF 5
ENDMDL
