MODEL 1
REMARK VINA RESULT:    -9.164      0.000      0.000
REMARK INTER + INTRA:         -12.774
REMARK INTER:                 -11.842
REMARK INTRA:                  -0.931
REMARK UNBOUND:                -0.931
REMARK  5 active torsions:
REMARK  status: ('A' for Active; 'I' for Inactive)
REMARK    1  A    between atoms: S_1  and  N_4 
REMARK    2  A    between atoms: S_1  and  C_24 
REMARK       I    between atoms: N_7  and  C_10 
REMARK    3  A    between atoms: C_10  and  C_12 
REMARK    4  A    between atoms: C_12  and  S_13 
REMARK    5  A    between atoms: S_13  and  C_14 
ROOT
ATOM      1  N   UNK d   1      16.224 -58.212  32.463  0.00  0.00    -0.203 NA
ATOM      2  C   UNK d   1      17.592 -58.647  32.268  0.00  0.00     0.127 C 
ATOM      3  C   UNK d   1      18.368 -57.612  31.464  0.00  0.00     0.141 C 
ATOM      4  N   UNK d   1      18.359 -56.361  32.223  0.00  0.00    -0.349 N 
ATOM      5  C   UNK d   1      17.458 -56.336  33.337  0.00  0.00     0.141 C 
ATOM      6  C   UNK d   1      16.121 -56.840  32.860  0.00  0.00     0.127 C 
ATOM      7  C   UNK d   1      19.207 -55.319  31.835  0.00  0.00     0.229 C 
ATOM      8  O   UNK d   1      19.986 -55.497  30.812  0.00  0.00    -0.273 OA
ENDROOT
BRANCH   7   9
ATOM      9  C   UNK d   1      19.360 -53.993  32.441  0.00  0.00     0.183 C 
BRANCH   9  10
ATOM     10  S   UNK d   1      20.369 -53.963  33.917  0.00  0.00    -0.100 SA
BRANCH  10  11
ATOM     11  C   UNK d   1      19.794 -52.834  35.172  0.00  0.00     0.110 A 
ATOM     12  N   UNK d   1      20.281 -51.603  35.268  0.00  0.00    -0.234 NA
ATOM     13  C   UNK d   1      19.871 -50.714  36.178  0.00  0.00     0.236 A 
ATOM     14  N   UNK d   1      18.896 -51.096  37.060  0.00  0.00    -0.222 NA
ATOM     15  C   UNK d   1      18.385 -52.329  36.991  0.00  0.00     0.161 A 
ATOM     16  N   UNK d   1      17.417 -52.945  37.730  0.00  0.00    -0.256 N 
ATOM     17  C   UNK d   1      18.812 -53.246  36.047  0.00  0.00     0.066 A 
ATOM     18  N   UNK d   1      17.259 -54.168  37.268  0.00  0.00    -0.182 NA
ATOM     19  C   UNK d   1      16.693 -52.351  38.816  0.00  0.00     0.182 C 
ATOM     20  C   UNK d   1      18.087 -54.391  36.246  0.00  0.00     0.157 A 
ENDBRANCH  10  11
ENDBRANCH   9  10
ENDBRANCH   7   9
BRANCH   1  21
ATOM     21  S   UNK d   1      15.433 -59.241  33.591  0.00  0.00     0.243 S 
ATOM     22  O   UNK d   1      14.038 -59.479  33.063  0.00  0.00    -0.206 OA
ATOM     23  O   UNK d   1      16.094 -60.574  33.696  0.00  0.00    -0.206 OA
BRANCH  21  24
ATOM     24  C   UNK d   1      15.358 -58.454  35.151  0.00  0.00     0.074 A 
ATOM     25  C   UNK d   1      16.434 -58.302  35.995  0.00  0.00     0.026 A 
ATOM     26  C   UNK d   1      16.309 -57.681  37.214  0.00  0.00     0.025 A 
ATOM     27  C   UNK d   1      15.071 -57.185  37.622  0.00  0.00     0.034 A 
ATOM     28  C   UNK d   1      13.968 -57.332  36.774  0.00  0.00     0.025 A 
ATOM     29 Cl   UNK d   1      14.928 -56.398  39.171  0.00  0.00    -0.084 Cl
ATOM     30  C   UNK d   1      14.119 -57.958  35.556  0.00  0.00     0.026 A 
ENDBRANCH  21  24
ENDBRANCH   1  21
TORSDOF 5
ENDMDL
