/Users/jonathanwahrer/Desktop/Msc/3_Semester/Drug_Design_Praktikum/waehrer_HTS_screening/HTS_experiment/out/docking_results/vina_output/6s1j/2041_docked.pdbqt
 OpenBabel03222222343D

 30 33  0  0  0  0  0  0  0  0999 V2000
   16.2240  -58.2120   32.4630 N   0  0  0  0  0  0  0  0  0  0  0  0
   17.5920  -58.6470   32.2680 C   0  0  0  0  0  2  0  0  0  0  0  0
   18.3680  -57.6120   31.4640 C   0  0  0  0  0  2  0  0  0  0  0  0
   18.3590  -56.3610   32.2230 N   0  0  0  0  0  0  0  0  0  0  0  0
   17.4580  -56.3360   33.3370 C   0  0  0  0  0  2  0  0  0  0  0  0
   16.1210  -56.8400   32.8600 C   0  0  0  0  0  2  0  0  0  0  0  0
   19.2070  -55.3190   31.8350 C   0  0  0  0  0  0  0  0  0  0  0  0
   19.9860  -55.4970   30.8120 O   0  0  0  0  0  0  0  0  0  0  0  0
   19.3600  -53.9930   32.4410 C   0  0  0  0  0  2  0  0  0  0  0  0
   20.3690  -53.9630   33.9170 S   0  0  0  0  0  0  0  0  0  0  0  0
   19.7940  -52.8340   35.1720 C   0  0  0  0  0  0  0  0  0  0  0  0
   20.2810  -51.6030   35.2680 N   0  0  0  0  0  0  0  0  0  0  0  0
   19.8710  -50.7140   36.1780 C   0  0  0  0  0  3  0  0  0  0  0  0
   18.8960  -51.0960   37.0600 N   0  0  0  0  0  0  0  0  0  0  0  0
   18.3850  -52.3290   36.9910 C   0  0  0  0  0  0  0  0  0  0  0  0
   17.4170  -52.9450   37.7300 N   0  0  0  0  0  0  0  0  0  0  0  0
   18.8120  -53.2460   36.0470 C   0  0  0  0  0  0  0  0  0  0  0  0
   17.2590  -54.1680   37.2680 N   0  0  0  0  0  0  0  0  0  0  0  0
   16.6930  -52.3510   38.8160 C   0  0  0  0  0  1  0  0  0  0  0  0
   18.0870  -54.3910   36.2460 C   0  0  0  0  0  3  0  0  0  0  0  0
   15.4330  -59.2410   33.5910 S   0  0  0  0  0  0  0  0  0  0  0  0
   14.0380  -59.4790   33.0630 O   0  0  0  0  0  0  0  0  0  0  0  0
   16.0940  -60.5740   33.6960 O   0  0  0  0  0  0  0  0  0  0  0  0
   15.3580  -58.4540   35.1510 C   0  0  0  0  0  0  0  0  0  0  0  0
   16.4340  -58.3020   35.9950 C   0  0  0  0  0  3  0  0  0  0  0  0
   16.3090  -57.6810   37.2140 C   0  0  0  0  0  3  0  0  0  0  0  0
   15.0710  -57.1850   37.6220 C   0  0  0  0  0  0  0  0  0  0  0  0
   13.9680  -57.3320   36.7740 C   0  0  0  0  0  3  0  0  0  0  0  0
   14.9280  -56.3980   39.1710 Cl  0  0  0  0  0  0  0  0  0  0  0  0
   14.1190  -57.9580   35.5560 C   0  0  0  0  0  3  0  0  0  0  0  0
  1  6  1  0  0  0  0
  1 21  1  0  0  0  0
  2  1  1  0  0  0  0
  3  4  1  0  0  0  0
  3  2  1  0  0  0  0
  4  5  1  0  0  0  0
  6  5  1  0  0  0  0
  7  4  1  0  0  0  0
  7  9  1  0  0  0  0
  8  7  2  0  0  0  0
  9 10  1  0  0  0  0
 10 11  1  0  0  0  0
 11 12  2  0  0  0  0
 11 17  1  0  0  0  0
 12 13  1  0  0  0  0
 13 14  2  0  0  0  0
 15 14  1  0  0  0  0
 15 16  1  0  0  0  0
 16 19  1  0  0  0  0
 17 20  1  0  0  0  0
 17 15  2  0  0  0  0
 18 16  1  0  0  0  0
 20 18  2  0  0  0  0
 21 23  2  0  0  0  0
 21 24  1  0  0  0  0
 22 21  2  0  0  0  0
 24 30  2  0  0  0  0
 24 25  1  0  0  0  0
 25 26  2  0  0  0  0
 26 27  1  0  0  0  0
 27 29  1  0  0  0  0
 28 27  2  0  0  0  0
 30 28  1  0  0  0  0
M  END
>  <Pose>
1

>  <Score>
-9.164

$$$$
