/Users/jonathanwahrer/Desktop/Msc/3_Semester/Drug_Design_Praktikum/waehrer_HTS_screening/HTS_experiment/out/docking_results/vina_output/6s1j/2043_docked.pdbqt
 OpenBabel03222222343D

 32 35  0  0  0  0  0  0  0  0999 V2000
   14.6700  -59.3000   33.4710 N   0  0  0  0  0  0  0  0  0  0  0  0
   14.1400  -57.9630   33.5730 C   0  0  0  0  0  2  0  0  0  0  0  0
   13.8080  -57.7020   35.0410 C   0  0  0  0  0  2  0  0  0  0  0  0
   14.8350  -58.2270   35.8590 N   0  0  0  0  0  0  0  0  0  0  0  0
   14.7350  -59.7530   35.9150 C   0  0  0  0  0  2  0  0  0  0  0  0
   14.3530  -60.1720   34.5410 C   0  0  0  0  0  2  0  0  0  0  0  0
   15.8720  -57.6420   36.5250 C   0  0  0  0  0  0  0  0  0  0  0  0
   16.4910  -58.5750   37.3260 O   0  0  0  0  0  0  0  0  0  0  0  0
   16.5240  -56.4000   36.6710 C   0  0  0  0  0  3  0  0  0  0  0  0
   16.4260  -55.2780   37.3040 C   0  0  0  0  0  0  0  0  0  0  0  0
   15.3870  -54.9710   38.1960 N   0  0  0  0  0  0  0  0  0  0  0  0
   17.4960  -54.2480   37.1500 C   0  0  0  0  0  0  0  0  0  0  0  0
   15.2940  -53.7750   38.9430 N   0  0  0  0  0  0  0  0  0  0  0  0
   14.5980  -55.6090   38.3220 H   0  0  0  0  0  0  0  0  0  0  0  0
   16.2940  -52.8090   38.8010 C   0  0  0  0  0  0  0  0  0  0  0  0
   14.4580  -53.6570   39.5890 H   0  0  0  0  0  0  0  0  0  0  0  0
   16.2240  -51.7390   39.4600 O   0  0  0  0  0  0  0  0  0  0  0  0
   17.4110  -53.0750   37.8770 C   0  0  0  0  0  0  0  0  0  0  0  0
   18.3690  -52.0810   37.7800 C   0  0  0  0  0  3  0  0  0  0  0  0
   19.4500  -52.2430   36.9400 C   0  0  0  0  0  3  0  0  0  0  0  0
   19.5290  -53.4090   36.2220 C   0  0  0  0  0  3  0  0  0  0  0  0
   18.5590  -54.4120   36.3210 C   0  0  0  0  0  3  0  0  0  0  0  0
   16.2050  -59.4210   32.8010 S   0  0  0  0  0  0  0  0  0  0  0  0
   16.9320  -60.5580   33.5080 O   0  0  0  0  0  0  0  0  0  0  0  0
   16.0590  -59.8970   31.3600 O   0  0  0  0  0  0  0  0  0  0  0  0
   17.1330  -57.9740   32.7880 C   0  0  0  0  0  0  0  0  0  0  0  0
   18.0940  -57.7310   33.7370 C   0  0  0  0  0  3  0  0  0  0  0  0
   18.8290  -56.5590   33.7060 C   0  0  0  0  0  3  0  0  0  0  0  0
   18.6290  -55.6000   32.7390 C   0  0  0  0  0  0  0  0  0  0  0  0
   17.6600  -55.8380   31.7790 C   0  0  0  0  0  3  0  0  0  0  0  0
   19.5860  -54.1320   32.7450 Cl  0  0  0  0  0  0  0  0  0  0  0  0
   16.9280  -57.0230   31.8210 C   0  0  0  0  0  3  0  0  0  0  0  0
  1  2  1  0  0  0  0
  1  6  1  0  0  0  0
  2  3  1  0  0  0  0
  3  4  1  0  0  0  0
  4  5  1  0  0  0  0
  4  7  1  0  0  0  0
  6  5  1  0  0  0  0
  7  9  1  0  0  0  0
  7  8  2  0  0  0  0
  9 10  2  0  0  0  0
 10 11  1  0  0  0  0
 11 14  1  0  0  0  0
 11 13  1  0  0  0  0
 12 10  1  0  0  0  0
 12 18  1  0  0  0  0
 13 16  1  0  0  0  0
 15 13  1  0  0  0  0
 15 17  2  0  0  0  0
 18 15  1  0  0  0  0
 19 18  2  0  0  0  0
 20 19  1  0  0  0  0
 21 22  1  0  0  0  0
 21 20  2  0  0  0  0
 22 12  2  0  0  0  0
 23  1  1  0  0  0  0
 23 24  2  0  0  0  0
 25 23  2  0  0  0  0
 26 23  1  0  0  0  0
 26 27  1  0  0  0  0
 28 27  2  0  0  0  0
 29 31  1  0  0  0  0
 29 28  1  0  0  0  0
 30 32  1  0  0  0  0
 30 29  2  0  0  0  0
 32 26  2  0  0  0  0
M  END
>  <Pose>
1

>  <Score>
-10.335

$$$$
