MODEL 1
REMARK VINA RESULT:   -10.335      0.000      0.000
REMARK INTER + INTRA:         -13.522
REMARK INTER:                 -12.148
REMARK INTRA:                  -1.374
REMARK UNBOUND:                -1.374
REMARK  3 active torsions:
REMARK  status: ('A' for Active; 'I' for Inactive)
REMARK    1  A    between atoms: S_1  and  N_4 
REMARK    2  A    between atoms: S_1  and  C_24 
REMARK    3  A    between atoms: C_10  and  C_12 
ROOT
ATOM      1  N   UNK d   1      14.670 -59.300  33.471  0.00  0.00    -0.304 N 
ATOM      2  C   UNK d   1      14.140 -57.963  33.573  0.00  0.00     0.155 C 
ATOM      3  C   UNK d   1      13.808 -57.702  35.041  0.00  0.00     0.145 C 
ATOM      4  N   UNK d   1      14.835 -58.227  35.859  0.00  0.00    -0.356 N 
ATOM      5  C   UNK d   1      14.735 -59.753  35.915  0.00  0.00     0.145 C 
ATOM      6  C   UNK d   1      14.353 -60.172  34.541  0.00  0.00     0.155 C 
ATOM      7  C   UNK d   1      15.872 -57.642  36.525  0.00  0.00     0.179 C 
ATOM      8  O   UNK d   1      16.491 -58.575  37.326  0.00  0.00    -0.172 OA
ENDROOT
BRANCH   7   9
ATOM      9  C   UNK d   1      16.524 -56.400  36.671  0.00  0.00     0.090 C 
ATOM     10  C   UNK d   1      16.426 -55.278  37.304  0.00  0.00     0.063 A 
ATOM     11  N   UNK d   1      15.387 -54.971  38.196  0.00  0.00    -0.297 N 
ATOM     12  C   UNK d   1      17.496 -54.248  37.150  0.00  0.00     0.008 A 
ATOM     13  N   UNK d   1      15.294 -53.775  38.943  0.00  0.00    -0.265 N 
ATOM     14  H   UNK d   1      14.598 -55.609  38.322  0.00  0.00     0.187 HD
ATOM     15  C   UNK d   1      16.294 -52.809  38.801  0.00  0.00     0.271 A 
ATOM     16  H   UNK d   1      14.458 -53.657  39.589  0.00  0.00     0.190 HD
ATOM     17  O   UNK d   1      16.224 -51.739  39.460  0.00  0.00    -0.266 OA
ATOM     18  C   UNK d   1      17.411 -53.075  37.877  0.00  0.00     0.046 A 
ATOM     19  C   UNK d   1      18.369 -52.081  37.780  0.00  0.00     0.018 A 
ATOM     20  C   UNK d   1      19.450 -52.243  36.940  0.00  0.00     0.001 A 
ATOM     21  C   UNK d   1      19.529 -53.409  36.222  0.00  0.00     0.001 A 
ATOM     22  C   UNK d   1      18.559 -54.412  36.321  0.00  0.00     0.015 A 
ENDBRANCH   7   9
BRANCH   1  23
ATOM     23  S   UNK d   1      16.205 -59.421  32.801  0.00  0.00     0.260 S 
ATOM     24  O   UNK d   1      16.932 -60.558  33.508  0.00  0.00    -0.200 OA
ATOM     25  O   UNK d   1      16.059 -59.897  31.360  0.00  0.00    -0.200 OA
BRANCH  23  26
ATOM     26  C   UNK d   1      17.133 -57.974  32.788  0.00  0.00     0.079 A 
ATOM     27  C   UNK d   1      18.094 -57.731  33.737  0.00  0.00     0.027 A 
ATOM     28  C   UNK d   1      18.829 -56.559  33.706  0.00  0.00     0.025 A 
ATOM     29  C   UNK d   1      18.629 -55.600  32.739  0.00  0.00     0.034 A 
ATOM     30  C   UNK d   1      17.660 -55.838  31.779  0.00  0.00     0.025 A 
ATOM     31 Cl   UNK d   1      19.586 -54.132  32.745  0.00  0.00    -0.084 Cl
ATOM     32  C   UNK d   1      16.928 -57.023  31.821  0.00  0.00     0.027 A 
ENDBRANCH  23  26
ENDBRANCH   1  23
TORSDOF 3
ENDMDL
