/Users/jonathanwahrer/Desktop/Msc/3_Semester/Drug_Design_Praktikum/waehrer_HTS_screening/HTS_experiment/out/docking_results/vina_output/6s1j/2046_docked.pdbqt
 OpenBabel03222222353D

 26 29  0  0  0  0  0  0  0  0999 V2000
   18.0800  -51.4180   37.6250 Cl  0  0  0  0  0  0  0  0  0  0  0  0
   17.2100  -52.8730   38.0010 C   0  0  0  0  0  0  0  0  0  0  0  0
   17.5370  -54.0690   37.4150 C   0  0  0  0  0  0  0  0  0  0  0  0
   16.8090  -55.1860   37.7540 C   0  0  0  0  0  3  0  0  0  0  0  0
   15.7650  -55.1670   38.6540 C   0  0  0  0  0  0  0  0  0  0  0  0
   15.4500  -53.9580   39.2330 C   0  0  0  0  0  3  0  0  0  0  0  0
   16.1740  -52.8340   38.8990 C   0  0  0  0  0  3  0  0  0  0  0  0
   15.0160  -56.3610   38.9930 N   0  0  0  0  0  0  0  0  0  0  0  0
   15.0890  -56.7900   39.9200 H   0  0  0  0  0  0  0  0  0  0  0  0
   14.1810  -56.8940   37.9730 C   0  0  0  0  0  2  0  0  0  0  0  0
   14.6860  -58.0030   37.1700 C   0  0  0  0  0  0  0  0  0  0  0  0
   15.7240  -58.5860   37.7200 O   0  0  0  0  0  0  0  0  0  0  0  0
   14.2800  -58.5350   35.9720 N   0  0  0  0  0  0  0  0  0  0  0  0
   13.1260  -58.1540   35.2230 C   0  0  0  0  0  2  0  0  0  0  0  0
   15.0940  -59.5850   35.3210 C   0  0  0  0  0  2  0  0  0  0  0  0
   13.5810  -57.6860   33.8440 C   0  0  0  0  0  2  0  0  0  0  0  0
   14.1520  -58.8320   33.2480 O   0  0  0  0  0  0  0  0  0  0  0  0
   15.3420  -59.1030   33.8870 C   0  0  0  0  0  2  0  0  0  0  0  0
   18.5780  -54.1910   36.4780 N   0  0  0  0  0  0  0  0  0  0  0  0
   19.8610  -54.1330   36.7730 N   0  0  0  0  0  0  0  0  0  0  0  0
   20.5860  -54.2920   35.6810 N   0  0  0  0  0  0  0  0  0  0  0  0
   19.7330  -54.4520   34.6900 N   0  0  0  0  0  0  0  0  0  0  0  0
   18.4550  -54.3920   35.1730 C   0  0  0  0  0  0  0  0  0  0  0  0
   17.2820  -54.5240   34.3100 C   0  0  0  0  0  3  0  0  0  0  0  0
   17.2760  -55.0710   32.9590 C   0  0  0  0  0  2  0  0  0  0  0  0
   16.7950  -55.9870   34.0970 C   0  0  0  0  0  2  0  0  0  0  0  0
  1  2  1  0  0  0  0
  2  7  1  0  0  0  0
  3  4  1  0  0  0  0
  3  2  2  0  0  0  0
  4  5  2  0  0  0  0
  5  8  1  0  0  0  0
  5  6  1  0  0  0  0
  7  6  2  0  0  0  0
  8  9  1  0  0  0  0
 10  8  1  0  0  0  0
 11 12  2  0  0  0  0
 11 10  1  0  0  0  0
 13 11  1  0  0  0  0
 14 13  1  0  0  0  0
 15 13  1  0  0  0  0
 16 14  1  0  0  0  0
 17 16  1  0  0  0  0
 17 18  1  0  0  0  0
 18 15  1  0  0  0  0
 19 20  1  0  0  0  0
 19  3  1  0  0  0  0
 21 20  2  0  0  0  0
 22 23  2  0  0  0  0
 22 21  1  0  0  0  0
 23 19  1  0  0  0  0
 24 23  1  0  0  0  0
 25 26  1  0  0  0  0
 25 24  1  0  0  0  0
 26 24  1  0  0  0  0
M  END
>  <Pose>
1

>  <Score>
-8.767

$$$$
