MODEL 1
REMARK VINA RESULT:    -8.767      0.000      0.000
REMARK INTER + INTRA:         -12.195
REMARK INTER:                 -11.329
REMARK INTRA:                  -0.866
REMARK UNBOUND:                -0.866
REMARK  5 active torsions:
REMARK  status: ('A' for Active; 'I' for Inactive)
REMARK    1  A    between atoms: C_3  and  N_18 
REMARK    2  A    between atoms: C_5  and  N_8 
REMARK    3  A    between atoms: N_8  and  C_9 
REMARK    4  A    between atoms: C_9  and  C_10 
REMARK       I    between atoms: C_10  and  N_12 
REMARK    5  A    between atoms: C_22  and  C_23 
ROOT
ATOM      1 Cl   UNK d   1      18.080 -51.418  37.625  0.00  0.00    -0.082 Cl
ATOM      2  C   UNK d   1      17.210 -52.873  38.001  0.00  0.00     0.063 A 
ATOM      3  C   UNK d   1      17.537 -54.069  37.415  0.00  0.00     0.086 A 
ATOM      4  C   UNK d   1      16.809 -55.186  37.754  0.00  0.00     0.062 A 
ATOM      5  C   UNK d   1      15.765 -55.167  38.654  0.00  0.00     0.030 A 
ATOM      6  C   UNK d   1      15.450 -53.958  39.233  0.00  0.00     0.031 A 
ATOM      7  C   UNK d   1      16.174 -52.834  38.899  0.00  0.00     0.028 A 
ENDROOT
BRANCH   5   8
ATOM      8  N   UNK d   1      15.016 -56.361  38.993  0.00  0.00    -0.382 N 
ATOM      9  H   UNK d   1      15.089 -56.790  39.920  0.00  0.00     0.160 HD
BRANCH   8  10
ATOM     10  C   UNK d   1      14.181 -56.894  37.973  0.00  0.00     0.207 C 
BRANCH  10  11
ATOM     11  C   UNK d   1      14.686 -58.003  37.170  0.00  0.00     0.171 C 
ATOM     12  O   UNK d   1      15.724 -58.586  37.720  0.00  0.00    -0.175 OA
ATOM     13  N   UNK d   1      14.280 -58.535  35.972  0.00  0.00    -0.358 N 
ATOM     14  C   UNK d   1      13.126 -58.154  35.223  0.00  0.00     0.151 C 
ATOM     15  C   UNK d   1      15.094 -59.585  35.321  0.00  0.00     0.151 C 
ATOM     16  C   UNK d   1      13.581 -57.686  33.844  0.00  0.00     0.187 C 
ATOM     17  O   UNK d   1      14.152 -58.832  33.248  0.00  0.00    -0.388 OA
ATOM     18  C   UNK d   1      15.342 -59.103  33.887  0.00  0.00     0.187 C 
ENDBRANCH  10  11
ENDBRANCH   8  10
ENDBRANCH   5   8
BRANCH   3  19
ATOM     19  N   UNK d   1      18.578 -54.191  36.478  0.00  0.00    -0.196 N 
ATOM     20  N   UNK d   1      19.861 -54.133  36.773  0.00  0.00    -0.039 NA
ATOM     21  N   UNK d   1      20.586 -54.292  35.681  0.00  0.00    -0.023 NA
ATOM     22  N   UNK d   1      19.733 -54.452  34.690  0.00  0.00    -0.113 NA
ATOM     23  C   UNK d   1      18.455 -54.392  35.173  0.00  0.00     0.158 A 
BRANCH  23  24
ATOM     24  C   UNK d   1      17.282 -54.524  34.310  0.00  0.00     0.059 A 
ATOM     25  C   UNK d   1      17.276 -55.071  32.959  0.00  0.00     0.013 A 
ATOM     26  C   UNK d   1      16.795 -55.987  34.097  0.00  0.00     0.013 A 
ENDBRANCH  23  24
ENDBRANCH   3  19
TORSDOF 5
ENDMDL
