MODEL 1
REMARK VINA RESULT:    -9.606      0.000      0.000
REMARK INTER + INTRA:         -13.257
REMARK INTER:                 -12.975
REMARK INTRA:                  -0.282
REMARK UNBOUND:                -0.282
REMARK  8 active torsions:
REMARK  status: ('A' for Active; 'I' for Inactive)
REMARK    1  A    between atoms: C_5  and  C_8 
REMARK    2  A    between atoms: C_15  and  O_17 
REMARK    3  A    between atoms: O_17  and  C_18 
REMARK    4  A    between atoms: C_20  and  C_27 
REMARK    5  A    between atoms: C_21  and  O_26 
REMARK    6  A    between atoms: C_22  and  O_25 
REMARK    7  A    between atoms: C_23  and  O_24 
REMARK    8  A    between atoms: C_27  and  O_28 
ROOT
ATOM      1  C   UNK d   1      16.580 -54.683  37.779  0.00  0.00     0.048 A 
ATOM      2  C   UNK d   1      15.700 -54.497  38.841  0.00  0.00     0.159 A 
ATOM      3  O   UNK d   1      14.830 -55.410  39.204  0.00  0.00    -0.321 OA
ATOM      4  C   UNK d   1      14.718 -56.568  38.598  0.00  0.00     0.091 A 
ATOM      5  C   UNK d   1      15.546 -56.843  37.535  0.00  0.00     0.049 A 
ATOM      6  C   UNK d   1      15.395 -58.067  36.931  0.00  0.00     0.021 A 
ATOM      7  C   UNK d   1      14.473 -58.999  37.335  0.00  0.00     0.038 A 
ATOM      8  C   UNK d   1      13.615 -58.738  38.423  0.00  0.00     0.074 A 
ATOM      9  C   UNK d   1      13.772 -57.511  39.022  0.00  0.00     0.075 A 
ATOM     10  C   UNK d   1      16.472 -55.906  37.128  0.00  0.00     0.197 A 
ATOM     11  O   UNK d   1      17.232 -56.156  36.154  0.00  0.00    -0.286 OA
ENDROOT
BRANCH   8  12
ATOM     12  O   UNK d   1      12.702 -59.702  38.798  0.00  0.00    -0.318 OA
BRANCH  12  13
ATOM     13  C   UNK d   1      11.561 -59.506  39.519  0.00  0.00     0.298 C 
ATOM     14  O   UNK d   1      11.516 -60.268  40.717  0.00  0.00    -0.348 OA
ATOM     15  C   UNK d   1      10.637 -59.603  41.543  0.00  0.00     0.179 C 
ATOM     16  C   UNK d   1       9.227 -59.556  41.041  0.00  0.00     0.180 C 
ATOM     17  C   UNK d   1       9.150 -59.246  39.566  0.00  0.00     0.183 C 
ATOM     18  C   UNK d   1      10.284 -59.888  38.793  0.00  0.00     0.205 C 
BRANCH  15  19
ATOM     19  C   UNK d   1      10.658 -60.116  42.961  0.00  0.00     0.198 C 
BRANCH  19  20
ATOM     20  O   UNK d   1      10.422 -59.103  43.887  0.00  0.00    -0.398 OA
ATOM     21  H   UNK d   1       9.826 -58.442  43.413  0.00  0.00     0.209 HD
ENDBRANCH  19  20
ENDBRANCH  15  19
BRANCH  16  22
ATOM     22  O   UNK d   1       8.586 -58.499  41.706  0.00  0.00    -0.390 OA
ATOM     23  H   UNK d   1       7.852 -58.839  42.277  0.00  0.00     0.210 HD
ENDBRANCH  16  22
BRANCH  17  24
ATOM     24  O   UNK d   1       7.902 -59.611  39.078  0.00  0.00    -0.390 OA
ATOM     25  H   UNK d   1       7.657 -59.102  38.245  0.00  0.00     0.210 HD
ENDBRANCH  17  24
BRANCH  18  26
ATOM     26  O   UNK d   1      10.259 -59.386  37.498  0.00  0.00    -0.388 OA
ATOM     27  H   UNK d   1       9.435 -59.660  37.031  0.00  0.00     0.210 HD
ENDBRANCH  18  26
ENDBRANCH  12  13
ENDBRANCH   8  12
BRANCH   1  28
ATOM     28  C   UNK d   1      17.532 -53.661  37.395  0.00  0.00    -0.020 A 
ATOM     29  C   UNK d   1      18.699 -53.935  36.713  0.00  0.00     0.014 A 
ATOM     30  C   UNK d   1      19.571 -52.906  36.375  0.00  0.00     0.020 A 
ATOM     31  C   UNK d   1      19.315 -51.594  36.698  0.00  0.00     0.011 A 
ATOM     32 Br   UNK d   1      20.524 -50.189  36.225  0.00  0.00    -0.051 Br
ATOM     33  C   UNK d   1      18.142 -51.318  37.384  0.00  0.00     0.020 A 
ATOM     34  C   UNK d   1      17.277 -52.340  37.719  0.00  0.00     0.014 A 
ENDBRANCH   1  28
TORSDOF 8
ENDMDL
