MODEL 1
REMARK VINA RESULT:    -9.516      0.000      0.000
REMARK INTER + INTRA:         -13.399
REMARK INTER:                 -12.575
REMARK INTRA:                  -0.824
REMARK UNBOUND:                -0.824
REMARK  6 active torsions:
REMARK  status: ('A' for Active; 'I' for Inactive)
REMARK    1  A    between atoms: C_5  and  C_8 
REMARK    2  A    between atoms: C_12  and  C_17 
REMARK    3  A    between atoms: C_17  and  N_18 
REMARK    4  A    between atoms: N_21  and  C_24 
REMARK    5  A    between atoms: C_24  and  C_25 
REMARK    6  A    between atoms: C_25  and  O_26 
ROOT
ATOM      1  C   UNK d   1      17.025 -54.457  36.961  0.00  0.00     0.051 A 
ATOM      2  C   UNK d   1      16.211 -54.681  38.048  0.00  0.00     0.032 A 
ATOM      3  C   UNK d   1      15.510 -55.893  38.125  0.00  0.00    -0.000 A 
ATOM      4  C   UNK d   1      15.619 -56.850  37.140  0.00  0.00     0.100 A 
ATOM      5  C   UNK d   1      14.965 -58.083  37.130  0.00  0.00     0.039 A 
ATOM      6  C   UNK d   1      14.149 -58.295  38.269  0.00  0.00     0.118 A 
ATOM      7  C   UNK d   1      14.017 -57.356  39.288  0.00  0.00     0.041 A 
ATOM      8  C   UNK d   1      14.707 -56.157  39.205  0.00  0.00     0.017 A 
ATOM      9  O   UNK d   1      13.418 -59.450  38.462  0.00  0.00    -0.191 OA
ATOM     10  O   UNK d   1      16.382 -56.599  36.154  0.00  0.00    -0.273 OA
ATOM     11  C   UNK d   1      17.091 -55.479  35.992  0.00  0.00     0.299 A 
ATOM     12  O   UNK d   1      17.810 -55.300  35.002  0.00  0.00    -0.259 OA
ENDROOT
BRANCH   5  13
ATOM     13  C   UNK d   1      15.151 -59.175  36.240  0.00  0.00     0.279 C 
BRANCH  13  14
ATOM     14  N   UNK d   1      14.089 -59.871  35.561  0.00  0.00    -0.064 N 
ATOM     15  C   UNK d   1      13.400 -58.992  34.576  0.00  0.00     0.265 C 
ATOM     16  C   UNK d   1      14.397 -58.148  33.866  0.00  0.00     0.300 C 
ATOM     17  N   UNK d   1      15.397 -58.872  33.114  0.00  0.00     0.093 N 
ATOM     18  C   UNK d   1      15.678 -60.158  33.656  0.00  0.00     0.300 C 
ATOM     19  C   UNK d   1      14.747 -60.792  34.578  0.00  0.00     0.265 C 
ATOM     20  H   UNK d   1      13.457 -60.447  36.067  0.00  0.00     0.280 HD
BRANCH  17  21
ATOM     21  C   UNK d   1      16.632 -58.079  33.015  0.00  0.00     0.298 C 
BRANCH  21  22
ATOM     22  C   UNK d   1      17.837 -58.838  33.519  0.00  0.00     0.194 C 
BRANCH  22  23
ATOM     23  O   UNK d   1      18.372 -58.288  34.674  0.00  0.00    -0.399 OA
ATOM     24  H   UNK d   1      17.986 -58.783  35.465  0.00  0.00     0.209 HD
ENDBRANCH  22  23
ENDBRANCH  21  22
ENDBRANCH  17  21
ENDBRANCH  13  14
ENDBRANCH   5  13
BRANCH   1  25
ATOM     25  C   UNK d   1      17.883 -53.258  36.871  0.00  0.00    -0.020 A 
ATOM     26  C   UNK d   1      19.023 -53.357  36.051  0.00  0.00     0.014 A 
ATOM     27  C   UNK d   1      19.845 -52.258  35.875  0.00  0.00     0.024 A 
ATOM     28  C   UNK d   1      19.588 -51.039  36.490  0.00  0.00     0.034 A 
ATOM     29 Cl   UNK d   1      20.581 -49.589  36.205  0.00  0.00    -0.084 Cl
ATOM     30  C   UNK d   1      18.468 -50.952  37.298  0.00  0.00     0.024 A 
ATOM     31  C   UNK d   1      17.663 -52.065  37.460  0.00  0.00     0.014 A 
ENDBRANCH   1  25
TORSDOF 6
ENDMDL
