/Users/jonathanwahrer/Desktop/Msc/3_Semester/Drug_Design_Praktikum/waehrer_HTS_screening/HTS_experiment/out/docking_results/vina_output/6s1j/2087_docked.pdbqt
 OpenBabel03222222363D

 32 35  0  0  0  0  0  0  0  0999 V2000
   17.8100  -55.4620   33.3820 N   0  0  0  0  0  0  0  0  0  0  0  0
   18.8200  -55.4300   32.4530 C   0  0  0  0  0  0  0  0  0  0  0  0
   18.9890  -56.6900   31.9130 C   0  0  0  0  0  0  0  0  0  0  0  0
   18.0840  -57.4600   32.5240 N   0  0  0  0  0  0  0  0  0  0  0  0
   17.3630  -56.7170   33.4240 C   0  0  0  0  0  0  0  0  0  0  0  0
   19.9300  -56.9230   30.9780 N   0  0  0  0  0  0  0  0  0  0  0  0
   20.7020  -55.8990   30.5840 C   0  0  0  0  0  0  0  0  0  0  0  0
   21.5760  -56.1290   29.7120 O   0  0  0  0  0  0  0  0  0  0  0  0
   20.5690  -54.6670   31.0860 N   0  0  0  0  0  0  0  0  0  0  0  0
   19.6250  -54.3920   32.0350 C   0  0  0  0  0  0  0  0  0  0  0  0
   19.5280  -53.2250   32.4870 O   0  0  0  0  0  0  0  0  0  0  0  0
   20.0710  -58.2610   30.4320 C   0  0  0  0  0  1  0  0  0  0  0  0
   21.1850  -53.8760   30.7670 H   0  0  0  0  0  0  0  0  0  0  0  0
   16.4110  -57.3060   34.2710 N   0  0  0  0  0  0  0  0  0  0  0  0
   16.5840  -57.9810   35.5080 C   0  0  0  0  0  2  0  0  0  0  0  0
   15.4860  -59.0200   35.7590 C   0  0  0  0  0  2  0  0  0  0  0  0
   14.8490  -59.5220   34.6130 N   0  0  0  0  0  0  0  0  0  0  0  0
   14.4220  -58.5900   33.6450 C   0  0  0  0  0  2  0  0  0  0  0  0
   14.9910  -57.2020   33.8390 C   0  0  0  0  0  2  0  0  0  0  0  0
   15.0180  -60.8650   34.2390 C   0  0  0  0  0  2  0  0  0  0  0  0
   16.0120  -61.1590   33.1960 C   0  0  0  0  0  0  0  0  0  0  0  0
   17.2100  -60.7760   33.2700 O   0  0  0  0  0  0  0  0  0  0  0  0
   15.6410  -61.8810   32.0820 O   0  0  0  0  0  0  0  0  0  0  0  0
   14.7870  -61.3670   31.0970 C   0  0  0  0  0  1  0  0  0  0  0  0
   17.3540  -54.3070   34.1140 C   0  0  0  0  0  2  0  0  0  0  0  0
   17.8230  -54.3500   35.5560 C   0  0  0  0  0  0  0  0  0  0  0  0
   19.1260  -54.0250   35.7950 C   0  0  0  0  0  3  0  0  0  0  0  0
   19.5910  -54.0180   37.1110 C   0  0  0  0  0  3  0  0  0  0  0  0
   18.7440  -54.3350   38.1490 C   0  0  0  0  0  0  0  0  0  0  0  0
   19.3570  -54.3310   39.9550 Br  0  0  0  0  0  0  0  0  0  0  0  0
   17.4280  -54.6610   37.8690 C   0  0  0  0  0  3  0  0  0  0  0  0
   16.9710  -54.6680   36.5740 C   0  0  0  0  0  3  0  0  0  0  0  0
  1  5  1  0  0  0  0
  1 25  1  0  0  0  0
  2  1  1  0  0  0  0
  3  2  2  0  0  0  0
  3  4  1  0  0  0  0
  4  5  2  0  0  0  0
  5 14  1  0  0  0  0
  6  3  1  0  0  0  0
  7  6  1  0  0  0  0
  7  9  1  0  0  0  0
  8  7  2  0  0  0  0
  9 10  1  0  0  0  0
 10  2  1  0  0  0  0
 10 11  2  0  0  0  0
 12  6  1  0  0  0  0
 13  9  1  0  0  0  0
 14 15  1  0  0  0  0
 15 16  1  0  0  0  0
 17 16  1  0  0  0  0
 18 19  1  0  0  0  0
 18 17  1  0  0  0  0
 19 14  1  0  0  0  0
 20 17  1  0  0  0  0
 21 22  2  0  0  0  0
 21 20  1  0  0  0  0
 23 21  1  0  0  0  0
 24 23  1  0  0  0  0
 25 26  1  0  0  0  0
 26 27  2  0  0  0  0
 26 32  1  0  0  0  0
 27 28  1  0  0  0  0
 28 29  2  0  0  0  0
 29 30  1  0  0  0  0
 31 29  1  0  0  0  0
 32 31  2  0  0  0  0
M  END
>  <Pose>
1

>  <Score>
-7.777

$$$$
