MODEL 1
REMARK VINA RESULT:    -7.777      0.000      0.000
REMARK INTER + INTRA:         -12.043
REMARK INTER:                 -10.504
REMARK INTRA:                  -1.539
REMARK UNBOUND:                -1.539
REMARK  6 active torsions:
REMARK  status: ('A' for Active; 'I' for Inactive)
REMARK    1  A    between atoms: C_5  and  C_8 
REMARK    2  A    between atoms: C_8  and  N_9 
REMARK    3  A    between atoms: C_13  and  N_14 
REMARK    4  A    between atoms: N_17  and  C_20 
REMARK    5  A    between atoms: C_20  and  C_21 
REMARK    6  A    between atoms: C_21  and  O_23 
ROOT
ATOM      1  N   UNK d   1      17.810 -55.462  33.382  0.00  0.00    -0.168 N 
ATOM      2  C   UNK d   1      18.820 -55.430  32.453  0.00  0.00     0.167 A 
ATOM      3  C   UNK d   1      18.989 -56.690  31.913  0.00  0.00     0.185 A 
ATOM      4  N   UNK d   1      18.084 -57.460  32.524  0.00  0.00    -0.044 NA
ATOM      5  C   UNK d   1      17.363 -56.717  33.424  0.00  0.00     0.707 A 
ATOM      6  N   UNK d   1      19.930 -56.923  30.978  0.00  0.00    -0.286 N 
ATOM      7  C   UNK d   1      20.702 -55.899  30.584  0.00  0.00     0.330 A 
ATOM      8  O   UNK d   1      21.576 -56.129  29.712  0.00  0.00    -0.246 OA
ATOM      9  N   UNK d   1      20.569 -54.667  31.086  0.00  0.00    -0.273 N 
ATOM     10  C   UNK d   1      19.625 -54.392  32.035  0.00  0.00     0.280 A 
ATOM     11  O   UNK d   1      19.528 -53.225  32.487  0.00  0.00    -0.265 OA
ATOM     12  C   UNK d   1      20.071 -58.261  30.432  0.00  0.00     0.163 C 
ATOM     13  H   UNK d   1      21.185 -53.876  30.767  0.00  0.00     0.173 HD
ENDROOT
BRANCH   5  14
ATOM     14  N   UNK d   1      16.411 -57.306  34.271  0.00  0.00    -0.212 N 
ATOM     15  C   UNK d   1      16.584 -57.981  35.508  0.00  0.00     0.160 C 
ATOM     16  C   UNK d   1      15.486 -59.020  35.759  0.00  0.00     0.137 C 
ATOM     17  N   UNK d   1      14.849 -59.522  34.613  0.00  0.00    -0.400 N 
ATOM     18  C   UNK d   1      14.422 -58.590  33.645  0.00  0.00     0.137 C 
ATOM     19  C   UNK d   1      14.991 -57.202  33.839  0.00  0.00     0.160 C 
BRANCH  17  20
ATOM     20  C   UNK d   1      15.018 -60.865  34.239  0.00  0.00     0.228 C 
BRANCH  20  21
ATOM     21  C   UNK d   1      16.012 -61.159  33.196  0.00  0.00     0.276 C 
ATOM     22  O   UNK d   1      17.210 -60.776  33.270  0.00  0.00    -0.263 OA
BRANCH  21  23
ATOM     23  O   UNK d   1      15.641 -61.881  32.082  0.00  0.00    -0.325 OA
ATOM     24  C   UNK d   1      14.787 -61.367  31.097  0.00  0.00     0.213 C 
ENDBRANCH  21  23
ENDBRANCH  20  21
ENDBRANCH  17  20
ENDBRANCH   5  14
BRANCH   1  25
ATOM     25  C   UNK d   1      17.354 -54.307  34.114  0.00  0.00     0.186 C 
BRANCH  25  26
ATOM     26  C   UNK d   1      17.823 -54.350  35.556  0.00  0.00    -0.039 A 
ATOM     27  C   UNK d   1      19.126 -54.025  35.795  0.00  0.00     0.010 A 
ATOM     28  C   UNK d   1      19.591 -54.018  37.111  0.00  0.00     0.019 A 
ATOM     29  C   UNK d   1      18.744 -54.335  38.149  0.00  0.00     0.011 A 
ATOM     30 Br   UNK d   1      19.357 -54.331  39.955  0.00  0.00    -0.051 Br
ATOM     31  C   UNK d   1      17.428 -54.661  37.869  0.00  0.00     0.019 A 
ATOM     32  C   UNK d   1      16.971 -54.668  36.574  0.00  0.00     0.010 A 
ENDBRANCH  25  26
ENDBRANCH   1  25
TORSDOF 6
ENDMDL
