MODEL 1
REMARK VINA RESULT:    -8.326      0.000      0.000
REMARK INTER + INTRA:         -10.866
REMARK INTER:                  -9.787
REMARK INTRA:                  -1.079
REMARK UNBOUND:                -1.079
REMARK  3 active torsions:
REMARK  status: ('A' for Active; 'I' for Inactive)
REMARK    1  A    between atoms: C_5  and  C_8 
REMARK    2  A    between atoms: C_8  and  N_9 
REMARK    3  A    between atoms: C_13  and  N_14 
ROOT
ATOM      1  N   UNK d   1      17.685 -55.605  33.222  0.00  0.00    -0.168 N 
ATOM      2  C   UNK d   1      18.691 -55.597  32.336  0.00  0.00     0.167 A 
ATOM      3  C   UNK d   1      18.760 -56.830  31.726  0.00  0.00     0.185 A 
ATOM      4  N   UNK d   1      17.789 -57.553  32.262  0.00  0.00    -0.044 NA
ATOM      5  C   UNK d   1      17.117 -56.836  33.174  0.00  0.00     0.707 A 
ATOM      6  N   UNK d   1      19.668 -57.145  30.769  0.00  0.00    -0.286 N 
ATOM      7  C   UNK d   1      20.534 -56.182  30.414  0.00  0.00     0.330 A 
ATOM      8  O   UNK d   1      21.370 -56.492  29.527  0.00  0.00    -0.246 OA
ATOM      9  N   UNK d   1      20.516 -54.958  30.969  0.00  0.00    -0.273 N 
ATOM     10  C   UNK d   1      19.620 -54.635  31.920  0.00  0.00     0.280 A 
ATOM     11  O   UNK d   1      19.574 -53.517  32.450  0.00  0.00    -0.265 OA
ATOM     12  C   UNK d   1      19.666 -58.471  30.187  0.00  0.00     0.163 C 
ATOM     13  H   UNK d   1      21.191 -54.216  30.685  0.00  0.00     0.173 HD
ENDROOT
BRANCH   1  14
ATOM     14  C   UNK d   1      17.280 -54.517  34.078  0.00  0.00     0.186 C 
BRANCH  14  15
ATOM     15  C   UNK d   1      17.837 -54.461  35.415  0.00  0.00    -0.039 A 
ATOM     16  C   UNK d   1      19.117 -54.141  35.746  0.00  0.00     0.010 A 
ATOM     17  C   UNK d   1      19.575 -54.067  37.060  0.00  0.00     0.019 A 
ATOM     18  C   UNK d   1      18.692 -54.331  38.102  0.00  0.00     0.011 A 
ATOM     19 Br   UNK d   1      19.231 -54.239  39.928  0.00  0.00    -0.051 Br
ATOM     20  C   UNK d   1      17.388 -54.659  37.814  0.00  0.00     0.019 A 
ATOM     21  C   UNK d   1      16.980 -54.721  36.502  0.00  0.00     0.010 A 
ENDBRANCH  14  15
ENDBRANCH   1  14
BRANCH   5  22
ATOM     22  N   UNK d   1      16.004 -57.275  33.964  0.00  0.00    -0.213 N 
ATOM     23  C   UNK d   1      16.287 -58.016  35.174  0.00  0.00     0.160 C 
ATOM     24  C   UNK d   1      15.737 -59.423  34.996  0.00  0.00     0.136 C 
ATOM     25  N   UNK d   1      14.690 -59.492  34.032  0.00  0.00    -0.414 N 
ATOM     26  C   UNK d   1      13.875 -58.330  33.906  0.00  0.00     0.136 C 
ATOM     27  C   UNK d   1      14.930 -60.242  32.858  0.00  0.00     0.143 C 
ATOM     28  C   UNK d   1      14.621 -57.048  33.639  0.00  0.00     0.160 C 
ENDBRANCH   5  22
TORSDOF 3
ENDMDL
