/Users/jonathanwahrer/Desktop/Msc/3_Semester/Drug_Design_Praktikum/waehrer_HTS_screening/HTS_experiment/out/docking_results/vina_output/6s1j/2105_docked.pdbqt
 OpenBabel03222222363D

 29 32  0  0  1  0  0  0  0  0999 V2000
   14.5140  -61.4910   34.3400 Cl  0  0  0  0  0  0  0  0  0  0  0  0
   14.4470  -59.7500   34.1660 C   0  0  0  0  0  0  0  0  0  0  0  0
   15.6170  -58.9900   34.1810 C   0  0  0  0  0  0  0  0  0  0  0  0
   15.6070  -57.6330   34.0480 C   0  0  0  0  0  0  0  0  0  0  0  0
   14.3650  -57.0340   33.8940 C   0  0  0  0  0  3  0  0  0  0  0  0
   13.1990  -57.7680   33.8760 C   0  0  0  0  0  3  0  0  0  0  0  0
   13.2290  -59.1380   34.0120 C   0  0  0  0  0  3  0  0  0  0  0  0
   16.9970  -57.1340   34.1060 C   0  0  2  0  0  0  0  0  0  0  0  0
   17.1780  -56.2320   35.3010 C   0  0  0  0  0  0  0  0  0  0  0  0
   17.6150  -55.0070   35.2170 C   0  0  0  0  0  0  0  0  0  0  0  0
   17.9600  -54.4160   33.9660 N   0  0  0  0  0  0  0  0  0  0  0  0
   17.8190  -55.1950   32.7910 C   0  0  0  0  0  0  0  0  0  0  0  0
   17.3810  -56.4310   32.8640 C   0  0  0  0  0  0  0  0  0  0  0  0
   17.2510  -57.1960   31.6310 C   0  0  0  0  0  0  0  0  0  0  0  0
   17.1390  -57.8150   30.6610 N   0  0  0  0  0  0  0  0  0  0  0  0
   17.6680  -54.4240   36.5740 C   0  0  0  0  0  0  0  0  0  0  0  0
   17.2290  -55.4110   37.4230 O   0  0  0  0  0  0  0  0  0  0  0  0
   16.9160  -56.5400   36.7010 C   0  0  0  0  0  0  0  0  0  0  0  0
   16.4760  -57.6590   37.1420 O   0  0  0  0  0  0  0  0  0  0  0  0
   16.8330  -53.1640   36.6010 C   0  0  0  0  0  1  0  0  0  0  0  0
   19.0820  -54.0430   36.9710 C   0  0  0  0  0  1  0  0  0  0  0  0
   17.8180  -58.3540   34.2880 C   0  0  0  0  0  0  0  0  0  0  0  0
   19.0960  -58.4070   34.3920 O   0  0  0  0  0  0  0  0  0  0  0  0
   16.9450  -59.4600   34.3290 N   0  0  0  0  0  0  0  0  0  0  0  0
   18.3090  -53.4380   33.8920 H   0  0  0  0  0  0  0  0  0  0  0  0
   17.2710  -60.4670   34.4520 H   0  0  0  0  0  0  0  0  0  0  0  0
   18.1460  -54.6720   31.5000 N   0  0  0  0  0  0  0  0  0  0  0  0
   17.9520  -55.2150   30.6480 H   0  0  0  0  0  0  0  0  0  0  0  0
   18.5790  -53.7420   31.4440 H   0  0  0  0  0  0  0  0  0  0  0  0
  2  3  1  0  0  0  0
  2  1  1  0  0  0  0
  3 24  1  0  0  0  0
  4  8  1  0  0  0  0
  4  3  2  0  0  0  0
  5  4  1  0  0  0  0
  6  5  2  0  0  0  0
  6  7  1  0  0  0  0
  7  2  2  0  0  0  0
  8 13  1  6  0  0  0
  8 22  1  0  0  0  0
  8  9  1  0  0  0  0
  9 18  1  0  0  0  0
 10  9  2  0  0  0  0
 10 16  1  0  0  0  0
 11 10  1  0  0  0  0
 12 13  2  0  0  0  0
 12 11  1  0  0  0  0
 14 13  1  0  0  0  0
 15 14  3  0  0  0  0
 16 20  1  0  0  0  0
 16 21  1  0  0  0  0
 16 17  1  0  0  0  0
 18 19  2  0  0  0  0
 18 17  1  0  0  0  0
 22 24  1  0  0  0  0
 22 23  2  0  0  0  0
 24 26  1  0  0  0  0
 25 11  1  0  0  0  0
 27 12  1  0  0  0  0
 28 27  1  0  0  0  0
 29 27  1  0  0  0  0
M  END
>  <Pose>
1

>  <Score>
-9.285

$$$$
