MODEL 1
REMARK VINA RESULT:    -9.285      0.000      0.000
REMARK INTER + INTRA:          -9.556
REMARK INTER:                  -9.556
REMARK INTRA:                   0.000
REMARK UNBOUND:                 0.000
REMARK  1 active torsions:
REMARK  status: ('A' for Active; 'I' for Inactive)
REMARK    1  A    between atoms: C_12  and  N_16 
ROOT
ATOM      1 Cl   UNK d   1      14.514 -61.491  34.340  0.00  0.00    -0.082 Cl
ATOM      2  C   UNK d   1      14.447 -59.750  34.166  0.00  0.00     0.061 A 
ATOM      3  C   UNK d   1      15.617 -58.990  34.181  0.00  0.00     0.065 A 
ATOM      4  C   UNK d   1      15.607 -57.633  34.048  0.00  0.00    -0.002 A 
ATOM      5  C   UNK d   1      14.365 -57.034  33.894  0.00  0.00     0.011 A 
ATOM      6  C   UNK d   1      13.199 -57.768  33.876  0.00  0.00     0.002 A 
ATOM      7  C   UNK d   1      13.229 -59.138  34.012  0.00  0.00     0.026 A 
ATOM      8  C   UNK d   1      16.997 -57.134  34.106  0.00  0.00     0.146 A 
ATOM      9  C   UNK d   1      17.178 -56.232  35.301  0.00  0.00     0.071 A 
ATOM     10  C   UNK d   1      17.615 -55.007  35.217  0.00  0.00     0.060 A 
ATOM     11  N   UNK d   1      17.960 -54.416  33.966  0.00  0.00    -0.342 N 
ATOM     12  C   UNK d   1      17.819 -55.195  32.791  0.00  0.00     0.118 A 
ATOM     13  C   UNK d   1      17.381 -56.431  32.864  0.00  0.00     0.093 A 
ATOM     14  C   UNK d   1      17.251 -57.196  31.631  0.00  0.00     0.101 C 
ATOM     15  N   UNK d   1      17.139 -57.815  30.661  0.00  0.00    -0.191 NA
ATOM     16  C   UNK d   1      17.668 -54.424  36.574  0.00  0.00     0.106 A 
ATOM     17  O   UNK d   1      17.229 -55.411  37.423  0.00  0.00    -0.301 OA
ATOM     18  C   UNK d   1      16.916 -56.540  36.701  0.00  0.00     0.294 A 
ATOM     19  O   UNK d   1      16.476 -57.659  37.142  0.00  0.00    -0.259 OA
ATOM     20  C   UNK d   1      16.833 -53.164  36.601  0.00  0.00     0.053 C 
ATOM     21  C   UNK d   1      19.082 -54.043  36.971  0.00  0.00     0.053 C 
ATOM     22  C   UNK d   1      17.818 -58.354  34.288  0.00  0.00     0.246 A 
ATOM     23  O   UNK d   1      19.096 -58.407  34.392  0.00  0.00    -0.271 OA
ATOM     24  N   UNK d   1      16.945 -59.460  34.329  0.00  0.00    -0.324 N 
ATOM     25  H   UNK d   1      18.309 -53.438  33.892  0.00  0.00     0.167 HD
ATOM     26  H   UNK d   1      17.271 -60.467  34.452  0.00  0.00     0.169 HD
ENDROOT
BRANCH  12  27
ATOM     27  N   UNK d   1      18.146 -54.672  31.500  0.00  0.00    -0.384 N 
ATOM     28  H   UNK d   1      17.952 -55.215  30.648  0.00  0.00     0.157 HD
ATOM     29  H   UNK d   1      18.579 -53.742  31.444  0.00  0.00     0.157 HD
ENDBRANCH  12  27
TORSDOF 1
ENDMDL
