MODEL 1
REMARK VINA RESULT:    -7.922      0.000      0.000
REMARK INTER + INTRA:          -8.814
REMARK INTER:                  -8.385
REMARK INTRA:                  -0.429
REMARK UNBOUND:                -0.429
REMARK  1 active torsions:
REMARK  status: ('A' for Active; 'I' for Inactive)
REMARK    1  A    between atoms: C_5  and  N_8 
ROOT
ATOM      1  N   UNK d   1      17.368 -56.942  34.067  0.00  0.00    -0.250 N 
ATOM      2  C   UNK d   1      16.433 -57.170  33.002  0.00  0.00     0.263 C 
ATOM      3  O   UNK d   1      15.386 -56.513  32.781  0.00  0.00    -0.270 OA
ATOM      4  C   UNK d   1      16.880 -58.316  32.177  0.00  0.00     0.259 C 
ATOM      5  O   UNK d   1      16.914 -58.016  30.819  0.00  0.00    -0.266 OA
ATOM      6  N   UNK d   1      17.858 -57.111  30.622  0.00  0.00    -0.288 N 
ATOM      7  C   UNK d   1      18.823 -57.156  31.630  0.00  0.00     0.125 C 
ATOM      8  C   UNK d   1      18.371 -58.332  32.498  0.00  0.00     0.144 C 
ATOM      9  C   UNK d   1      18.354 -57.965  33.934  0.00  0.00     0.240 C 
ATOM     10  O   UNK d   1      19.043 -58.422  34.894  0.00  0.00    -0.272 OA
ATOM     11  C   UNK d   1      20.245 -57.227  31.267  0.00  0.00     0.028 C 
ATOM     12  C   UNK d   1      20.600 -57.180  29.833  0.00  0.00     0.004 C 
ATOM     13  C   UNK d   1      19.610 -56.289  29.115  0.00  0.00     0.022 C 
ATOM     14  C   UNK d   1      18.257 -56.929  29.288  0.00  0.00     0.150 C 
ENDROOT
BRANCH   1  15
ATOM     15  C   UNK d   1      17.337 -55.916  35.061  0.00  0.00     0.045 A 
ATOM     16  C   UNK d   1      16.835 -56.108  36.331  0.00  0.00     0.032 A 
ATOM     17  C   UNK d   1      16.809 -55.107  37.287  0.00  0.00     0.026 A 
ATOM     18  C   UNK d   1      17.299 -53.852  36.993  0.00  0.00     0.034 A 
ATOM     19 Cl   UNK d   1      17.272 -52.576  38.197  0.00  0.00    -0.084 Cl
ATOM     20  C   UNK d   1      17.803 -53.648  35.725  0.00  0.00     0.026 A 
ATOM     21  C   UNK d   1      17.827 -54.650  34.774  0.00  0.00     0.032 A 
ENDBRANCH   1  15
TORSDOF 1
ENDMDL
