/Users/jonathanwahrer/Desktop/Msc/3_Semester/Drug_Design_Praktikum/waehrer_HTS_screening/HTS_experiment/out/docking_results/vina_output/6s1j/2116_docked.pdbqt
 OpenBabel03222222373D

 33 36  0  0  0  0  0  0  0  0999 V2000
   13.4320  -57.9030   38.2800 C   0  0  0  0  0  0  0  0  0  0  0  0
   12.6790  -58.9250   38.6540 N   0  0  0  0  0  4  0  0  0  0  0  0
   12.3180  -59.9360   37.8440 C   0  0  0  0  0  0  0  0  0  0  0  0
   12.7660  -59.8830   36.5710 N   0  0  0  0  0  0  0  0  0  0  0  0
   13.5440  -58.8590   36.1280 C   0  0  0  0  0  0  0  0  0  0  0  0
   13.8680  -57.8750   37.0030 N   0  0  0  0  0  2  0  0  0  0  0  0
   13.7370  -56.8620   39.1990 N   0  0  0  0  0  0  0  0  0  0  0  0
   13.3970  -56.9270   40.1660 H   0  0  0  0  0  0  0  0  0  0  0  0
   14.4830  -55.7660   38.7980 N   0  0  0  0  0  0  0  0  0  0  0  0
   15.7590  -55.6640   38.9530 C   0  0  0  0  0  3  0  0  0  0  0  0
   16.4950  -54.4940   38.5200 C   0  0  0  0  0  0  0  0  0  0  0  0
   16.1690  -53.2380   39.0290 C   0  0  0  0  0  0  0  0  0  0  0  0
   16.8150  -52.0920   38.6440 C   0  0  0  0  0  3  0  0  0  0  0  0
   17.8400  -52.1240   37.7190 C   0  0  0  0  0  0  0  0  0  0  0  0
   18.1830  -53.3630   37.2000 C   0  0  0  0  0  0  0  0  0  0  0  0
   19.5960  -53.4440   35.9300 Br  0  0  0  0  0  0  0  0  0  0  0  0
   17.5200  -54.5080   37.5990 C   0  0  0  0  0  3  0  0  0  0  0  0
   15.1330  -53.1980   39.9680 O   0  0  0  0  0  0  0  0  0  0  0  0
   15.3780  -53.1410   40.9520 H   0  0  0  0  0  0  0  0  0  0  0  0
   18.4900  -50.9530   37.3350 O   0  0  0  0  0  0  0  0  0  0  0  0
   18.1860  -50.3680   36.5710 H   0  0  0  0  0  0  0  0  0  0  0  0
   11.4930  -61.0240   38.2950 N   0  0  0  0  0  0  0  0  0  0  0  0
   10.6490  -61.7480   37.3880 C   0  0  0  0  0  2  0  0  0  0  0  0
   10.0430  -62.9970   37.8970 C   0  0  0  0  0  2  0  0  0  0  0  0
   10.0620  -63.1270   39.2790 O   0  0  0  0  0  0  0  0  0  0  0  0
   11.3160  -62.8600   39.8110 C   0  0  0  0  0  2  0  0  0  0  0  0
   11.5340  -61.3720   39.6850 C   0  0  0  0  0  2  0  0  0  0  0  0
   13.9920  -58.8080   34.7920 N   0  0  0  0  0  0  0  0  0  0  0  0
   13.7360  -57.6610   33.9590 C   0  0  0  0  0  2  0  0  0  0  0  0
   15.1090  -57.2460   33.4090 C   0  0  0  0  0  2  0  0  0  0  0  0
   15.7060  -58.3420   32.8210 O   0  0  0  0  0  0  0  0  0  0  0  0
   16.0770  -59.2740   33.7880 C   0  0  0  0  0  2  0  0  0  0  0  0
   14.7430  -59.9060   34.2400 C   0  0  0  0  0  2  0  0  0  0  0  0
  1  2  2  0  0  0  0
  1  7  1  0  0  0  0
  3 22  1  0  0  0  0
  3  2  2  0  0  0  0
  4  3  1  0  0  0  0
  5  4  2  0  0  0  0
  5  6  1  0  0  0  0
  6  1  1  0  0  0  0
  7  8  1  0  0  0  0
  9 10  2  0  0  0  0
  9  7  1  0  0  0  0
 11 10  1  0  0  0  0
 11 12  1  0  0  0  0
 12 18  1  0  0  0  0
 13 12  2  0  0  0  0
 14 13  1  0  0  0  0
 15 17  1  0  0  0  0
 15 14  2  0  0  0  0
 16 15  1  0  0  0  0
 17 11  2  0  0  0  0
 18 19  1  0  0  0  0
 20 14  1  0  0  0  0
 21 20  1  0  0  0  0
 22 27  1  0  0  0  0
 23 24  1  0  0  0  0
 23 22  1  0  0  0  0
 24 25  1  0  0  0  0
 25 26  1  0  0  0  0
 27 26  1  0  0  0  0
 28  5  1  0  0  0  0
 29 28  1  0  0  0  0
 30 29  1  0  0  0  0
 31 30  1  0  0  0  0
 31 32  1  0  0  0  0
 32 33  1  0  0  0  0
 33 28  1  0  0  0  0
M  END
>  <Pose>
1

>  <Score>
-9.341

$$$$
