MODEL 1
REMARK VINA RESULT:    -7.192      0.000      0.000
REMARK INTER + INTRA:          -9.387
REMARK INTER:                  -8.243
REMARK INTRA:                  -1.144
REMARK UNBOUND:                -1.144
REMARK  3 active torsions:
REMARK  status: ('A' for Active; 'I' for Inactive)
REMARK    1  A    between atoms: C_7  and  C_9 
REMARK       I    between atoms: C_9  and  N_11 
REMARK    2  A    between atoms: C_14  and  N_19 
REMARK    3  A    between atoms: C_15  and  O_18 
REMARK       I    between atoms: N_22  and  C_25 
ROOT
ATOM      1  C   UNK d   1      10.983 -59.235  38.447  0.00  0.00     0.203 C 
ATOM      2  O   UNK d   1      10.169 -59.439  37.402  0.00  0.00    -0.170 OA
ATOM      3  N   UNK d   1      10.405 -59.560  39.656  0.00  0.00    -0.358 N 
ATOM      4  C   UNK d   1       9.028 -60.099  39.474  0.00  0.00     0.127 C 
ATOM      5  C   UNK d   1       9.105 -61.604  39.309  0.00  0.00     0.058 C 
ATOM      6  C   UNK d   1      10.385 -62.060  39.898  0.00  0.00     0.253 C 
ATOM      7  C   UNK d   1      10.474 -61.701  41.346  0.00  0.00     0.153 C 
ATOM      8  C   UNK d   1      11.634 -60.697  41.463  0.00  0.00     0.054 C 
ATOM      9  C   UNK d   1      11.037 -59.386  40.918  0.00  0.00     0.127 C 
ENDROOT
BRANCH   1  10
ATOM     10  C   UNK d   1      12.271 -58.725  38.065  0.00  0.00     0.088 A 
ATOM     11  N   UNK d   1      12.901 -57.603  38.421  0.00  0.00    -0.352 N 
ATOM     12  C   UNK d   1      14.107 -57.499  37.785  0.00  0.00     0.043 A 
ATOM     13  H   UNK d   1      12.596 -56.881  39.086  0.00  0.00     0.166 HD
ATOM     14  C   UNK d   1      14.240 -58.593  37.002  0.00  0.00    -0.005 A 
ATOM     15  C   UNK d   1      15.098 -56.555  37.808  0.00  0.00     0.032 A 
ATOM     16  C   UNK d   1      15.365 -58.808  36.199  0.00  0.00     0.037 A 
ATOM     17  C   UNK d   1      13.110 -59.372  37.159  0.00  0.00     0.048 A 
ATOM     18  C   UNK d   1      16.339 -57.863  36.233  0.00  0.00     0.035 A 
ATOM     19 Cl   UNK d   1      17.773 -58.097  35.231  0.00  0.00    -0.084 Cl
ATOM     20  C   UNK d   1      16.227 -56.737  37.024  0.00  0.00     0.026 A 
ENDBRANCH   1  10
BRANCH   6  21
ATOM     21  N   UNK d   1      10.772 -63.421  39.699  0.00  0.00     0.098 N 
ATOM     22  C   UNK d   1      12.051 -63.603  39.061  0.00  0.00     0.293 C 
ATOM     23  C   UNK d   1      12.060 -63.076  37.677  0.00  0.00     0.156 C 
ATOM     24  N   UNK d   1      10.962 -63.744  36.969  0.00  0.00    -0.349 N 
ATOM     25  C   UNK d   1      10.217 -64.708  37.735  0.00  0.00     0.156 C 
ATOM     26  C   UNK d   1      10.704 -63.435  35.599  0.00  0.00     0.215 C 
ATOM     27  C   UNK d   1       9.755 -64.226  39.078  0.00  0.00     0.293 C 
ATOM     28  O   UNK d   1       9.766 -63.993  35.014  0.00  0.00    -0.274 OA
ATOM     29  C   UNK d   1      11.587 -62.438  34.914  0.00  0.00     0.117 C 
ENDBRANCH   6  21
BRANCH   7  30
ATOM     30  O   UNK d   1      10.666 -62.793  42.190  0.00  0.00    -0.393 OA
ATOM     31  H   UNK d   1       9.740 -63.064  42.496  0.00  0.00     0.210 HD
ENDBRANCH   7  30
TORSDOF 3
ENDMDL
