MODEL 1
REMARK VINA RESULT:    -9.291      0.000      0.000
REMARK INTER + INTRA:         -13.601
REMARK INTER:                 -12.550
REMARK INTRA:                  -1.051
REMARK UNBOUND:                -1.051
REMARK  6 active torsions:
REMARK  status: ('A' for Active; 'I' for Inactive)
REMARK    1  A    between atoms: N_11  and  C_12 
REMARK    2  A    between atoms: C_12  and  C_13 
REMARK    3  A    between atoms: C_16  and  C_18 
REMARK       I    between atoms: C_18  and  N_20 
REMARK    4  A    between atoms: N_20  and  C_21 
REMARK    5  A    between atoms: C_21  and  C_22 
REMARK    6  A    between atoms: C_22  and  N_23 
ROOT
ATOM      1  C   UNK d   1      18.938 -55.046  34.769  0.00  0.00     0.174 A 
ATOM      2  N   UNK d   1      19.111 -54.603  33.512  0.00  0.00    -0.109 NA
ATOM      3  O   UNK d   1      18.239 -55.149  32.712  0.00  0.00    -0.186 OA
ATOM      4  C   UNK d   1      17.493 -55.953  33.442  0.00  0.00     0.264 A 
ATOM      5  N   UNK d   1      17.910 -55.903  34.710  0.00  0.00    -0.198 NA
ENDROOT
BRANCH   1   6
ATOM      6  C   UNK d   1      19.732 -54.614  35.951  0.00  0.00     0.217 C 
BRANCH   6   7
ATOM      7  N   UNK d   1      19.057 -53.559  36.650  0.00  0.00    -0.283 N 
ATOM      8  C   UNK d   1      17.995 -53.601  37.460  0.00  0.00     0.075 A 
ATOM      9  C   UNK d   1      17.196 -54.646  37.900  0.00  0.00     0.056 A 
ATOM     10  C   UNK d   1      17.702 -52.310  37.906  0.00  0.00     0.108 A 
ATOM     11  C   UNK d   1      16.143 -54.356  38.763  0.00  0.00     0.036 A 
ATOM     12 Cl   UNK d   1      15.127 -55.675  39.323  0.00  0.00    -0.084 Cl
ATOM     13  C   UNK d   1      15.880 -53.065  39.186  0.00  0.00     0.026 A 
ATOM     14  C   UNK d   1      16.666 -52.042  38.753  0.00  0.00     0.041 A 
ATOM     15  O   UNK d   1      18.601 -51.565  37.340  0.00  0.00    -0.259 OA
ATOM     16  C   UNK d   1      19.418 -52.264  36.594  0.00  0.00     0.373 A 
ATOM     17  O   UNK d   1      20.374 -51.763  35.943  0.00  0.00    -0.237 OA
ENDBRANCH   6   7
ENDBRANCH   1   6
BRANCH   4  18
ATOM     18  C   UNK d   1      16.375 -56.749  32.834  0.00  0.00     0.297 C 
ATOM     19  O   UNK d   1      16.576 -56.926  31.583  0.00  0.00    -0.264 OA
ATOM     20  N   UNK d   1      15.349 -57.173  33.594  0.00  0.00    -0.352 N 
ATOM     21  H   UNK d   1      14.821 -57.820  32.506  0.00  0.00     0.162 HD
BRANCH  20  22
ATOM     22  C   UNK d   1      14.287 -57.617  34.361  0.00  0.00     0.142 C 
BRANCH  22  23
ATOM     23  C   UNK d   1      14.636 -57.788  35.844  0.00  0.00     0.136 C 
BRANCH  23  24
ATOM     24  N   UNK d   1      13.882 -58.765  36.524  0.00  0.00    -0.407 N 
ATOM     25  C   UNK d   1      12.888 -59.318  35.689  0.00  0.00     0.143 C 
ATOM     26  C   UNK d   1      11.713 -59.846  36.441  0.00  0.00     0.187 C 
ATOM     27  O   UNK d   1      12.156 -60.497  37.564  0.00  0.00    -0.388 OA
ATOM     28  C   UNK d   1      12.744 -59.667  38.499  0.00  0.00     0.187 C 
ATOM     29  C   UNK d   1      13.622 -58.611  37.896  0.00  0.00     0.143 C 
ENDBRANCH  23  24
ENDBRANCH  22  23
ENDBRANCH  20  22
ENDBRANCH   4  18
TORSDOF 6
ENDMDL
