MODEL 1
REMARK VINA RESULT:    -8.689      0.000      0.000
REMARK INTER + INTRA:          -9.179
REMARK INTER:                  -9.705
REMARK INTRA:                   0.525
REMARK UNBOUND:                 0.525
REMARK  2 active torsions:
REMARK  status: ('A' for Active; 'I' for Inactive)
REMARK    1  A    between atoms: C_5  and  N_8 
REMARK    2  A    between atoms: C_12  and  C_21 
ROOT
ATOM      1  N   UNK d   1      17.054 -55.823  34.873  0.00  0.00    -0.252 N 
ATOM      2  C   UNK d   1      17.144 -55.226  36.158  0.00  0.00     0.239 C 
ATOM      3  O   UNK d   1      16.972 -55.825  37.252  0.00  0.00    -0.272 OA
ATOM      4  C   UNK d   1      17.474 -53.766  36.037  0.00  0.00     0.138 C 
ATOM      5  C   UNK d   1      18.720 -53.432  36.788  0.00  0.00     0.142 C 
ATOM      6  O   UNK d   1      19.521 -52.729  35.855  0.00  0.00    -0.355 OA
ATOM      7  C   UNK d   1      19.469 -53.710  34.833  0.00  0.00     0.089 C 
ATOM      8  C   UNK d   1      17.964 -53.683  34.584  0.00  0.00     0.133 C 
ATOM      9  C   UNK d   1      17.458 -54.865  33.902  0.00  0.00     0.239 C 
ATOM     10  O   UNK d   1      17.399 -54.993  32.652  0.00  0.00    -0.272 OA
ATOM     11  C   UNK d   1      19.888 -54.912  35.592  0.00  0.00     0.010 C 
ATOM     12  C   UNK d   1      19.527 -54.691  36.873  0.00  0.00     0.016 C 
ATOM     13  C   UNK d   1      20.288 -53.398  33.651  0.00  0.00     0.051 C 
ENDROOT
BRANCH   1  14
ATOM     14  C   UNK d   1      16.642 -57.142  34.506  0.00  0.00     0.045 A 
ATOM     15  C   UNK d   1      17.525 -58.157  34.225  0.00  0.00     0.032 A 
ATOM     16  C   UNK d   1      17.114 -59.429  33.870  0.00  0.00     0.026 A 
ATOM     17  C   UNK d   1      15.774 -59.721  33.786  0.00  0.00     0.034 A 
ATOM     18 Cl   UNK d   1      15.205 -61.330  33.331  0.00  0.00    -0.084 Cl
ATOM     19  C   UNK d   1      14.877 -58.714  34.063  0.00  0.00     0.026 A 
ATOM     20  C   UNK d   1      15.292 -57.433  34.422  0.00  0.00     0.032 A 
ENDBRANCH   1  14
BRANCH   5  21
ATOM     21  C   UNK d   1      18.562 -52.726  38.065  0.00  0.00     0.298 C 
ATOM     22  O   UNK d   1      17.524 -51.801  37.936  0.00  0.00    -0.356 OA
ATOM     23  C   UNK d   1      16.346 -52.432  38.246  0.00  0.00     0.197 C 
ATOM     24  C   UNK d   1      16.790 -53.519  39.189  0.00  0.00     0.197 C 
ATOM     25  O   UNK d   1      18.156 -53.626  39.050  0.00  0.00    -0.356 OA
ENDBRANCH   5  21
TORSDOF 2
ENDMDL
