MODEL 1
REMARK VINA RESULT:   -10.395      0.000      0.000
REMARK INTER + INTRA:         -13.558
REMARK INTER:                 -12.826
REMARK INTRA:                  -0.732
REMARK UNBOUND:                -0.732
REMARK  4 active torsions:
REMARK  status: ('A' for Active; 'I' for Inactive)
REMARK    1  A    between atoms: C_5  and  N_8 
REMARK       I    between atoms: N_8  and  C_9 
REMARK       I    between atoms: C_9  and  N_11 
REMARK    2  A    between atoms: N_11  and  N_12 
REMARK       I    between atoms: N_12  and  C_13 
REMARK    3  A    between atoms: C_13  and  C_15 
REMARK    4  A    between atoms: N_17  and  C_26 
ROOT
ATOM      1  C   UNK d   1      15.925 -56.163  37.308  0.00  0.00     0.244 A 
ATOM      2  N   UNK d   1      16.432 -54.968  37.489  0.00  0.00    -0.127 NA
ATOM      3  N   UNK d   1      17.394 -54.657  36.561  0.00  0.00    -0.058 N 
ATOM      4  C   UNK d   1      17.489 -55.797  35.705  0.00  0.00     0.756 A 
ATOM      5  N   UNK d   1      18.223 -56.061  34.665  0.00  0.00     0.020 NA
ATOM      6  N   UNK d   1      18.127 -57.298  33.975  0.00  0.00    -0.258 N 
ATOM      7  C   UNK d   1      17.233 -58.307  34.376  0.00  0.00     0.110 A 
ATOM      8  C   UNK d   1      17.138 -59.471  33.747  0.00  0.00     0.050 C 
ATOM      9  C   UNK d   1      16.398 -58.030  35.539  0.00  0.00     0.295 A 
ATOM     10  O   UNK d   1      15.605 -58.902  35.908  0.00  0.00    -0.265 OA
ATOM     11  N   UNK d   1      16.552 -56.762  36.179  0.00  0.00    -0.080 N 
ATOM     12  H   UNK d   1      18.762 -57.407  33.153  0.00  0.00     0.190 HD
ENDROOT
BRANCH   1  13
ATOM     13  C   UNK d   1      14.893 -56.754  38.137  0.00  0.00     0.308 C 
ATOM     14  N   UNK d   1      13.653 -57.112  37.555  0.00  0.00    -0.259 N 
ATOM     15  H   UNK d   1      13.454 -56.996  36.550  0.00  0.00     0.190 HD
ATOM     16  O   UNK d   1      15.076 -56.953  39.381  0.00  0.00    -0.262 OA
BRANCH  14  17
ATOM     17  N   UNK d   1      12.667 -57.652  38.373  0.00  0.00    -0.248 N 
ATOM     18  C   UNK d   1      12.248 -58.995  38.417  0.00  0.00     0.339 C 
ATOM     19  N   UNK d   1      11.242 -59.476  39.272  0.00  0.00    -0.308 N 
ATOM     20  O   UNK d   1      12.808 -59.824  37.648  0.00  0.00    -0.245 OA
ATOM     21  H   UNK d   1      10.751 -58.809  39.919  0.00  0.00     0.170 HD
ATOM     22  H   UNK d   1      12.197 -56.932  39.013  0.00  0.00     0.192 HD
BRANCH  19  23
ATOM     23  C   UNK d   1      10.805 -60.829  39.357  0.00  0.00     0.036 A 
ATOM     24  C   UNK d   1      11.337 -61.691  40.313  0.00  0.00     0.031 A 
ATOM     25  C   UNK d   1      10.934 -63.004  40.418  0.00  0.00     0.026 A 
ATOM     26  C   UNK d   1       9.977 -63.434  39.536  0.00  0.00     0.034 A 
ATOM     27 Cl   UNK d   1       9.387 -65.100  39.592  0.00  0.00    -0.084 Cl
ATOM     28  C   UNK d   1       9.426 -62.622  38.582  0.00  0.00     0.026 A 
ATOM     29  C   UNK d   1       9.839 -61.312  38.487  0.00  0.00     0.031 A 
ENDBRANCH  19  23
ENDBRANCH  14  17
ENDBRANCH   1  13
BRANCH   3  30
ATOM     30  C   UNK d   1      18.166 -53.461  36.512  0.00  0.00     0.077 A 
ATOM     31  C   UNK d   1      19.210 -53.318  35.631  0.00  0.00     0.033 A 
ATOM     32  C   UNK d   1      19.967 -52.160  35.514  0.00  0.00     0.009 A 
ATOM     33  C   UNK d   1      19.684 -51.070  36.311  0.00  0.00    -0.062 A 
ATOM     34  C   UNK d   1      18.642 -51.191  37.206  0.00  0.00     0.009 A 
ATOM     35  C   UNK d   1      20.449 -49.791  36.191  0.00  0.00     0.048 C 
ATOM     36  C   UNK d   1      17.899 -52.367  37.303  0.00  0.00     0.033 A 
ENDBRANCH   3  30
TORSDOF 4
ENDMDL
