/Users/jonathanwahrer/Desktop/Msc/3_Semester/Drug_Design_Praktikum/waehrer_HTS_screening/HTS_experiment/out/docking_results/vina_output/6s1j/2136_docked.pdbqt
 OpenBabel03222222383D

 33 37  0  0  1  0  0  0  0  0999 V2000
   15.8150  -61.8430   33.9610 Cl  0  0  0  0  0  0  0  0  0  0  0  0
   15.2480  -60.1860   33.9340 C   0  0  0  0  0  0  0  0  0  0  0  0
   16.1060  -59.1040   33.9510 C   0  0  0  0  0  0  0  0  0  0  0  0
   15.6220  -57.8010   33.9290 C   0  0  0  0  0  0  0  0  0  0  0  0
   14.2630  -57.6510   33.8900 C   0  0  0  0  0  3  0  0  0  0  0  0
   13.3930  -58.7150   33.8720 C   0  0  0  0  0  3  0  0  0  0  0  0
   13.8720  -59.9910   33.8930 C   0  0  0  0  0  3  0  0  0  0  0  0
   16.7710  -56.8890   33.9550 C   0  0  2  0  0  0  0  0  0  0  0  0
   16.7420  -55.9880   35.0940 N   0  0  0  0  0  0  0  0  0  0  0  0
   17.7230  -54.9730   34.7030 C   0  0  1  0  0  3  0  0  0  0  0  0
   17.5980  -54.7990   33.2370 C   0  0  2  0  0  3  0  0  0  0  0  0
   16.7280  -55.9320   32.7930 C   0  0  1  0  0  3  0  0  0  0  0  0
   17.2880  -56.4950   31.5620 C   0  0  0  0  0  0  0  0  0  0  0  0
   16.6640  -57.2750   30.8000 O   0  0  0  0  0  0  0  0  0  0  0  0
   18.6110  -55.9850   31.4420 N   0  0  0  0  0  0  0  0  0  0  0  0
   18.8920  -55.1050   32.5220 C   0  0  0  0  0  0  0  0  0  0  0  0
   20.0000  -54.6220   32.8810 O   0  0  0  0  0  0  0  0  0  0  0  0
   17.9770  -57.7310   33.9980 C   0  0  0  0  0  0  0  0  0  0  0  0
   19.1660  -57.3840   34.0320 O   0  0  0  0  0  0  0  0  0  0  0  0
   17.5250  -59.0780   33.9920 N   0  0  0  0  0  0  0  0  0  0  0  0
   17.0340  -56.4730   35.9860 H   0  0  0  0  0  0  0  0  0  0  0  0
   18.1260  -59.9450   34.0150 H   0  0  0  0  0  0  0  0  0  0  0  0
   17.4900  -53.6840   35.4310 C   0  0  0  0  0  2  0  0  0  0  0  0
   17.7600  -53.7390   36.8770 C   0  0  0  0  0  0  0  0  0  0  0  0
   19.0510  -54.0740   37.2810 C   0  0  0  0  0  3  0  0  0  0  0  0
   19.3390  -54.1130   38.6210 C   0  0  0  0  0  3  0  0  0  0  0  0
   18.4080  -53.8350   39.5930 C   0  0  0  0  0  3  0  0  0  0  0  0
   17.1440  -53.5080   39.1540 C   0  0  0  0  0  3  0  0  0  0  0  0
   16.8000  -53.4540   37.8190 C   0  0  0  0  0  3  0  0  0  0  0  0
   19.5330  -56.3260   30.3620 C   0  0  0  0  0  2  0  0  0  0  0  0
   20.1610  -57.6730   30.6910 C   0  0  0  0  0  2  0  0  0  0  0  0
   19.5960  -58.6810   29.9260 O   0  0  0  0  0  0  0  0  0  0  0  0
   19.4110  -58.2300   28.6340 C   0  0  0  0  0  1  0  0  0  0  0  0
  2  3  1  0  0  0  0
  2  1  1  0  0  0  0
  3 20  1  0  0  0  0
  4  3  2  0  0  0  0
  5  4  1  0  0  0  0
  6  5  2  0  0  0  0
  6  7  1  0  0  0  0
  7  2  2  0  0  0  0
  8  4  1  6  0  0  0
  8 18  1  0  0  0  0
  8  9  1  0  0  0  0
  9 21  1  0  0  0  0
 10  9  1  0  0  0  0
 10 23  1  1  0  0  0
 11 16  1  6  0  0  0
 11 10  1  0  0  0  0
 12 13  1  6  0  0  0
 12 11  1  0  0  0  0
 12  8  1  0  0  0  0
 14 13  2  0  0  0  0
 15 13  1  0  0  0  0
 15 16  1  0  0  0  0
 16 17  2  0  0  0  0
 18 19  2  0  0  0  0
 20 18  1  0  0  0  0
 20 22  1  0  0  0  0
 23 24  1  0  0  0  0
 24 25  2  0  0  0  0
 24 29  1  0  0  0  0
 25 26  1  0  0  0  0
 26 27  2  0  0  0  0
 28 27  1  0  0  0  0
 29 28  2  0  0  0  0
 30 31  1  0  0  0  0
 30 15  1  0  0  0  0
 32 31  1  0  0  0  0
 33 32  1  0  0  0  0
M  END
>  <Pose>
1

>  <Score>
-9.602

$$$$
