MODEL 1
REMARK VINA RESULT:    -9.602      0.000      0.000
REMARK INTER + INTRA:         -13.450
REMARK INTER:                 -12.409
REMARK INTRA:                  -1.041
REMARK UNBOUND:                -1.041
REMARK  5 active torsions:
REMARK  status: ('A' for Active; 'I' for Inactive)
REMARK    1  A    between atoms: C_10  and  C_22 
REMARK    2  A    between atoms: N_15  and  C_18 
REMARK    3  A    between atoms: C_18  and  C_19 
REMARK    4  A    between atoms: C_19  and  O_20 
REMARK    5  A    between atoms: C_22  and  C_23 
ROOT
ATOM      1 Cl   UNK d   1      15.815 -61.843  33.961  0.00  0.00    -0.082 Cl
ATOM      2  C   UNK d   1      15.248 -60.186  33.934  0.00  0.00     0.061 A 
ATOM      3  C   UNK d   1      16.106 -59.104  33.951  0.00  0.00     0.066 A 
ATOM      4  C   UNK d   1      15.622 -57.801  33.929  0.00  0.00     0.019 A 
ATOM      5  C   UNK d   1      14.263 -57.651  33.890  0.00  0.00     0.013 A 
ATOM      6  C   UNK d   1      13.393 -58.715  33.872  0.00  0.00     0.002 A 
ATOM      7  C   UNK d   1      13.872 -59.991  33.893  0.00  0.00     0.026 A 
ATOM      8  C   UNK d   1      16.771 -56.889  33.955  0.00  0.00     0.279 A 
ATOM      9  N   UNK d   1      16.742 -55.988  35.094  0.00  0.00     0.114 N 
ATOM     10  C   UNK d   1      17.723 -54.973  34.703  0.00  0.00     0.240 C 
ATOM     11  C   UNK d   1      17.598 -54.799  33.237  0.00  0.00     0.128 C 
ATOM     12  C   UNK d   1      16.728 -55.932  32.793  0.00  0.00     0.147 C 
ATOM     13  C   UNK d   1      17.288 -56.495  31.562  0.00  0.00     0.235 C 
ATOM     14  O   UNK d   1      16.664 -57.275  30.800  0.00  0.00    -0.272 OA
ATOM     15  N   UNK d   1      18.611 -55.985  31.442  0.00  0.00    -0.286 N 
ATOM     16  C   UNK d   1      18.892 -55.105  32.522  0.00  0.00     0.233 C 
ATOM     17  O   UNK d   1      20.000 -54.622  32.881  0.00  0.00    -0.272 OA
ATOM     18  C   UNK d   1      17.977 -57.731  33.998  0.00  0.00     0.267 A 
ATOM     19  O   UNK d   1      19.166 -57.384  34.032  0.00  0.00    -0.270 OA
ATOM     20  N   UNK d   1      17.525 -59.078  33.992  0.00  0.00    -0.323 N 
ATOM     21  H   UNK d   1      17.034 -56.473  35.986  0.00  0.00     0.318 HD
ATOM     22  H   UNK d   1      18.126 -59.945  34.015  0.00  0.00     0.169 HD
ENDROOT
BRANCH  10  23
ATOM     23  C   UNK d   1      17.490 -53.684  35.431  0.00  0.00     0.075 C 
BRANCH  23  24
ATOM     24  C   UNK d   1      17.760 -53.739  36.877  0.00  0.00    -0.056 A 
ATOM     25  C   UNK d   1      19.051 -54.074  37.281  0.00  0.00     0.007 A 
ATOM     26  C   UNK d   1      19.339 -54.113  38.621  0.00  0.00     0.001 A 
ATOM     27  C   UNK d   1      18.408 -53.835  39.593  0.00  0.00     0.000 A 
ATOM     28  C   UNK d   1      17.144 -53.508  39.154  0.00  0.00     0.001 A 
ATOM     29  C   UNK d   1      16.800 -53.454  37.819  0.00  0.00     0.007 A 
ENDBRANCH  23  24
ENDBRANCH  10  23
BRANCH  15  30
ATOM     30  C   UNK d   1      19.533 -56.326  30.362  0.00  0.00     0.161 C 
BRANCH  30  31
ATOM     31  C   UNK d   1      20.161 -57.673  30.691  0.00  0.00     0.187 C 
BRANCH  31  32
ATOM     32  O   UNK d   1      19.596 -58.681  29.926  0.00  0.00    -0.394 OA
ATOM     33  C   UNK d   1      19.411 -58.230  28.634  0.00  0.00     0.201 C 
ENDBRANCH  31  32
ENDBRANCH  30  31
ENDBRANCH  15  30
TORSDOF 5
ENDMDL
