MODEL 1
REMARK VINA RESULT:    -8.397      0.000      0.000
REMARK INTER + INTRA:         -10.717
REMARK INTER:                 -10.115
REMARK INTRA:                  -0.602
REMARK UNBOUND:                -0.602
REMARK  4 active torsions:
REMARK  status: ('A' for Active; 'I' for Inactive)
REMARK    1  A    between atoms: C_5  and  C_8 
REMARK    2  A    between atoms: C_8  and  N_9 
REMARK    3  A    between atoms: N_12  and  C_15 
REMARK    4  A    between atoms: C_17  and  N_24 
ROOT
ATOM      1  N   UNK d   1      17.725 -56.045  34.578  0.00  0.00    -0.405 N 
ATOM      2  C   UNK d   1      18.201 -57.362  34.428  0.00  0.00     0.137 C 
ATOM      3  C   UNK d   1      17.183 -58.462  34.564  0.00  0.00     0.144 C 
ATOM      4  N   UNK d   1      15.865 -57.836  34.281  0.00  0.00    -0.360 N 
ATOM      5  C   UNK d   1      15.898 -56.885  33.236  0.00  0.00     0.144 C 
ATOM      6  C   UNK d   1      16.611 -55.657  33.759  0.00  0.00     0.137 C 
ENDROOT
BRANCH   4   7
ATOM      7  C   UNK d   1      14.774 -58.288  35.053  0.00  0.00     0.176 A 
ATOM      8  N   UNK d   1      13.804 -59.044  34.458  0.00  0.00    -0.043 NA
ATOM      9  C   UNK d   1      12.713 -59.500  35.060  0.00  0.00     0.724 A 
ATOM     10  N   UNK d   1      12.529 -59.206  36.359  0.00  0.00    -0.041 NA
ATOM     11  C   UNK d   1      13.456 -58.462  37.002  0.00  0.00     0.200 A 
ATOM     12  N   UNK d   1      13.545 -58.031  38.274  0.00  0.00    -0.222 NA
ATOM     13  C   UNK d   1      14.606 -57.980  36.373  0.00  0.00     0.129 A 
ATOM     14  C   UNK d   1      14.671 -57.333  38.423  0.00  0.00     0.210 A 
ATOM     15  N   UNK d   1      15.342 -57.290  37.259  0.00  0.00    -0.344 N 
ATOM     16  H   UNK d   1      16.258 -56.809  37.129  0.00  0.00     0.167 HD
BRANCH   9  17
ATOM     17  N   UNK d   1      11.726 -60.295  34.369  0.00  0.00    -0.231 N 
ATOM     18  H   UNK d   1      10.947 -60.750  34.864  0.00  0.00     0.174 HD
ATOM     19  H   UNK d   1      11.795 -60.419  33.340  0.00  0.00     0.174 HD
ENDBRANCH   9  17
ENDBRANCH   4   7
BRANCH   1  20
ATOM     20  C   UNK d   1      17.789 -55.458  35.861  0.00  0.00     0.155 C 
BRANCH  20  21
ATOM     21  C   UNK d   1      18.428 -54.146  35.946  0.00  0.00    -0.041 A 
ATOM     22  C   UNK d   1      18.056 -53.246  36.912  0.00  0.00     0.010 A 
ATOM     23  C   UNK d   1      18.622 -51.983  37.046  0.00  0.00     0.024 A 
ATOM     24  C   UNK d   1      19.610 -51.639  36.148  0.00  0.00     0.034 A 
ATOM     25 Cl   UNK d   1      20.370 -50.064  36.253  0.00  0.00    -0.084 Cl
ATOM     26  C   UNK d   1      19.983 -52.540  35.176  0.00  0.00     0.024 A 
ATOM     27  C   UNK d   1      19.411 -53.783  35.061  0.00  0.00     0.010 A 
ENDBRANCH  20  21
ENDBRANCH   1  20
TORSDOF 4
ENDMDL
