MODEL 1
REMARK VINA RESULT:    -9.009      0.000      0.000
REMARK INTER + INTRA:         -10.787
REMARK INTER:                 -10.589
REMARK INTRA:                  -0.198
REMARK UNBOUND:                -0.198
REMARK  3 active torsions:
REMARK  status: ('A' for Active; 'I' for Inactive)
REMARK    1  A    between atoms: C_5  and  C_8 
REMARK    2  A    between atoms: C_8  and  N_9 
REMARK    3  A    between atoms: C_17  and  N_18 
ROOT
ATOM      1  N   UNK d   1      16.606 -55.496  37.840  0.00  0.00    -0.227 N 
ATOM      2  N   UNK d   1      16.981 -55.679  36.588  0.00  0.00    -0.063 NA
ATOM      3  N   UNK d   1      16.177 -56.524  35.968  0.00  0.00    -0.124 NA
ATOM      4  C   UNK d   1      15.237 -56.920  36.825  0.00  0.00     0.173 A 
ATOM      5  C   UNK d   1      15.506 -56.271  38.010  0.00  0.00     0.183 A 
ATOM      6  N   UNK d   1      14.691 -56.503  39.050  0.00  0.00    -0.220 NA
ATOM      7  C   UNK d   1      13.646 -57.341  38.936  0.00  0.00     0.237 A 
ATOM      8  N   UNK d   1      13.404 -57.963  37.769  0.00  0.00    -0.222 NA
ATOM      9  C   UNK d   1      14.170 -57.795  36.659  0.00  0.00     0.162 A 
ENDROOT
BRANCH   1  10
ATOM     10  C   UNK d   1      17.217 -54.649  38.863  0.00  0.00     0.193 C 
BRANCH  10  11
ATOM     11  C   UNK d   1      17.966 -53.571  38.166  0.00  0.00    -0.038 A 
ATOM     12  C   UNK d   1      17.396 -52.328  38.120  0.00  0.00     0.010 A 
ATOM     13  C   UNK d   1      18.026 -51.267  37.491  0.00  0.00     0.024 A 
ATOM     14  C   UNK d   1      19.249 -51.467  36.902  0.00  0.00     0.034 A 
ATOM     15 Cl   UNK d   1      20.067 -50.132  36.097  0.00  0.00    -0.084 Cl
ATOM     16  C   UNK d   1      19.815 -52.724  36.954  0.00  0.00     0.024 A 
ATOM     17  C   UNK d   1      19.191 -53.775  37.577  0.00  0.00     0.010 A 
ENDBRANCH  10  11
ENDBRANCH   1  10
BRANCH   9  18
ATOM     18  N   UNK d   1      13.920 -58.443  35.436  0.00  0.00    -0.360 N 
ATOM     19  C   UNK d   1      13.714 -57.819  34.157  0.00  0.00     0.154 C 
ATOM     20  C   UNK d   1      14.757 -58.311  33.224  0.00  0.00     0.291 C 
ATOM     21  N   UNK d   1      15.453 -59.479  33.563  0.00  0.00     0.087 N 
ATOM     22  C   UNK d   1      14.926 -60.375  34.502  0.00  0.00     0.291 C 
ATOM     23  C   UNK d   1      16.814 -59.136  33.934  0.00  0.00     0.310 C 
ATOM     24  C   UNK d   1      13.851 -59.883  35.396  0.00  0.00     0.154 C 
ENDBRANCH   9  18
TORSDOF 3
ENDMDL
