MODEL 1
REMARK VINA RESULT:    -9.707      0.000      0.000
REMARK INTER + INTRA:         -11.308
REMARK INTER:                 -10.842
REMARK INTRA:                  -0.466
REMARK UNBOUND:                -0.466
REMARK  2 active torsions:
REMARK  status: ('A' for Active; 'I' for Inactive)
REMARK    1  A    between atoms: C_10  and  N_11 
REMARK    2  A    between atoms: N_14  and  C_17 
ROOT
ATOM      1  N   UNK d   1      15.211 -57.562  36.745  0.00  0.00    -0.384 N 
ATOM      2  C   UNK d   1      14.000 -57.691  35.970  0.00  0.00     0.142 C 
ATOM      3  C   UNK d   1      14.378 -57.759  34.514  0.00  0.00     0.144 C 
ATOM      4  N   UNK d   1      15.497 -58.643  34.253  0.00  0.00    -0.362 N 
ATOM      5  C   UNK d   1      16.688 -58.520  35.068  0.00  0.00     0.144 C 
ATOM      6  C   UNK d   1      16.275 -58.514  36.517  0.00  0.00     0.142 C 
ENDROOT
BRANCH   1   7
ATOM      7  C   UNK d   1      15.284 -56.507  37.694  0.00  0.00     0.134 C 
ATOM      8  C   UNK d   1      16.078 -55.465  37.604  0.00  0.00     0.124 A 
ATOM      9  N   UNK d   1      16.975 -55.272  36.515  0.00  0.00    -0.340 N 
ATOM     10  N   UNK d   1      16.058 -54.475  38.622  0.00  0.00    -0.308 N 
ATOM     11  C   UNK d   1      17.845 -54.158  36.385  0.00  0.00     0.049 A 
ATOM     12  H   UNK d   1      16.977 -56.007  35.776  0.00  0.00     0.167 HD
ATOM     13  C   UNK d   1      17.833 -53.192  37.371  0.00  0.00     0.060 A 
ATOM     14  C   UNK d   1      18.715 -53.968  35.333  0.00  0.00     0.032 A 
ATOM     15  C   UNK d   1      18.653 -52.092  37.299  0.00  0.00     0.043 A 
ATOM     16  C   UNK d   1      16.913 -53.363  38.513  0.00  0.00     0.259 A 
ATOM     17  C   UNK d   1      19.516 -51.919  36.240  0.00  0.00     0.035 A 
ATOM     18 Cl   UNK d   1      20.554 -50.490  36.186  0.00  0.00    -0.084 Cl
ATOM     19  C   UNK d   1      19.543 -52.872  35.247  0.00  0.00     0.026 A 
ATOM     20  O   UNK d   1      16.949 -52.437  39.387  0.00  0.00    -0.267 OA
ATOM     21  H   UNK d   1      15.427 -54.546  39.452  0.00  0.00     0.170 HD
ENDBRANCH   1   7
BRANCH   4  22
ATOM     22  C   UNK d   1      15.411 -59.612  33.206  0.00  0.00     0.142 A 
ATOM     23  N   UNK d   1      16.216 -59.482  32.133  0.00  0.00    -0.224 NA
ATOM     24  C   UNK d   1      16.168 -60.383  31.112  0.00  0.00     0.237 A 
ATOM     25  N   UNK d   1      15.309 -61.426  31.152  0.00  0.00    -0.222 NA
ATOM     26  C   UNK d   1      14.486 -61.608  32.190  0.00  0.00     0.162 A 
ATOM     27  N   UNK d   1      13.555 -62.535  32.481  0.00  0.00    -0.256 N 
ATOM     28  C   UNK d   1      14.549 -60.676  33.227  0.00  0.00     0.076 A 
ATOM     29  N   UNK d   1      13.038 -62.220  33.655  0.00  0.00    -0.182 NA
ATOM     30  C   UNK d   1      13.165 -63.692  31.669  0.00  0.00     0.182 C 
ATOM     31  C   UNK d   1      13.625 -61.088  34.136  0.00  0.00     0.158 A 
ENDBRANCH   4  22
TORSDOF 2
ENDMDL
