MODEL 1
REMARK VINA RESULT:   -10.415      0.000      0.000
REMARK INTER + INTRA:         -13.705
REMARK INTER:                 -12.851
REMARK INTRA:                  -0.854
REMARK UNBOUND:                -0.854
REMARK  4 active torsions:
REMARK  status: ('A' for Active; 'I' for Inactive)
REMARK    1  A    between atoms: C_13  and  C_14 
REMARK    2  A    between atoms: C_14  and  N_15 
REMARK    3  A    between atoms: N_18  and  C_21 
REMARK    4  A    between atoms: C_24  and  O_27 
ROOT
ATOM      1  N   UNK d   1      18.523 -55.253  33.851  0.00  0.00    -0.064 N 
ATOM      2  C   UNK d   1      17.170 -55.107  33.610  0.00  0.00     0.255 C 
ATOM      3  C   UNK d   1      16.614 -56.346  32.826  0.00  0.00     0.150 C 
ATOM      4  N   UNK d   1      16.690 -57.372  33.974  0.00  0.00    -0.378 N 
ATOM      5  C   UNK d   1      17.996 -57.676  34.303  0.00  0.00     0.150 C 
ATOM      6  C   UNK d   1      18.885 -56.667  33.542  0.00  0.00     0.255 C 
ATOM      7  H   UNK d   1      19.043 -54.735  33.072  0.00  0.00     0.280 HD
ENDROOT
BRANCH   1   8
ATOM      8  C   UNK d   1      19.180 -54.914  35.037  0.00  0.00     0.274 C 
BRANCH   8   9
ATOM      9  C   UNK d   1      19.110 -53.565  35.622  0.00  0.00    -0.014 A 
ATOM     10  C   UNK d   1      18.169 -53.476  36.697  0.00  0.00     0.008 A 
ATOM     11  C   UNK d   1      17.384 -54.537  36.987  0.00  0.00     0.041 A 
ATOM     12  C   UNK d   1      18.062 -52.305  37.395  0.00  0.00     0.093 A 
ATOM     13  C   UNK d   1      16.456 -54.475  37.991  0.00  0.00     0.071 A 
ATOM     14 Cl   UNK d   1      15.351 -55.796  38.387  0.00  0.00    -0.081 Cl
ATOM     15  C   UNK d   1      16.308 -53.305  38.744  0.00  0.00     0.131 A 
ATOM     16  C   UNK d   1      17.105 -52.239  38.436  0.00  0.00     0.080 A 
ATOM     17  O   UNK d   1      15.379 -53.214  39.805  0.00  0.00    -0.190 OA
ATOM     18  O   UNK d   1      18.783 -51.254  37.127  0.00  0.00    -0.275 OA
ATOM     19  C   UNK d   1      19.669 -51.289  36.138  0.00  0.00     0.288 A 
ATOM     20  O   UNK d   1      20.343 -50.278  35.901  0.00  0.00    -0.260 OA
ATOM     21  C   UNK d   1      19.840 -52.457  35.368  0.00  0.00     0.092 A 
ENDBRANCH   8   9
ENDBRANCH   1   8
BRANCH   4  22
ATOM     22  C   UNK d   1      15.416 -57.715  34.475  0.00  0.00     0.030 A 
ATOM     23  C   UNK d   1      14.264 -57.782  33.772  0.00  0.00     0.032 A 
ATOM     24  C   UNK d   1      13.088 -58.376  34.312  0.00  0.00     0.039 A 
ATOM     25  C   UNK d   1      13.069 -58.909  35.573  0.00  0.00     0.068 A 
ATOM     26  C   UNK d   1      14.247 -58.838  36.309  0.00  0.00     0.039 A 
ATOM     27  C   UNK d   1      15.387 -58.254  35.776  0.00  0.00     0.032 A 
BRANCH  25  28
ATOM     28  O   UNK d   1      11.896 -59.476  36.057  0.00  0.00    -0.356 OA
ATOM     29  C   UNK d   1      11.628 -59.526  37.467  0.00  0.00     0.210 C 
ENDBRANCH  25  28
ENDBRANCH   4  22
TORSDOF 4
ENDMDL
