/Users/jonathanwahrer/Desktop/Msc/3_Semester/Drug_Design_Praktikum/waehrer_HTS_screening/HTS_experiment/out/docking_results/vina_output/6s1j/2184_docked.pdbqt
 OpenBabel03222222393D

 29 32  0  0  0  0  0  0  0  0999 V2000
   18.5230  -55.2530   33.8510 N   0  0  0  0  0  4  0  0  0  0  0  0
   17.1700  -55.1070   33.6100 C   0  0  0  0  0  2  0  0  0  0  0  0
   16.6140  -56.3460   32.8260 C   0  0  0  0  0  2  0  0  0  0  0  0
   16.6900  -57.3720   33.9740 N   0  0  0  0  0  0  0  0  0  0  0  0
   17.9960  -57.6760   34.3030 C   0  0  0  0  0  2  0  0  0  0  0  0
   18.8850  -56.6670   33.5420 C   0  0  0  0  0  2  0  0  0  0  0  0
   19.0430  -54.7350   33.0720 H   0  0  0  0  0  0  0  0  0  0  0  0
   19.1800  -54.9140   35.0370 C   0  0  0  0  0  2  0  0  0  0  0  0
   19.1100  -53.5650   35.6220 C   0  0  0  0  0  0  0  0  0  0  0  0
   18.1690  -53.4760   36.6970 C   0  0  0  0  0  0  0  0  0  0  0  0
   17.3840  -54.5370   36.9870 C   0  0  0  0  0  3  0  0  0  0  0  0
   18.0620  -52.3050   37.3950 C   0  0  0  0  0  0  0  0  0  0  0  0
   16.4560  -54.4750   37.9910 C   0  0  0  0  0  0  0  0  0  0  0  0
   15.3510  -55.7960   38.3870 Cl  0  0  0  0  0  0  0  0  0  0  0  0
   16.3080  -53.3050   38.7440 C   0  0  0  0  0  0  0  0  0  0  0  0
   17.1050  -52.2390   38.4360 C   0  0  0  0  0  3  0  0  0  0  0  0
   15.3790  -53.2140   39.8050 O   0  0  0  0  0  1  0  0  0  0  0  0
   18.7830  -51.2540   37.1270 O   0  0  0  0  0  0  0  0  0  0  0  0
   19.6690  -51.2890   36.1380 C   0  0  0  0  0  0  0  0  0  0  0  0
   20.3430  -50.2780   35.9010 O   0  0  0  0  0  0  0  0  0  0  0  0
   19.8400  -52.4570   35.3680 C   0  0  0  0  0  3  0  0  0  0  0  0
   15.4160  -57.7150   34.4750 C   0  0  0  0  0  0  0  0  0  0  0  0
   14.2640  -57.7820   33.7720 C   0  0  0  0  0  3  0  0  0  0  0  0
   13.0880  -58.3760   34.3120 C   0  0  0  0  0  3  0  0  0  0  0  0
   13.0690  -58.9090   35.5730 C   0  0  0  0  0  0  0  0  0  0  0  0
   14.2470  -58.8380   36.3090 C   0  0  0  0  0  3  0  0  0  0  0  0
   15.3870  -58.2540   35.7760 C   0  0  0  0  0  3  0  0  0  0  0  0
   11.8960  -59.4760   36.0570 O   0  0  0  0  0  0  0  0  0  0  0  0
   11.6280  -59.5260   37.4670 C   0  0  0  0  0  1  0  0  0  0  0  0
  1  8  1  0  0  0  0
  2  1  1  0  0  0  0
  3  2  1  0  0  0  0
  3  4  1  0  0  0  0
  4  5  1  0  0  0  0
  4 22  1  0  0  0  0
  6  1  1  0  0  0  0
  6  5  1  0  0  0  0
  7  1  1  0  0  0  0
  8  9  1  0  0  0  0
  9 10  1  0  0  0  0
 10 11  2  0  0  0  0
 10 12  1  0  0  0  0
 11 13  1  0  0  0  0
 12 16  2  0  0  0  0
 13 14  1  0  0  0  0
 13 15  2  0  0  0  0
 15 17  1  0  0  0  0
 16 15  1  0  0  0  0
 18 12  1  0  0  0  0
 19 18  1  0  0  0  0
 20 19  2  0  0  0  0
 21  9  2  0  0  0  0
 21 19  1  0  0  0  0
 22 27  1  0  0  0  0
 23 24  1  0  0  0  0
 23 22  2  0  0  0  0
 24 25  2  0  0  0  0
 25 28  1  0  0  0  0
 25 26  1  0  0  0  0
 27 26  2  0  0  0  0
 28 29  1  0  0  0  0
M  END
>  <Pose>
1

>  <Score>
-10.415

$$$$
