MODEL 1
REMARK VINA RESULT:    -9.976      0.000      0.000
REMARK INTER + INTRA:         -13.562
REMARK INTER:                 -12.601
REMARK INTRA:                  -0.961
REMARK UNBOUND:                -0.961
REMARK  5 active torsions:
REMARK  status: ('A' for Active; 'I' for Inactive)
REMARK    1  A    between atoms: S_1  and  N_4 
REMARK    2  A    between atoms: C_6  and  C_10 
REMARK    3  A    between atoms: N_13  and  C_20 
REMARK    4  A    between atoms: C_17  and  O_19 
REMARK    5  A    between atoms: C_20  and  C_21 
ROOT
ATOM      1  C   UNK d   1      17.523 -57.132  33.688  0.00  0.00     0.137 A 
ATOM      2  N   UNK d   1      18.212 -56.355  34.521  0.00  0.00    -0.211 NA
ATOM      3  C   UNK d   1      18.895 -55.280  34.089  0.00  0.00     0.184 A 
ATOM      4  N   UNK d   1      19.661 -54.341  34.708  0.00  0.00    -0.227 N 
ATOM      5  N   UNK d   1      20.078 -53.522  33.765  0.00  0.00    -0.063 NA
ATOM      6  N   UNK d   1      19.625 -53.880  32.579  0.00  0.00    -0.124 NA
ATOM      7  C   UNK d   1      18.878 -54.979  32.734  0.00  0.00     0.180 A 
ATOM      8  C   UNK d   1      18.166 -55.778  31.856  0.00  0.00     0.199 A 
ATOM      9  N   UNK d   1      17.520 -56.825  32.387  0.00  0.00    -0.207 NA
ENDROOT
BRANCH   1  10
ATOM     10  C   UNK d   1      16.750 -58.324  34.131  0.00  0.00     0.076 C 
ATOM     11  C   UNK d   1      16.350 -58.320  35.540  0.00  0.00     0.147 C 
ATOM     12  N   UNK d   1      15.022 -58.120  35.909  0.00  0.00    -0.310 N 
ATOM     13  C   UNK d   1      14.073 -57.681  34.996  0.00  0.00     0.135 C 
ATOM     14  C   UNK d   1      14.545 -57.456  33.589  0.00  0.00     0.021 C 
ATOM     15  C   UNK d   1      15.556 -58.484  33.226  0.00  0.00     0.015 C 
BRANCH  12  16
ATOM     16  S   UNK d   1      14.794 -57.717  37.540  0.00  0.00     0.224 S 
ATOM     17  O   UNK d   1      14.865 -56.253  37.800  0.00  0.00    -0.206 OA
ATOM     18  O   UNK d   1      15.836 -58.454  38.356  0.00  0.00    -0.206 OA
ATOM     19  C   UNK d   1      13.210 -58.324  38.138  0.00  0.00     0.186 C 
ENDBRANCH  12  16
ENDBRANCH   1  10
BRANCH   8  20
ATOM     20  O   UNK d   1      18.137 -55.494  30.498  0.00  0.00    -0.343 OA
ATOM     21  H   UNK d   1      17.257 -55.319  30.037  0.00  0.00     0.219 HD
ENDBRANCH   8  20
BRANCH   4  22
ATOM     22  C   UNK d   1      19.949 -54.268  36.106  0.00  0.00     0.195 C 
BRANCH  22  23
ATOM     23  C   UNK d   1      18.908 -53.562  36.892  0.00  0.00    -0.017 A 
ATOM     24  C   UNK d   1      18.988 -52.197  37.007  0.00  0.00     0.042 A 
ATOM     25  C   UNK d   1      18.053 -51.457  37.726  0.00  0.00     0.024 A 
ATOM     26 Cl   UNK d   1      20.296 -51.323  36.238  0.00  0.00    -0.084 Cl
ATOM     27  C   UNK d   1      17.003 -52.096  38.351  0.00  0.00     0.002 A 
ATOM     28  C   UNK d   1      16.916 -53.465  38.239  0.00  0.00     0.001 A 
ATOM     29  C   UNK d   1      17.858 -54.196  37.517  0.00  0.00     0.010 A 
ENDBRANCH  22  23
ENDBRANCH   4  22
TORSDOF 5
ENDMDL
