/Users/jonathanwahrer/Desktop/Msc/3_Semester/Drug_Design_Praktikum/waehrer_HTS_screening/HTS_experiment/out/docking_results/vina_output/6s1j/2195_docked.pdbqt
 OpenBabel03222222393D

 29 32  0  0  1  0  0  0  0  0999 V2000
   17.5230  -57.1320   33.6880 C   0  0  0  0  0  0  0  0  0  0  0  0
   18.2120  -56.3550   34.5210 N   0  0  0  0  0  0  0  0  0  0  0  0
   18.8950  -55.2800   34.0890 C   0  0  0  0  0  0  0  0  0  0  0  0
   19.6610  -54.3410   34.7080 N   0  0  0  0  0  0  0  0  0  0  0  0
   20.0780  -53.5220   33.7650 N   0  0  0  0  0  0  0  0  0  0  0  0
   19.6250  -53.8800   32.5790 N   0  0  0  0  0  0  0  0  0  0  0  0
   18.8780  -54.9790   32.7340 C   0  0  0  0  0  0  0  0  0  0  0  0
   18.1660  -55.7780   31.8560 C   0  0  0  0  0  0  0  0  0  0  0  0
   17.5200  -56.8250   32.3870 N   0  0  0  0  0  0  0  0  0  0  0  0
   16.7500  -58.3240   34.1310 C   0  0  1  0  0  3  0  0  0  0  0  0
   16.3500  -58.3200   35.5400 C   0  0  0  0  0  2  0  0  0  0  0  0
   15.0220  -58.1200   35.9090 N   0  0  0  0  0  0  0  0  0  0  0  0
   14.0730  -57.6810   34.9960 C   0  0  0  0  0  2  0  0  0  0  0  0
   14.5450  -57.4560   33.5890 C   0  0  0  0  0  2  0  0  0  0  0  0
   15.5560  -58.4840   33.2260 C   0  0  0  0  0  2  0  0  0  0  0  0
   14.7940  -57.7170   37.5400 S   0  0  0  0  0  0  0  0  0  0  0  0
   14.8650  -56.2530   37.8000 O   0  0  0  0  0  0  0  0  0  0  0  0
   15.8360  -58.4540   38.3560 O   0  0  0  0  0  0  0  0  0  0  0  0
   13.2100  -58.3240   38.1380 C   0  0  0  0  0  1  0  0  0  0  0  0
   18.1370  -55.4940   30.4980 O   0  0  0  0  0  0  0  0  0  0  0  0
   17.2570  -55.3190   30.0370 H   0  0  0  0  0  0  0  0  0  0  0  0
   19.9490  -54.2680   36.1060 C   0  0  0  0  0  2  0  0  0  0  0  0
   18.9080  -53.5620   36.8920 C   0  0  0  0  0  0  0  0  0  0  0  0
   18.9880  -52.1970   37.0070 C   0  0  0  0  0  0  0  0  0  0  0  0
   18.0530  -51.4570   37.7260 C   0  0  0  0  0  3  0  0  0  0  0  0
   20.2960  -51.3230   36.2380 Cl  0  0  0  0  0  0  0  0  0  0  0  0
   17.0030  -52.0960   38.3510 C   0  0  0  0  0  3  0  0  0  0  0  0
   16.9160  -53.4650   38.2390 C   0  0  0  0  0  3  0  0  0  0  0  0
   17.8580  -54.1960   37.5170 C   0  0  0  0  0  3  0  0  0  0  0  0
  1  2  2  0  0  0  0
  3  2  1  0  0  0  0
  3  4  1  0  0  0  0
  4 22  1  0  0  0  0
  5  4  1  0  0  0  0
  6  7  1  0  0  0  0
  6  5  2  0  0  0  0
  7  3  2  0  0  0  0
  8  9  2  0  0  0  0
  8  7  1  0  0  0  0
  9  1  1  0  0  0  0
 10  1  1  6  0  0  0
 10 11  1  0  0  0  0
 11 12  1  0  0  0  0
 12 16  1  0  0  0  0
 13 12  1  0  0  0  0
 14 13  1  0  0  0  0
 15 14  1  0  0  0  0
 15 10  1  0  0  0  0
 16 17  2  0  0  0  0
 16 19  1  0  0  0  0
 16 18  2  0  0  0  0
 20  8  1  0  0  0  0
 21 20  1  0  0  0  0
 22 23  1  0  0  0  0
 23 24  2  0  0  0  0
 23 29  1  0  0  0  0
 24 25  1  0  0  0  0
 25 27  2  0  0  0  0
 26 24  1  0  0  0  0
 28 27  1  0  0  0  0
 29 28  2  0  0  0  0
M  END
>  <Pose>
1

>  <Score>
-9.976

$$$$
