MODEL 1
REMARK VINA RESULT:    -9.005      0.000      0.000
REMARK INTER + INTRA:         -10.581
REMARK INTER:                 -11.637
REMARK INTRA:                   1.055
REMARK UNBOUND:                 1.055
REMARK  5 active torsions:
REMARK  status: ('A' for Active; 'I' for Inactive)
REMARK    1  A    between atoms: S_1  and  N_4 
REMARK    2  A    between atoms: S_1  and  C_22 
REMARK    3  A    between atoms: C_6  and  C_10 
REMARK       I    between atoms: C_10  and  N_12 
REMARK    4  A    between atoms: N_15  and  C_18 
REMARK    5  A    between atoms: C_18  and  C_19 
ROOT
ATOM      1  N   UNK d   1      18.152 -57.704  33.524  0.00  0.00    -0.202 NA
ATOM      2  C   UNK d   1      18.770 -56.523  34.160  0.00  0.00     0.149 C 
ATOM      3  C   UNK d   1      18.458 -55.350  33.307  0.00  0.00     0.227 C 
ATOM      4  O   UNK d   1      18.649 -55.443  31.978  0.00  0.00    -0.374 OA
ATOM      5  C   UNK d   1      18.784 -56.644  31.396  0.00  0.00     0.184 C 
ATOM      6  C   UNK d   1      18.829 -57.838  32.286  0.00  0.00     0.134 C 
ENDROOT
BRANCH   3   7
ATOM      7  C   UNK d   1      19.254 -54.202  33.833  0.00  0.00     0.250 C 
ATOM      8  O   UNK d   1      19.905 -53.522  32.995  0.00  0.00    -0.270 OA
ATOM      9  N   UNK d   1      19.329 -53.830  35.188  0.00  0.00    -0.347 N 
ATOM     10  C   UNK d   1      18.638 -54.516  36.263  0.00  0.00     0.156 C 
ATOM     11  C   UNK d   1      20.137 -52.682  35.628  0.00  0.00     0.156 C 
ATOM     12  C   UNK d   1      19.082 -53.876  37.563  0.00  0.00     0.292 C 
ATOM     13  N   UNK d   1      18.745 -52.467  37.637  0.00  0.00     0.091 N 
ATOM     14  C   UNK d   1      19.166 -51.813  36.439  0.00  0.00     0.292 C 
BRANCH  13  15
ATOM     15  C   UNK d   1      17.354 -52.354  37.937  0.00  0.00     0.277 C 
BRANCH  15  16
ATOM     16  C   UNK d   1      16.895 -53.257  39.048  0.00  0.00     0.014 A 
ATOM     17  C   UNK d   1      15.765 -54.197  38.629  0.00  0.00     0.007 A 
ATOM     18  C   UNK d   1      15.574 -53.137  39.669  0.00  0.00     0.007 A 
ENDBRANCH  15  16
ENDBRANCH  13  15
ENDBRANCH   3   7
BRANCH   1  19
ATOM     19  S   UNK d   1      16.472 -57.608  33.542  0.00  0.00     0.245 S 
ATOM     20  O   UNK d   1      16.093 -56.154  33.229  0.00  0.00    -0.206 OA
ATOM     21  O   UNK d   1      15.811 -58.402  32.441  0.00  0.00    -0.206 OA
BRANCH  19  22
ATOM     22  C   UNK d   1      15.765 -57.950  35.088  0.00  0.00     0.096 A 
ATOM     23  C   UNK d   1      14.406 -57.877  35.300  0.00  0.00     0.056 A 
ATOM     24  C   UNK d   1      13.840 -58.091  36.542  0.00  0.00     0.025 A 
ATOM     25 Cl   UNK d   1      13.295 -57.584  33.948  0.00  0.00    -0.083 Cl
ATOM     26  C   UNK d   1      14.647 -58.391  37.611  0.00  0.00     0.002 A 
ATOM     27  C   UNK d   1      16.018 -58.471  37.417  0.00  0.00     0.002 A 
ATOM     28  C   UNK d   1      16.572 -58.257  36.186  0.00  0.00     0.026 A 
ENDBRANCH  19  22
ENDBRANCH   1  19
TORSDOF 5
ENDMDL
