MODEL 1
REMARK VINA RESULT:   -10.475      0.000      0.000
REMARK INTER + INTRA:         -13.585
REMARK INTER:                 -14.455
REMARK INTRA:                   0.870
REMARK UNBOUND:                 0.870
REMARK  7 active torsions:
REMARK  status: ('A' for Active; 'I' for Inactive)
REMARK    1  A    between atoms: C_4  and  C_10 
REMARK    2  A    between atoms: C_5  and  O_8 
REMARK    3  A    between atoms: C_18  and  C_19 
REMARK    4  A    between atoms: C_19  and  N_20 
REMARK    5  A    between atoms: N_23  and  C_26 
REMARK    6  A    between atoms: C_26  and  C_27 
REMARK    7  A    between atoms: C_27  and  O_28 
ROOT
ATOM      1  C   UNK d   1      19.604 -53.119  35.759  0.00  0.00     0.055 C 
ATOM      2  C   UNK d   1      19.375 -53.851  34.662  0.00  0.00     0.128 A 
ATOM      3  O   UNK d   1      18.225 -54.605  34.455  0.00  0.00    -0.305 OA
ATOM      4  C   UNK d   1      18.308 -55.213  33.195  0.00  0.00     0.101 A 
ATOM      5  C   UNK d   1      19.464 -54.908  32.545  0.00  0.00     0.051 A 
ATOM      6  C   UNK d   1      19.738 -55.382  31.283  0.00  0.00     0.021 A 
ATOM      7  C   UNK d   1      18.816 -56.199  30.637  0.00  0.00     0.041 A 
ATOM      8  C   UNK d   1      17.634 -56.510  31.310  0.00  0.00     0.118 A 
ATOM      9  C   UNK d   1      17.370 -56.042  32.556  0.00  0.00     0.039 A 
ATOM     10  O   UNK d   1      16.764 -57.334  30.595  0.00  0.00    -0.191 OA
ATOM     11  C   UNK d   1      20.202 -54.012  33.484  0.00  0.00     0.218 A 
ATOM     12  O   UNK d   1      21.315 -53.505  33.298  0.00  0.00    -0.284 OA
ENDROOT
BRANCH   9  13
ATOM     13  C   UNK d   1      16.237 -56.481  33.399  0.00  0.00     0.279 C 
BRANCH  13  14
ATOM     14  N   UNK d   1      16.359 -57.779  33.874  0.00  0.00    -0.064 N 
ATOM     15  C   UNK d   1      16.760 -57.816  35.316  0.00  0.00     0.254 C 
ATOM     16  C   UNK d   1      15.760 -58.812  35.956  0.00  0.00     0.144 C 
ATOM     17  N   UNK d   1      15.118 -59.564  34.924  0.00  0.00    -0.407 N 
ATOM     18  C   UNK d   1      15.971 -60.107  33.943  0.00  0.00     0.144 C 
ATOM     19  C   UNK d   1      16.821 -58.940  33.274  0.00  0.00     0.254 C 
ATOM     20  H   UNK d   1      15.243 -57.982  34.042  0.00  0.00     0.280 HD
BRANCH  17  21
ATOM     21  C   UNK d   1      13.747 -59.694  34.941  0.00  0.00     0.143 C 
BRANCH  21  22
ATOM     22  C   UNK d   1      12.869 -58.535  34.592  0.00  0.00     0.183 C 
BRANCH  22  23
ATOM     23  O   UNK d   1      13.173 -58.040  33.314  0.00  0.00    -0.399 OA
ATOM     24  H   UNK d   1      14.129 -57.706  33.315  0.00  0.00     0.209 HD
ENDBRANCH  22  23
ENDBRANCH  21  22
ENDBRANCH  17  21
ENDBRANCH  13  14
ENDBRANCH   9  13
BRANCH   1  25
ATOM     25  C   UNK d   1      18.526 -53.148  36.764  0.00  0.00     0.001 A 
ATOM     26  C   UNK d   1      17.887 -54.310  37.015  0.00  0.00     0.033 A 
ATOM     27  C   UNK d   1      16.800 -54.303  37.905  0.00  0.00     0.011 A 
ATOM     28 Br   UNK d   1      15.879 -55.928  38.281  0.00  0.00    -0.051 Br
ATOM     29  C   UNK d   1      16.374 -53.151  38.518  0.00  0.00     0.022 A 
ATOM     30  C   UNK d   1      17.048 -51.981  38.234  0.00  0.00     0.039 A 
ATOM     31  C   UNK d   1      18.138 -51.965  37.351  0.00  0.00     0.078 A 
BRANCH  31  32
ATOM     32  O   UNK d   1      18.816 -50.789  37.063  0.00  0.00    -0.355 OA
ATOM     33  C   UNK d   1      19.969 -50.668  36.305  0.00  0.00     0.210 C 
ENDBRANCH  31  32
ENDBRANCH   1  25
TORSDOF 7
ENDMDL
