/Users/jonathanwahrer/Desktop/Msc/3_Semester/Drug_Design_Praktikum/waehrer_HTS_screening/HTS_experiment/out/docking_results/vina_output/6s1j/2210_docked.pdbqt
 OpenBabel03222222403D

 33 36  0  0  0  0  0  0  0  0999 V2000
   19.6040  -53.1190   35.7590 C   0  0  0  0  0  3  0  0  0  0  0  0
   19.3750  -53.8510   34.6620 C   0  0  0  0  0  0  0  0  0  0  0  0
   18.2250  -54.6050   34.4550 O   0  0  0  0  0  0  0  0  0  0  0  0
   18.3080  -55.2130   33.1950 C   0  0  0  0  0  0  0  0  0  0  0  0
   19.4640  -54.9080   32.5450 C   0  0  0  0  0  0  0  0  0  0  0  0
   19.7380  -55.3820   31.2830 C   0  0  0  0  0  3  0  0  0  0  0  0
   18.8160  -56.1990   30.6370 C   0  0  0  0  0  3  0  0  0  0  0  0
   17.6340  -56.5100   31.3100 C   0  0  0  0  0  0  0  0  0  0  0  0
   17.3700  -56.0420   32.5560 C   0  0  0  0  0  0  0  0  0  0  0  0
   16.7640  -57.3340   30.5950 O   0  0  0  0  0  1  0  0  0  0  0  0
   20.2020  -54.0120   33.4840 C   0  0  0  0  0  0  0  0  0  0  0  0
   21.3150  -53.5050   33.2980 O   0  0  0  0  0  0  0  0  0  0  0  0
   16.2370  -56.4810   33.3990 C   0  0  0  0  0  2  0  0  0  0  0  0
   16.3590  -57.7790   33.8740 N   0  0  0  0  0  4  0  0  0  0  0  0
   16.7600  -57.8160   35.3160 C   0  0  0  0  0  2  0  0  0  0  0  0
   15.7600  -58.8120   35.9560 C   0  0  0  0  0  2  0  0  0  0  0  0
   15.1180  -59.5640   34.9240 N   0  0  0  0  0  0  0  0  0  0  0  0
   15.9710  -60.1070   33.9430 C   0  0  0  0  0  2  0  0  0  0  0  0
   16.8210  -58.9400   33.2740 C   0  0  0  0  0  2  0  0  0  0  0  0
   15.2430  -57.9820   34.0420 H   0  0  0  0  0  0  0  0  0  0  0  0
   13.7470  -59.6940   34.9410 C   0  0  0  0  0  2  0  0  0  0  0  0
   12.8690  -58.5350   34.5920 C   0  0  0  0  0  2  0  0  0  0  0  0
   13.1730  -58.0400   33.3140 O   0  0  0  0  0  0  0  0  0  0  0  0
   14.1290  -57.7060   33.3150 H   0  0  0  0  0  0  0  0  0  0  0  0
   18.5260  -53.1480   36.7640 C   0  0  0  0  0  0  0  0  0  0  0  0
   17.8870  -54.3100   37.0150 C   0  0  0  0  0  3  0  0  0  0  0  0
   16.8000  -54.3030   37.9050 C   0  0  0  0  0  0  0  0  0  0  0  0
   15.8790  -55.9280   38.2810 Br  0  0  0  0  0  0  0  0  0  0  0  0
   16.3740  -53.1510   38.5180 C   0  0  0  0  0  3  0  0  0  0  0  0
   17.0480  -51.9810   38.2340 C   0  0  0  0  0  3  0  0  0  0  0  0
   18.1380  -51.9650   37.3510 C   0  0  0  0  0  0  0  0  0  0  0  0
   18.8160  -50.7890   37.0630 O   0  0  0  0  0  0  0  0  0  0  0  0
   19.9690  -50.6680   36.3050 C   0  0  0  0  0  1  0  0  0  0  0  0
  1 25  1  0  0  0  0
  2  1  2  0  0  0  0
  3  2  1  0  0  0  0
  4  3  1  0  0  0  0
  5  4  2  0  0  0  0
  5 11  1  0  0  0  0
  6  5  1  0  0  0  0
  7  6  2  0  0  0  0
  7  8  1  0  0  0  0
  8  9  2  0  0  0  0
  9  4  1  0  0  0  0
  9 13  1  0  0  0  0
 10  8  1  0  0  0  0
 11  2  1  0  0  0  0
 12 11  2  0  0  0  0
 13 14  1  0  0  0  0
 14 20  1  0  0  0  0
 14 15  1  0  0  0  0
 15 16  1  0  0  0  0
 17 21  1  0  0  0  0
 17 16  1  0  0  0  0
 18 17  1  0  0  0  0
 19 14  1  0  0  0  0
 19 18  1  0  0  0  0
 22 21  1  0  0  0  0
 23 24  1  0  0  0  0
 23 22  1  0  0  0  0
 25 26  2  0  0  0  0
 25 31  1  0  0  0  0
 26 27  1  0  0  0  0
 27 28  1  0  0  0  0
 27 29  2  0  0  0  0
 30 29  1  0  0  0  0
 31 30  2  0  0  0  0
 32 31  1  0  0  0  0
 33 32  1  0  0  0  0
M  END
>  <Pose>
1

>  <Score>
-10.475

$$$$
