MODEL 1
REMARK VINA RESULT:    -7.778      0.000      0.000
REMARK INTER + INTRA:          -8.085
REMARK INTER:                  -8.232
REMARK INTRA:                   0.148
REMARK UNBOUND:                 0.148
REMARK  1 active torsions:
REMARK  status: ('A' for Active; 'I' for Inactive)
REMARK    1  A    between atoms: C_9  and  C_21 
ROOT
ATOM      1 Cl   UNK d   1      12.980 -58.993  34.821  0.00  0.00    -0.081 Cl
ATOM      2  C   UNK d   1      13.017 -58.823  36.563  0.00  0.00     0.070 A 
ATOM      3  C   UNK d   1      12.381 -59.804  37.337  0.00  0.00     0.107 A 
ATOM      4  C   UNK d   1      12.392 -59.698  38.703  0.00  0.00    -0.007 A 
ATOM      5  C   UNK d   1      13.052 -58.594  39.253  0.00  0.00     0.035 A 
ATOM      6  C   UNK d   1      13.672 -57.636  38.483  0.00  0.00     0.036 A 
ATOM      7  C   UNK d   1      13.664 -57.739  37.104  0.00  0.00     0.050 A 
ATOM      8 Cl   UNK d   1      14.496 -56.256  39.198  0.00  0.00    -0.084 Cl
ATOM      9  C   UNK d   1      11.752 -60.680  39.592  0.00  0.00     0.107 A 
ATOM     10  C   UNK d   1      11.118 -61.760  38.819  0.00  0.00     0.075 A 
ATOM     11  C   UNK d   1      11.118 -61.847  37.462  0.00  0.00     0.167 A 
ATOM     12  N   UNK d   1      10.513 -62.872  36.793  0.00  0.00    -0.283 N 
ATOM     13  C   UNK d   1       9.908 -63.808  37.520  0.00  0.00     0.332 A 
ATOM     14  O   UNK d   1       9.330 -64.782  36.941  0.00  0.00    -0.246 OA
ATOM     15  N   UNK d   1       9.883 -63.762  38.867  0.00  0.00    -0.270 N 
ATOM     16  C   UNK d   1      10.473 -62.763  39.533  0.00  0.00     0.262 A 
ATOM     17  O   UNK d   1      10.451 -62.719  40.790  0.00  0.00    -0.267 OA
ATOM     18  C   UNK d   1       9.205 -64.818  39.605  0.00  0.00     0.164 C 
ATOM     19  C   UNK d   1      10.532 -62.933  35.348  0.00  0.00     0.163 C 
ATOM     20  O   UNK d   1      11.746 -60.874  36.734  0.00  0.00    -0.290 OA
ENDROOT
BRANCH   9  21
ATOM     21  C   UNK d   1      10.775 -60.020  40.521  0.00  0.00     0.078 A 
ATOM     22  C   UNK d   1       9.607 -59.457  40.067  0.00  0.00     0.197 A 
ATOM     23  N   UNK d   1       8.719 -58.852  40.871  0.00  0.00    -0.281 N 
ATOM     24  O   UNK d   1       9.329 -59.516  38.717  0.00  0.00    -0.171 OA
ATOM     25  C   UNK d   1       8.992 -58.796  42.189  0.00  0.00     0.332 A 
ATOM     26  C   UNK d   1       7.492 -58.270  40.362  0.00  0.00     0.163 C 
ATOM     27  O   UNK d   1       8.148 -58.221  42.938  0.00  0.00    -0.246 OA
ATOM     28  N   UNK d   1      10.124 -59.333  42.677  0.00  0.00    -0.270 N 
ATOM     29  C   UNK d   1      11.022 -59.943  41.891  0.00  0.00     0.262 A 
ATOM     30  C   UNK d   1      10.371 -59.245  44.097  0.00  0.00     0.164 C 
ATOM     31  O   UNK d   1      12.085 -60.454  42.317  0.00  0.00    -0.267 OA
ENDBRANCH   9  21
TORSDOF 1
ENDMDL
