/Users/jonathanwahrer/Desktop/Msc/3_Semester/Drug_Design_Praktikum/waehrer_HTS_screening/HTS_experiment/out/docking_results/vina_output/6s1j/2213_docked.pdbqt
 OpenBabel03222222403D

 31 34  0  0  1  0  0  0  0  0999 V2000
   12.9800  -58.9930   34.8210 Cl  0  0  0  0  0  0  0  0  0  0  0  0
   13.0170  -58.8230   36.5630 C   0  0  0  0  0  0  0  0  0  0  0  0
   12.3810  -59.8040   37.3370 C   0  0  2  0  0  3  0  0  0  0  0  0
   12.3920  -59.6980   38.7030 C   0  0  0  0  0  0  0  0  0  0  0  0
   13.0520  -58.5940   39.2530 C   0  0  0  0  0  3  0  0  0  0  0  0
   13.6720  -57.6360   38.4830 C   0  0  0  0  0  0  0  0  0  0  0  0
   13.6640  -57.7390   37.1040 C   0  0  0  0  0  3  0  0  0  0  0  0
   14.4960  -56.2560   39.1980 Cl  0  0  0  0  0  0  0  0  0  0  0  0
   11.7520  -60.6800   39.5920 C   0  0  0  0  0  0  0  0  0  0  0  0
   11.1180  -61.7600   38.8190 C   0  0  0  0  0  0  0  0  0  0  0  0
   11.1180  -61.8470   37.4620 C   0  0  0  0  0  0  0  0  0  0  0  0
   10.5130  -62.8720   36.7930 N   0  0  0  0  0  0  0  0  0  0  0  0
    9.9080  -63.8080   37.5200 C   0  0  0  0  0  0  0  0  0  0  0  0
    9.3300  -64.7820   36.9410 O   0  0  0  0  0  0  0  0  0  0  0  0
    9.8830  -63.7620   38.8670 N   0  0  0  0  0  0  0  0  0  0  0  0
   10.4730  -62.7630   39.5330 C   0  0  0  0  0  0  0  0  0  0  0  0
   10.4510  -62.7190   40.7900 O   0  0  0  0  0  0  0  0  0  0  0  0
    9.2050  -64.8180   39.6050 C   0  0  0  0  0  1  0  0  0  0  0  0
   10.5320  -62.9330   35.3480 C   0  0  0  0  0  1  0  0  0  0  0  0
   11.7460  -60.8740   36.7340 O   0  0  0  0  0  0  0  0  0  0  0  0
   10.7750  -60.0200   40.5210 C   0  0  0  0  0  3  0  0  0  0  0  0
    9.6070  -59.4570   40.0670 C   0  0  0  0  0  0  0  0  0  0  0  0
    8.7190  -58.8520   40.8710 N   0  0  0  0  0  0  0  0  0  0  0  0
    9.3290  -59.5160   38.7170 O   0  0  0  0  0  0  0  0  0  0  0  0
    8.9920  -58.7960   42.1890 C   0  0  0  0  0  0  0  0  0  0  0  0
    7.4920  -58.2700   40.3620 C   0  0  0  0  0  1  0  0  0  0  0  0
    8.1480  -58.2210   42.9380 O   0  0  0  0  0  0  0  0  0  0  0  0
   10.1240  -59.3330   42.6770 N   0  0  0  0  0  0  0  0  0  0  0  0
   11.0220  -59.9430   41.8910 C   0  0  0  0  0  0  0  0  0  0  0  0
   10.3710  -59.2450   44.0970 C   0  0  0  0  0  1  0  0  0  0  0  0
   12.0850  -60.4540   42.3170 O   0  0  0  0  0  0  0  0  0  0  0  0
  1  2  1  0  0  0  0
  2  7  2  0  0  0  0
  3  2  1  1  0  0  0
  3  4  1  0  0  0  0
  4  5  1  0  0  0  0
  4  9  2  0  0  0  0
  6  8  1  0  0  0  0
  6  5  2  0  0  0  0
  7  6  1  0  0  0  0
  9 21  1  0  0  0  0
 10 16  1  0  0  0  0
 10  9  1  0  0  0  0
 11 10  2  0  0  0  0
 12 11  1  0  0  0  0
 12 13  1  0  0  0  0
 13 15  1  0  0  0  0
 14 13  2  0  0  0  0
 15 16  1  0  0  0  0
 15 18  1  0  0  0  0
 16 17  2  0  0  0  0
 19 12  1  0  0  0  0
 20  3  1  0  0  0  0
 20 11  1  0  0  0  0
 21 29  1  0  0  0  0
 22 21  1  0  0  0  0
 22 23  1  0  0  0  0
 23 25  1  0  0  0  0
 24 22  2  0  0  0  0
 25 28  1  0  0  0  0
 25 27  2  0  0  0  0
 26 23  1  0  0  0  0
 28 30  1  0  0  0  0
 29 31  2  0  0  0  0
 29 28  1  0  0  0  0
M  END
>  <Pose>
1

>  <Score>
-7.778

$$$$
