/Users/jonathanwahrer/Desktop/Msc/3_Semester/Drug_Design_Praktikum/waehrer_HTS_screening/HTS_experiment/out/docking_results/vina_output/6s1j/2214_docked.pdbqt
 OpenBabel03222222403D

 34 38  0  0  1  0  0  0  0  0999 V2000
   16.2140  -52.1580   38.8100 Cl  0  0  0  0  0  0  0  0  0  0  0  0
   17.2610  -53.0440   37.7210 C   0  0  0  0  0  0  0  0  0  0  0  0
   16.8050  -54.0730   36.9440 C   0  0  0  0  0  3  0  0  0  0  0  0
   17.6760  -54.7530   36.0890 C   0  0  0  0  0  0  0  0  0  0  0  0
   18.9800  -54.3590   36.0580 C   0  0  0  0  0  0  0  0  0  0  0  0
   19.4510  -53.3030   36.8550 C   0  0  0  0  0  3  0  0  0  0  0  0
   18.6000  -52.6380   37.6910 C   0  0  0  0  0  3  0  0  0  0  0  0
   19.6830  -55.1800   35.1300 N   0  0  0  0  0  0  0  0  0  0  0  0
   18.7970  -56.1140   34.5630 C   0  0  0  0  0  0  0  0  0  0  0  0
   19.1360  -56.9840   33.7010 O   0  0  0  0  0  0  0  0  0  0  0  0
   17.4760  -55.8730   35.1530 C   0  0  1  0  0  0  0  0  0  0  0  0
   17.0080  -56.9930   35.9400 N   0  0  0  0  0  0  0  0  0  0  0  0
   15.8350  -57.5520   35.3460 C   0  0  2  0  0  3  0  0  0  0  0  0
   15.7040  -56.8930   34.0300 C   0  0  1  0  0  3  0  0  0  0  0  0
   16.4200  -55.5740   34.1160 C   0  0  2  0  0  3  0  0  0  0  0  0
   16.9810  -55.4220   32.7560 C   0  0  0  0  0  0  0  0  0  0  0  0
   17.3820  -54.3750   32.1890 O   0  0  0  0  0  0  0  0  0  0  0  0
   17.0220  -56.7070   32.0990 N   0  0  0  0  0  0  0  0  0  0  0  0
   16.5340  -57.6600   33.0350 C   0  0  0  0  0  0  0  0  0  0  0  0
   16.7720  -58.8900   33.0000 O   0  0  0  0  0  0  0  0  0  0  0  0
   20.7170  -55.1150   34.8870 H   0  0  0  0  0  0  0  0  0  0  0  0
   16.7740  -56.7320   36.9230 H   0  0  0  0  0  0  0  0  0  0  0  0
   14.6210  -57.4340   36.2280 C   0  0  0  0  0  2  0  0  0  0  0  0
   14.7960  -57.9290   37.5810 C   0  0  0  0  0  0  0  0  0  0  0  0
   15.4160  -57.2460   38.4230 O   0  0  0  0  0  0  0  0  0  0  0  0
   14.2750  -59.1820   37.9710 N   0  0  0  0  0  0  0  0  0  0  0  0
   13.6680  -59.2420   38.8220 H   0  0  0  0  0  0  0  0  0  0  0  0
   14.4520  -60.0710   37.4670 H   0  0  0  0  0  0  0  0  0  0  0  0
   17.4800  -56.9530   30.7480 C   0  0  0  0  0  2  0  0  0  0  0  0
   18.9590  -57.2120   30.6620 C   0  0  1  0  0  3  0  0  0  0  0  0
   19.2080  -58.1790   29.6910 O   0  0  0  0  0  0  0  0  0  0  0  0
   19.4300  -57.5180   28.5050 C   0  0  0  0  0  2  0  0  0  0  0  0
   19.9900  -56.1500   28.8270 C   0  0  0  0  0  2  0  0  0  0  0  0
   19.7790  -56.0180   30.3230 C   0  0  0  0  0  2  0  0  0  0  0  0
  2  1  1  0  0  0  0
  3  2  2  0  0  0  0
  4  3  1  0  0  0  0
  5  4  2  0  0  0  0
  5  6  1  0  0  0  0
  6  7  2  0  0  0  0
  7  2  1  0  0  0  0
  8  5  1  0  0  0  0
  9  8  1  0  0  0  0
 10  9  2  0  0  0  0
 11  9  1  6  0  0  0
 11 12  1  0  0  0  0
 11  4  1  0  0  0  0
 12 22  1  0  0  0  0
 13 12  1  0  0  0  0
 13 23  1  1  0  0  0
 14 19  1  6  0  0  0
 14 15  1  0  0  0  0
 14 13  1  0  0  0  0
 15 16  1  6  0  0  0
 15 11  1  0  0  0  0
 17 16  2  0  0  0  0
 18 16  1  0  0  0  0
 18 19  1  0  0  0  0
 20 19  2  0  0  0  0
 21  8  1  0  0  0  0
 23 24  1  0  0  0  0
 24 26  1  0  0  0  0
 24 25  2  0  0  0  0
 26 27  1  0  0  0  0
 28 26  1  0  0  0  0
 29 18  1  0  0  0  0
 30 29  1  6  0  0  0
 31 30  1  0  0  0  0
 32 33  1  0  0  0  0
 32 31  1  0  0  0  0
 33 34  1  0  0  0  0
 34 30  1  0  0  0  0
M  END
>  <Pose>
1

>  <Score>
-9.137

$$$$
