MODEL 1
REMARK VINA RESULT:    -9.137      0.000      0.000
REMARK INTER + INTRA:         -12.049
REMARK INTER:                 -11.274
REMARK INTRA:                  -0.776
REMARK UNBOUND:                -0.776
REMARK  4 active torsions:
REMARK  status: ('A' for Active; 'I' for Inactive)
REMARK    1  A    between atoms: C_13  and  C_27 
REMARK    2  A    between atoms: N_18  and  C_21 
REMARK    3  A    between atoms: C_21  and  C_22 
REMARK    4  A    between atoms: C_27  and  C_28 
REMARK       I    between atoms: C_28  and  N_30 
ROOT
ATOM      1 Cl   UNK d   1      16.214 -52.158  38.810  0.00  0.00    -0.084 Cl
ATOM      2  C   UNK d   1      17.261 -53.044  37.721  0.00  0.00     0.034 A 
ATOM      3  C   UNK d   1      16.805 -54.073  36.944  0.00  0.00     0.036 A 
ATOM      4  C   UNK d   1      17.676 -54.753  36.089  0.00  0.00     0.019 A 
ATOM      5  C   UNK d   1      18.980 -54.359  36.058  0.00  0.00     0.044 A 
ATOM      6  C   UNK d   1      19.451 -53.303  36.855  0.00  0.00     0.032 A 
ATOM      7  C   UNK d   1      18.600 -52.638  37.691  0.00  0.00     0.026 A 
ATOM      8  N   UNK d   1      19.683 -55.180  35.130  0.00  0.00    -0.324 N 
ATOM      9  C   UNK d   1      18.797 -56.114  34.563  0.00  0.00     0.267 A 
ATOM     10  O   UNK d   1      19.136 -56.984  33.701  0.00  0.00    -0.270 OA
ATOM     11  C   UNK d   1      17.476 -55.873  35.153  0.00  0.00     0.279 A 
ATOM     12  N   UNK d   1      17.008 -56.993  35.940  0.00  0.00     0.114 N 
ATOM     13  C   UNK d   1      15.835 -57.552  35.346  0.00  0.00     0.245 C 
ATOM     14  C   UNK d   1      15.704 -56.893  34.030  0.00  0.00     0.128 C 
ATOM     15  C   UNK d   1      16.420 -55.574  34.116  0.00  0.00     0.147 C 
ATOM     16  C   UNK d   1      16.981 -55.422  32.756  0.00  0.00     0.235 C 
ATOM     17  O   UNK d   1      17.382 -54.375  32.189  0.00  0.00    -0.272 OA
ATOM     18  N   UNK d   1      17.022 -56.707  32.099  0.00  0.00    -0.285 N 
ATOM     19  C   UNK d   1      16.534 -57.660  33.035  0.00  0.00     0.233 C 
ATOM     20  O   UNK d   1      16.772 -58.890  33.000  0.00  0.00    -0.272 OA
ATOM     21  H   UNK d   1      20.717 -55.115  34.887  0.00  0.00     0.169 HD
ATOM     22  H   UNK d   1      16.774 -56.732  36.923  0.00  0.00     0.318 HD
ENDROOT
BRANCH  13  23
ATOM     23  C   UNK d   1      14.621 -57.434  36.228  0.00  0.00     0.139 C 
BRANCH  23  24
ATOM     24  C   UNK d   1      14.796 -57.929  37.581  0.00  0.00     0.217 C 
ATOM     25  O   UNK d   1      15.416 -57.246  38.423  0.00  0.00    -0.274 OA
ATOM     26  N   UNK d   1      14.275 -59.182  37.971  0.00  0.00    -0.370 N 
ATOM     27  H   UNK d   1      13.668 -59.242  38.822  0.00  0.00     0.159 HD
ATOM     28  H   UNK d   1      14.452 -60.071  37.467  0.00  0.00     0.159 HD
ENDBRANCH  23  24
ENDBRANCH  13  23
BRANCH  18  29
ATOM     29  C   UNK d   1      17.480 -56.953  30.748  0.00  0.00     0.166 C 
BRANCH  29  30
ATOM     30  C   UNK d   1      18.959 -57.212  30.662  0.00  0.00     0.140 C 
ATOM     31  O   UNK d   1      19.208 -58.179  29.691  0.00  0.00    -0.384 OA
ATOM     32  C   UNK d   1      19.430 -57.518  28.505  0.00  0.00     0.168 C 
ATOM     33  C   UNK d   1      19.990 -56.150  28.827  0.00  0.00     0.029 C 
ATOM     34  C   UNK d   1      19.779 -56.018  30.323  0.00  0.00     0.035 C 
ENDBRANCH  29  30
ENDBRANCH  18  29
TORSDOF 4
ENDMDL
