MODEL 1
REMARK VINA RESULT:    -8.860      0.000      0.000
REMARK INTER + INTRA:         -10.483
REMARK INTER:                 -10.414
REMARK INTRA:                  -0.069
REMARK UNBOUND:                -0.069
REMARK  3 active torsions:
REMARK  status: ('A' for Active; 'I' for Inactive)
REMARK    1  A    between atoms: C_5  and  N_8 
REMARK    2  A    between atoms: C_16  and  N_17 
REMARK       I    between atoms: N_20  and  C_23 
REMARK    3  A    between atoms: C_23  and  C_25 
ROOT
ATOM      1  N   UNK d   1      15.904 -55.095  37.771  0.00  0.00    -0.195 N 
ATOM      2  N   UNK d   1      14.852 -54.874  38.539  0.00  0.00    -0.058 NA
ATOM      3  N   UNK d   1      14.068 -55.932  38.609  0.00  0.00    -0.124 NA
ATOM      4  C   UNK d   1      14.593 -56.921  37.866  0.00  0.00     0.174 A 
ATOM      5  C   UNK d   1      15.749 -56.374  37.346  0.00  0.00     0.188 A 
ATOM      6  N   UNK d   1      16.505 -57.153  36.540  0.00  0.00    -0.220 NA
ATOM      7  C   UNK d   1      16.109 -58.413  36.279  0.00  0.00     0.237 A 
ATOM      8  N   UNK d   1      14.972 -58.944  36.792  0.00  0.00    -0.222 NA
ATOM      9  C   UNK d   1      14.183 -58.212  37.600  0.00  0.00     0.162 A 
ENDROOT
BRANCH   9  10
ATOM     10  N   UNK d   1      12.983 -58.754  38.150  0.00  0.00    -0.361 N 
ATOM     11  C   UNK d   1      11.983 -59.208  37.202  0.00  0.00     0.144 C 
ATOM     12  C   UNK d   1      11.074 -60.261  37.831  0.00  0.00     0.144 C 
ATOM     13  N   UNK d   1      10.828 -59.983  39.200  0.00  0.00    -0.360 N 
ATOM     14  C   UNK d   1      12.068 -60.018  40.034  0.00  0.00     0.144 C 
ATOM     15  C   UNK d   1       9.604 -59.693  39.778  0.00  0.00     0.157 C 
ATOM     16  C   UNK d   1      12.860 -58.809  39.573  0.00  0.00     0.144 C 
ATOM     17  O   UNK d   1       9.660 -59.475  41.081  0.00  0.00    -0.177 OA
BRANCH  15  18
ATOM     18  C   UNK d   1       8.257 -59.575  39.240  0.00  0.00     0.063 A 
ATOM     19  C   UNK d   1       7.261 -60.619  39.579  0.00  0.00     0.013 A 
ATOM     20  C   UNK d   1       7.047 -59.169  39.948  0.00  0.00     0.013 A 
ENDBRANCH  15  18
ENDBRANCH   9  10
BRANCH   1  21
ATOM     21  C   UNK d   1      16.956 -54.192  37.465  0.00  0.00     0.062 A 
ATOM     22  C   UNK d   1      18.060 -54.515  36.710  0.00  0.00     0.033 A 
ATOM     23  C   UNK d   1      19.052 -53.597  36.446  0.00  0.00     0.026 A 
ATOM     24  C   UNK d   1      18.955 -52.319  36.938  0.00  0.00     0.034 A 
ATOM     25 Cl   UNK d   1      20.208 -51.166  36.601  0.00  0.00    -0.084 Cl
ATOM     26  C   UNK d   1      17.872 -51.968  37.690  0.00  0.00     0.026 A 
ATOM     27  C   UNK d   1      16.887 -52.904  37.945  0.00  0.00     0.033 A 
ENDBRANCH   1  21
TORSDOF 3
ENDMDL
