MODEL 1
REMARK VINA RESULT:   -10.394      0.000      0.000
REMARK INTER + INTRA:         -11.906
REMARK INTER:                 -12.217
REMARK INTRA:                   0.311
REMARK UNBOUND:                 0.311
REMARK  3 active torsions:
REMARK  status: ('A' for Active; 'I' for Inactive)
REMARK    1  A    between atoms: C_7  and  N_8 
REMARK       I    between atoms: N_8  and  C_9 
REMARK    2  A    between atoms: C_9  and  C_11 
REMARK    3  A    between atoms: N_13  and  C_18 
ROOT
ATOM      1  N   UNK d   1      14.601 -57.844  35.577  0.00  0.00    -0.319 N 
ATOM      2  C   UNK d   1      15.508 -57.805  36.639  0.00  0.00     0.293 C 
ATOM      3  O   UNK d   1      16.241 -58.758  36.939  0.00  0.00    -0.264 OA
ATOM      4  H   UNK d   1      14.009 -56.973  35.397  0.00  0.00     0.169 HD
ENDROOT
BRANCH   2   5
ATOM      5  C   UNK d   1      15.635 -56.581  37.478  0.00  0.00     0.213 C 
ATOM      6  N   UNK d   1      16.481 -55.666  37.118  0.00  0.00    -0.141 NA
ATOM      7  N   UNK d   1      16.662 -54.492  37.846  0.00  0.00    -0.198 N 
ATOM      8  C   UNK d   1      15.900 -54.289  39.015  0.00  0.00     0.262 C 
ATOM      9  O   UNK d   1      16.037 -53.161  39.600  0.00  0.00    -0.269 OA
ATOM     10  C   UNK d   1      14.984 -55.312  39.557  0.00  0.00     0.226 C 
ATOM     11  N   UNK d   1      14.859 -56.399  38.650  0.00  0.00    -0.360 N 
ATOM     12  H   UNK d   1      14.137 -57.139  38.850  0.00  0.00     0.161 HD
BRANCH   7  13
ATOM     13  C   UNK d   1      17.620 -53.495  37.416  0.00  0.00     0.062 A 
ATOM     14  C   UNK d   1      18.732 -53.834  36.684  0.00  0.00     0.032 A 
ATOM     15  C   UNK d   1      19.640 -52.851  36.276  0.00  0.00     0.009 A 
ATOM     16  C   UNK d   1      19.441 -51.525  36.601  0.00  0.00    -0.062 A 
ATOM     17  C   UNK d   1      18.323 -51.201  37.335  0.00  0.00     0.009 A 
ATOM     18  C   UNK d   1      20.378 -50.438  36.187  0.00  0.00     0.048 C 
ATOM     19  C   UNK d   1      17.442 -52.164  37.728  0.00  0.00     0.032 A 
ENDBRANCH   7  13
ENDBRANCH   2   5
BRANCH   1  20
ATOM     20  C   UNK d   1      14.406 -58.940  34.727  0.00  0.00     0.059 A 
ATOM     21  C   UNK d   1      13.445 -59.886  35.093  0.00  0.00     0.063 A 
ATOM     22 Cl   UNK d   1      12.548 -59.676  36.581  0.00  0.00    -0.082 Cl
ATOM     23  C   UNK d   1      13.180 -60.982  34.322  0.00  0.00     0.058 A 
ATOM     24  C   UNK d   1      13.840 -61.213  33.148  0.00  0.00     0.070 A 
ATOM     25  C   UNK d   1      14.789 -60.308  32.753  0.00  0.00     0.098 A 
ATOM     26  N   UNK d   1      13.574 -62.349  32.316  0.00  0.00    -0.323 N 
ATOM     27  C   UNK d   1      15.058 -59.182  33.550  0.00  0.00     0.070 A 
ATOM     28  O   UNK d   1      15.508 -60.468  31.572  0.00  0.00    -0.340 OA
ATOM     29  C   UNK d   1      15.073 -61.347  30.524  0.00  0.00     0.278 C 
ATOM     30  C   UNK d   1      14.310 -62.491  31.106  0.00  0.00     0.246 C 
ATOM     31  O   UNK d   1      14.332 -63.589  30.503  0.00  0.00    -0.271 OA
ATOM     32  H   UNK d   1      12.861 -63.052  32.591  0.00  0.00     0.169 HD
ENDBRANCH   1  20
TORSDOF 3
ENDMDL
