/Users/jonathanwahrer/Desktop/Msc/3_Semester/Drug_Design_Praktikum/waehrer_HTS_screening/HTS_experiment/out/docking_results/vina_output/6s1j/2267_docked.pdbqt
 OpenBabel03222222413D

 27 30  0  0  1  0  0  0  0  0999 V2000
   15.3860  -58.2590   35.8110 N   0  0  0  0  0  0  0  0  0  0  0  0
   14.4050  -58.4940   36.7730 C   0  0  0  0  0  2  0  0  0  0  0  0
   14.6570  -57.7890   38.0850 C   0  0  0  0  0  2  0  0  0  0  0  0
   15.4470  -56.5430   37.9450 C   0  0  2  0  0  3  0  0  0  0  0  0
   16.4440  -56.5400   36.9990 C   0  0  0  0  0  0  0  0  0  0  0  0
   17.2090  -55.4600   36.8030 N   0  0  0  0  0  0  0  0  0  0  0  0
   16.9930  -54.3360   37.5620 C   0  0  2  0  0  3  0  0  0  0  0  0
   16.0100  -54.3570   38.4850 N   0  0  0  0  0  0  0  0  0  0  0  0
   16.0050  -53.1600   39.0780 N   0  0  0  0  0  0  0  0  0  0  0  0
   16.9510  -52.3860   38.5600 C   0  0  0  0  0  3  0  0  0  0  0  0
   17.6170  -53.1080   37.5720 C   0  0  0  0  0  3  0  0  0  0  0  0
   15.2150  -55.4090   38.7230 C   0  0  0  0  0  0  0  0  0  0  0  0
   14.3010  -55.4270   39.5820 O   0  0  0  0  0  0  0  0  0  0  0  0
   16.6520  -57.7580   36.1980 C   0  0  0  0  0  2  0  0  0  0  0  0
   15.3560  -52.8620   39.8420 H   0  0  0  0  0  0  0  0  0  0  0  0
   14.9460  -58.1230   34.2080 S   0  0  0  0  0  0  0  0  0  0  0  0
   14.6570  -59.4970   33.6470 O   0  0  0  0  0  0  0  0  0  0  0  0
   13.6880  -57.3200   34.0510 O   0  0  0  0  0  0  0  0  0  0  0  0
   16.1660  -57.4080   33.1780 C   0  0  0  0  0  0  0  0  0  0  0  0
   16.9400  -58.1510   32.3040 C   0  0  0  0  0  3  0  0  0  0  0  0
   17.8940  -57.5310   31.5110 C   0  0  0  0  0  0  0  0  0  0  0  0
   18.1140  -56.1740   31.5510 C   0  0  0  0  0  0  0  0  0  0  0  0
   18.8650  -58.4880   30.4090 Cl  0  0  0  0  0  0  0  0  0  0  0  0
   17.3440  -55.4330   32.4210 C   0  0  0  0  0  3  0  0  0  0  0  0
   16.3960  -56.0490   33.2090 C   0  0  0  0  0  3  0  0  0  0  0  0
   19.0850  -55.5670   30.7380 O   0  0  0  0  0  0  0  0  0  0  0  0
   20.2640  -55.0490   31.3240 C   0  0  0  0  0  1  0  0  0  0  0  0
  1 14  1  0  0  0  0
  1  2  1  0  0  0  0
  2  3  1  0  0  0  0
  4  3  1  1  0  0  0
  4 12  1  0  0  0  0
  5  4  1  0  0  0  0
  6  5  2  0  0  0  0
  6  7  1  0  0  0  0
  7 11  1  6  0  0  0
  7  8  1  0  0  0  0
  8 12  1  0  0  0  0
  8  9  1  0  0  0  0
  9 15  1  0  0  0  0
 10  9  1  0  0  0  0
 11 10  2  0  0  0  0
 12 13  2  0  0  0  0
 14  5  1  0  0  0  0
 16  1  1  0  0  0  0
 17 16  2  0  0  0  0
 18 16  2  0  0  0  0
 19 25  1  0  0  0  0
 19 16  1  0  0  0  0
 20 19  2  0  0  0  0
 21 22  2  0  0  0  0
 21 20  1  0  0  0  0
 22 24  1  0  0  0  0
 23 21  1  0  0  0  0
 24 25  2  0  0  0  0
 26 27  1  0  0  0  0
 26 22  1  0  0  0  0
M  END
>  <Pose>
1

>  <Score>
-9.183

$$$$
