MODEL 1
REMARK VINA RESULT:    -7.321      0.000      0.000
REMARK INTER + INTRA:          -9.222
REMARK INTER:                  -8.820
REMARK INTRA:                  -0.403
REMARK UNBOUND:                -0.403
REMARK  4 active torsions:
REMARK  status: ('A' for Active; 'I' for Inactive)
REMARK    1  A    between atoms: C_5  and  C_8 
REMARK    2  A    between atoms: C_8  and  O_25 
REMARK    3  A    between atoms: N_9  and  C_17 
REMARK    4  A    between atoms: C_20  and  O_23 
ROOT
ATOM      1  C   UNK d   1      18.024 -57.652  34.798  0.00  0.00     0.283 C 
ATOM      2  N   UNK d   1      17.422 -57.957  33.598  0.00  0.00     0.042 N 
ATOM      3  C   UNK d   1      16.001 -57.847  33.851  0.00  0.00     0.210 C 
ATOM      4  C   UNK d   1      14.982 -57.351  33.228  0.00  0.00     0.030 C 
ATOM      5  C   UNK d   1      13.602 -57.386  33.745  0.00  0.00     0.032 C 
ATOM      6  C   UNK d   1      13.427 -58.024  35.077  0.00  0.00     0.023 C 
ATOM      7  C   UNK d   1      14.518 -58.965  35.462  0.00  0.00     0.125 C 
ATOM      8  N   UNK d   1      15.833 -58.471  35.112  0.00  0.00    -0.356 N 
ATOM      9  C   UNK d   1      17.128 -58.452  35.787  0.00  0.00     0.200 C 
ATOM     10  H   UNK d   1      17.524 -59.031  33.476  0.00  0.00     0.299 HD
ENDROOT
BRANCH   1  11
ATOM     11  C   UNK d   1      18.099 -56.315  35.352  0.00  0.00     0.007 A 
ATOM     12  C   UNK d   1      19.170 -55.508  35.022  0.00  0.00     0.014 A 
ATOM     13  C   UNK d   1      19.280 -54.252  35.543  0.00  0.00     0.024 A 
ATOM     14  C   UNK d   1      18.335 -53.732  36.418  0.00  0.00     0.034 A 
ATOM     15 Cl   UNK d   1      18.451 -52.129  37.099  0.00  0.00    -0.084 Cl
ATOM     16  C   UNK d   1      17.275 -54.533  36.744  0.00  0.00     0.024 A 
ATOM     17  C   UNK d   1      17.161 -55.808  36.217  0.00  0.00     0.014 A 
ENDBRANCH   1  11
BRANCH   1  18
ATOM     18  O   UNK d   1      19.285 -58.298  34.939  0.00  0.00    -0.359 OA
ATOM     19  H   UNK d   1      19.597 -58.474  34.014  0.00  0.00     0.213 HD
ENDBRANCH   1  18
BRANCH   2  20
ATOM     20  C   UNK d   1      17.799 -57.426  32.374  0.00  0.00     0.146 A 
ATOM     21  C   UNK d   1      17.978 -56.119  32.070  0.00  0.00     0.041 A 
ATOM     22  C   UNK d   1      18.374 -55.739  30.789  0.00  0.00     0.039 A 
ATOM     23  C   UNK d   1      18.602 -56.657  29.778  0.00  0.00     0.068 A 
ATOM     24  C   UNK d   1      18.412 -57.980  30.117  0.00  0.00     0.039 A 
ATOM     25  C   UNK d   1      18.023 -58.386  31.366  0.00  0.00     0.041 A 
BRANCH  23  26
ATOM     26  O   UNK d   1      18.993 -56.236  28.517  0.00  0.00    -0.356 OA
ATOM     27  C   UNK d   1      20.291 -55.733  28.331  0.00  0.00     0.210 C 
ENDBRANCH  23  26
ENDBRANCH   2  20
TORSDOF 4
ENDMDL
