MODEL 1
REMARK VINA RESULT:    -8.964      0.000      0.000
REMARK INTER + INTRA:         -13.408
REMARK INTER:                 -12.108
REMARK INTRA:                  -1.301
REMARK UNBOUND:                -1.301
REMARK  6 active torsions:
REMARK  status: ('A' for Active; 'I' for Inactive)
REMARK    1  A    between atoms: N_8  and  C_12 
REMARK    2  A    between atoms: C_12  and  C_13 
REMARK    3  A    between atoms: C_13  and  C_14 
REMARK       I    between atoms: C_14  and  N_16 
REMARK    4  A    between atoms: N_19  and  C_22 
REMARK    5  A    between atoms: C_22  and  C_23 
REMARK       I    between atoms: C_23  and  N_25 
REMARK    6  A    between atoms: N_25  and  C_26 
ROOT
ATOM      1  C   UNK d   1      18.457 -57.165  32.159  0.00  0.00     0.221 C 
ATOM      2  O   UNK d   1      19.532 -57.714  31.704  0.00  0.00    -0.273 OA
ATOM      3  N   UNK d   1      18.557 -55.806  32.466  0.00  0.00    -0.349 N 
ATOM      4  C   UNK d   1      17.529 -55.036  33.192  0.00  0.00     0.145 C 
ATOM      5  C   UNK d   1      18.303 -54.823  34.531  0.00  0.00     0.137 C 
ATOM      6  N   UNK d   1      19.432 -53.948  34.251  0.00  0.00    -0.401 N 
ATOM      7  C   UNK d   1      19.965 -53.873  33.004  0.00  0.00     0.137 C 
ATOM      8  C   UNK d   1      19.669 -54.997  32.051  0.00  0.00     0.145 C 
ENDROOT
BRANCH   1   9
ATOM      9  C   UNK d   1      17.320 -58.048  32.251  0.00  0.00     0.123 C 
BRANCH   9  10
ATOM     10  C   UNK d   1      17.078 -58.885  33.423  0.00  0.00     0.144 C 
BRANCH  10  11
ATOM     11  N   UNK d   1      15.897 -58.594  34.219  0.00  0.00    -0.290 N 
ATOM     12  C   UNK d   1      15.745 -57.962  35.380  0.00  0.00     0.073 A 
ATOM     13  C   UNK d   1      14.431 -58.013  35.779  0.00  0.00     0.109 A 
ATOM     14  C   UNK d   1      16.679 -57.284  36.183  0.00  0.00     0.034 A 
ATOM     15  C   UNK d   1      13.988 -57.412  36.965  0.00  0.00     0.063 A 
ATOM     16  O   UNK d   1      13.814 -58.683  34.842  0.00  0.00    -0.259 OA
ATOM     17  C   UNK d   1      14.886 -56.751  37.757  0.00  0.00     0.036 A 
ATOM     18 Cl   UNK d   1      14.366 -55.978  39.233  0.00  0.00    -0.084 Cl
ATOM     19  C   UNK d   1      16.206 -56.702  37.348  0.00  0.00     0.026 A 
ATOM     20  C   UNK d   1      14.641 -59.051  33.894  0.00  0.00     0.372 A 
ATOM     21  O   UNK d   1      14.353 -59.712  32.856  0.00  0.00    -0.237 OA
ENDBRANCH  10  11
ENDBRANCH   9  10
ENDBRANCH   1   9
BRANCH   6  22
ATOM     22  C   UNK d   1      20.043 -53.641  35.456  0.00  0.00     0.219 C 
BRANCH  22  23
ATOM     23  C   UNK d   1      19.680 -52.236  35.939  0.00  0.00     0.235 C 
ATOM     24  O   UNK d   1      20.372 -51.305  35.374  0.00  0.00    -0.272 OA
ATOM     25  N   UNK d   1      18.742 -52.041  36.858  0.00  0.00    -0.355 N 
ATOM     26  H   UNK d   1      18.785 -50.696  36.674  0.00  0.00     0.162 HD
BRANCH  25  27
ATOM     27  C   UNK d   1      17.743 -51.835  37.837  0.00  0.00     0.084 A 
ATOM     28  C   UNK d   1      17.486 -53.069  38.784  0.00  0.00     0.027 A 
ATOM     29  C   UNK d   1      16.503 -52.701  37.783  0.00  0.00     0.027 A 
ENDBRANCH  25  27
ENDBRANCH  22  23
ENDBRANCH   6  22
TORSDOF 6
ENDMDL
