MODEL 1
REMARK VINA RESULT:    -8.993      0.000      0.000
REMARK INTER + INTRA:         -10.234
REMARK INTER:                 -10.044
REMARK INTRA:                  -0.190
REMARK UNBOUND:                -0.190
REMARK  2 active torsions:
REMARK  status: ('A' for Active; 'I' for Inactive)
REMARK    1  A    between atoms: C_3  and  N_17 
REMARK    2  A    between atoms: N_17  and  C_18 
ROOT
ATOM      1 Cl   UNK d   1      19.905 -54.303  32.498  0.00  0.00    -0.076 Cl
ATOM      2  C   UNK d   1      19.036 -54.398  34.014  0.00  0.00     0.135 A 
ATOM      3  C   UNK d   1      18.012 -55.308  34.168  0.00  0.00     0.126 A 
ATOM      4  C   UNK d   1      17.376 -55.330  35.389  0.00  0.00     0.291 A 
ATOM      5  O   UNK d   1      16.421 -56.128  35.638  0.00  0.00    -0.264 OA
ATOM      6  N   UNK d   1      17.761 -54.490  36.361  0.00  0.00    -0.241 N 
ATOM      7  N   UNK d   1      18.733 -53.606  36.258  0.00  0.00    -0.242 N 
ATOM      8  C   UNK d   1      19.119 -52.714  37.339  0.00  0.00     0.134 C 
ATOM      9  C   UNK d   1      18.100 -51.618  37.574  0.00  0.00     0.031 C 
ATOM     10  C   UNK d   1      16.953 -52.133  38.425  0.00  0.00     0.005 C 
ATOM     11  C   UNK d   1      16.236 -53.278  37.747  0.00  0.00     0.031 C 
ATOM     12  C   UNK d   1      17.066 -54.531  37.657  0.00  0.00     0.134 C 
ATOM     13  C   UNK d   1      18.127 -54.459  38.697  0.00  0.00    -0.002 C 
ATOM     14  C   UNK d   1      19.103 -53.564  38.587  0.00  0.00    -0.002 C 
ATOM     15  C   UNK d   1      19.380 -53.563  35.056  0.00  0.00     0.287 A 
ATOM     16  O   UNK d   1      20.327 -52.716  34.926  0.00  0.00    -0.265 OA
ENDROOT
BRANCH   3  17
ATOM     17  N   UNK d   1      17.599 -56.198  33.135  0.00  0.00    -0.380 N 
ATOM     18  H   UNK d   1      16.852 -55.798  32.490  0.00  0.00     0.160 HD
BRANCH  17  19
ATOM     19  C   UNK d   1      18.120 -57.524  32.943  0.00  0.00     0.073 C 
ATOM     20  C   UNK d   1      19.078 -57.593  31.766  0.00  0.00     0.031 C 
ATOM     21  C   UNK d   1      18.813 -58.095  34.135  0.00  0.00     0.031 C 
ENDBRANCH  17  19
ENDBRANCH   3  17
TORSDOF 2
ENDMDL
