MODEL 1
REMARK VINA RESULT:    -8.912      0.000      0.000
REMARK INTER + INTRA:         -10.283
REMARK INTER:                  -9.954
REMARK INTRA:                  -0.330
REMARK UNBOUND:                -0.330
REMARK  2 active torsions:
REMARK  status: ('A' for Active; 'I' for Inactive)
REMARK    1  A    between atoms: C_3  and  N_17 
REMARK    2  A    between atoms: N_17  and  C_18 
ROOT
ATOM      1 Cl   UNK d   1      20.361 -53.929  32.833  0.00  0.00    -0.076 Cl
ATOM      2  C   UNK d   1      19.305 -54.111  34.219  0.00  0.00     0.135 A 
ATOM      3  C   UNK d   1      18.347 -55.102  34.176  0.00  0.00     0.126 A 
ATOM      4  C   UNK d   1      17.535 -55.187  35.315  0.00  0.00     0.291 A 
ATOM      5  O   UNK d   1      16.651 -56.065  35.329  0.00  0.00    -0.264 OA
ATOM      6  N   UNK d   1      17.701 -54.356  36.351  0.00  0.00    -0.241 N 
ATOM      7  N   UNK d   1      18.624 -53.406  36.385  0.00  0.00    -0.241 N 
ATOM      8  C   UNK d   1      18.673 -52.594  37.592  0.00  0.00     0.139 C 
ATOM      9  C   UNK d   1      17.293 -51.983  37.756  0.00  0.00     0.021 A 
ATOM     10  C   UNK d   1      16.254 -53.016  37.673  0.00  0.00     0.021 A 
ATOM     11  C   UNK d   1      16.860 -54.420  37.548  0.00  0.00     0.139 C 
ATOM     12  C   UNK d   1      17.842 -54.543  38.680  0.00  0.00    -0.001 C 
ATOM     13  C   UNK d   1      18.775 -53.607  38.708  0.00  0.00    -0.001 C 
ATOM     14  C   UNK d   1      16.503 -52.254  38.982  0.00  0.00     0.015 A 
ATOM     15  C   UNK d   1      19.422 -53.280  35.330  0.00  0.00     0.287 A 
ATOM     16  O   UNK d   1      20.302 -52.382  35.353  0.00  0.00    -0.265 OA
ENDROOT
BRANCH   3  17
ATOM     17  N   UNK d   1      18.161 -55.996  33.083  0.00  0.00    -0.380 N 
ATOM     18  H   UNK d   1      17.444 -55.703  32.386  0.00  0.00     0.160 HD
BRANCH  17  19
ATOM     19  C   UNK d   1      18.861 -57.214  32.889  0.00  0.00     0.073 C 
ATOM     20  C   UNK d   1      18.064 -58.454  33.198  0.00  0.00     0.031 C 
ATOM     21  C   UNK d   1      19.389 -57.382  31.471  0.00  0.00     0.031 C 
ENDBRANCH  17  19
ENDBRANCH   3  17
TORSDOF 2
ENDMDL
