/Users/jonathanwahrer/Desktop/Msc/3_Semester/Drug_Design_Praktikum/waehrer_HTS_screening/HTS_experiment/out/docking_results/vina_output/6s1j/2281_docked.pdbqt
 OpenBabel03222222423D

 34 37  0  0  1  0  0  0  0  0999 V2000
   16.2550  -57.6170   33.0110 N   0  0  0  0  0  0  0  0  0  0  0  0
   17.2740  -58.4010   32.4520 C   0  0  0  0  0  2  0  0  0  0  0  0
   18.5670  -57.5070   32.4060 C   0  0  0  0  0  2  0  0  0  0  0  0
   18.5390  -56.3170   33.0990 N   0  0  0  0  0  0  0  0  0  0  0  0
   17.2810  -55.6560   33.3170 C   0  0  0  0  0  2  0  0  0  0  0  0
   16.1990  -56.2430   32.3530 C   0  0  0  0  0  2  0  0  0  0  0  0
   15.4280  -57.7270   34.1180 C   0  0  2  0  0  3  0  0  0  0  0  0
   15.7690  -58.1290   35.3350 C   0  0  1  0  0  3  0  0  0  0  0  0
   17.5280  -58.0860   35.7590 Cl  0  0  0  0  0  0  0  0  0  0  0  0
   14.8580  -58.5630   36.2980 C   0  0  0  0  0  0  0  0  0  0  0  0
   13.5870  -58.5680   36.0050 N   0  0  0  0  0  0  0  0  0  0  0  0
   15.3320  -58.9500   37.4200 O   0  0  0  0  0  0  0  0  0  0  0  0
   13.1930  -58.1470   34.7740 N   0  0  0  0  0  0  0  0  0  0  0  0
   13.9710  -57.7360   33.8450 C   0  0  0  0  0  3  0  0  0  0  0  0
   12.5820  -59.2500   36.8190 C   0  0  0  0  0  0  0  0  0  0  0  0
   12.1730  -58.7830   38.0260 C   0  0  0  0  0  3  0  0  0  0  0  0
   11.1380  -59.3800   38.7140 C   0  0  0  0  0  3  0  0  0  0  0  0
   10.4770  -60.4870   38.1840 C   0  0  0  0  0  3  0  0  0  0  0  0
   10.9250  -60.9500   36.9460 C   0  0  0  0  0  3  0  0  0  0  0  0
   11.9330  -60.3540   36.2940 C   0  0  0  0  0  3  0  0  0  0  0  0
   19.3710  -55.2160   32.5080 C   0  0  0  0  0  2  0  0  0  0  0  0
   19.6840  -54.2320   33.5340 C   0  0  0  0  0  0  0  0  0  0  0  0
   19.8720  -53.1310   33.5540 O   0  0  0  0  0  0  0  0  0  0  0  0
   19.7650  -54.9940   35.0610 N   0  0  0  0  0  0  0  0  0  0  0  0
   19.7220  -53.7060   35.8390 C   0  0  0  0  0  0  0  0  0  0  0  0
   19.7880  -55.6530   34.6560 H   0  0  0  0  0  0  0  0  0  0  0  0
   20.1760  -52.6550   35.4790 O   0  0  0  0  0  0  0  0  0  0  0  0
   19.0340  -53.9050   37.0940 N   0  0  0  0  0  0  0  0  0  0  0  0
   18.7180  -54.9130   37.2860 H   0  0  0  0  0  0  0  0  0  0  0  0
   18.7570  -52.9390   38.0890 C   0  0  0  0  0  3  0  0  0  0  0  0
   17.9580  -51.7480   37.7500 C   0  0  0  0  0  2  0  0  0  0  0  0
   16.4910  -52.0790   38.0440 C   0  0  0  0  0  2  0  0  0  0  0  0
   16.6320  -52.9900   39.2410 C   0  0  0  0  0  2  0  0  0  0  0  0
   17.9170  -53.6880   39.1440 C   0  0  0  0  0  2  0  0  0  0  0  0
  2  1  1  0  0  0  0
  3  2  1  0  0  0  0
  3  4  1  0  0  0  0
  4  5  1  0  0  0  0
  6  1  1  0  0  0  0
  6  5  1  0  0  0  0
  7  1  1  6  0  0  0
  7  8  1  0  0  0  0
  8  9  1  1  0  0  0
  8 10  1  0  0  0  0
 10 12  2  0  0  0  0
 11 10  1  0  0  0  0
 11 15  1  0  0  0  0
 13 11  1  0  0  0  0
 14  7  1  0  0  0  0
 14 13  2  0  0  0  0
 15 16  1  0  0  0  0
 16 17  2  0  0  0  0
 18 17  1  0  0  0  0
 19 18  2  0  0  0  0
 20 15  2  0  0  0  0
 20 19  1  0  0  0  0
 21  4  1  0  0  0  0
 21 22  1  0  0  0  0
 22 23  2  0  0  0  0
 22 24  1  0  0  0  0
 24 25  1  0  0  0  0
 25 28  1  0  0  0  0
 26 24  1  0  0  0  0
 27 25  2  0  0  0  0
 28 29  1  0  0  0  0
 28 30  1  0  0  0  0
 30 34  1  0  0  0  0
 31 32  1  0  0  0  0
 31 30  1  0  0  0  0
 32 33  1  0  0  0  0
 34 33  1  0  0  0  0
M  END
>  <Pose>
1

>  <Score>
-10.024

$$$$
