MODEL 1
REMARK VINA RESULT:   -10.024      0.000      0.000
REMARK INTER + INTRA:         -12.922
REMARK INTER:                 -12.954
REMARK INTRA:                   0.032
REMARK UNBOUND:                 0.032
REMARK  5 active torsions:
REMARK  status: ('A' for Active; 'I' for Inactive)
REMARK    1  A    between atoms: C_3  and  N_15 
REMARK    2  A    between atoms: N_6  and  C_9 
REMARK    3  A    between atoms: N_18  and  C_21 
REMARK    4  A    between atoms: C_21  and  C_22 
REMARK       I    between atoms: C_22  and  N_24 
REMARK       I    between atoms: N_24  and  C_25 
REMARK       I    between atoms: C_25  and  N_27 
REMARK    5  A    between atoms: N_27  and  C_28 
ROOT
ATOM      1  N   UNK d   1      16.255 -57.617  33.011  0.00  0.00    -0.375 N 
ATOM      2  C   UNK d   1      17.274 -58.401  32.452  0.00  0.00     0.153 C 
ATOM      3  C   UNK d   1      18.567 -57.507  32.406  0.00  0.00     0.292 C 
ATOM      4  N   UNK d   1      18.539 -56.317  33.099  0.00  0.00     0.100 N 
ATOM      5  C   UNK d   1      17.281 -55.656  33.317  0.00  0.00     0.292 C 
ATOM      6  C   UNK d   1      16.199 -56.243  32.353  0.00  0.00     0.153 C 
ENDROOT
BRANCH   1   7
ATOM      7  C   UNK d   1      15.428 -57.727  34.118  0.00  0.00     0.077 A 
ATOM      8  C   UNK d   1      15.769 -58.129  35.335  0.00  0.00     0.131 A 
ATOM      9 Cl   UNK d   1      17.528 -58.086  35.759  0.00  0.00    -0.076 Cl
ATOM     10  C   UNK d   1      14.858 -58.563  36.298  0.00  0.00     0.292 A 
ATOM     11  N   UNK d   1      13.587 -58.568  36.005  0.00  0.00    -0.197 N 
ATOM     12  O   UNK d   1      15.332 -58.950  37.420  0.00  0.00    -0.264 OA
ATOM     13  N   UNK d   1      13.193 -58.147  34.774  0.00  0.00    -0.174 NA
ATOM     14  C   UNK d   1      13.971 -57.736  33.845  0.00  0.00     0.170 A 
BRANCH  11  15
ATOM     15  C   UNK d   1      12.582 -59.250  36.819  0.00  0.00     0.062 A 
ATOM     16  C   UNK d   1      12.173 -58.783  38.026  0.00  0.00     0.032 A 
ATOM     17  C   UNK d   1      11.138 -59.380  38.714  0.00  0.00     0.002 A 
ATOM     18  C   UNK d   1      10.477 -60.487  38.184  0.00  0.00     0.000 A 
ATOM     19  C   UNK d   1      10.925 -60.950  36.946  0.00  0.00     0.002 A 
ATOM     20  C   UNK d   1      11.933 -60.354  36.294  0.00  0.00     0.032 A 
ENDBRANCH  11  15
ENDBRANCH   1   7
BRANCH   4  21
ATOM     21  C   UNK d   1      19.371 -55.216  32.508  0.00  0.00     0.375 C 
BRANCH  21  22
ATOM     22  C   UNK d   1      19.684 -54.232  33.534  0.00  0.00     0.254 C 
ATOM     23  O   UNK d   1      19.872 -53.131  33.554  0.00  0.00    -0.271 OA
ATOM     24  N   UNK d   1      19.765 -54.994  35.061  0.00  0.00    -0.278 N 
ATOM     25  C   UNK d   1      19.722 -53.706  35.839  0.00  0.00     0.323 C 
ATOM     26  H   UNK d   1      19.788 -55.653  34.656  0.00  0.00     0.173 HD
ATOM     27  O   UNK d   1      20.176 -52.655  35.479  0.00  0.00    -0.247 OA
ATOM     28  N   UNK d   1      19.034 -53.905  37.094  0.00  0.00    -0.338 N 
ATOM     29  H   UNK d   1      18.718 -54.913  37.286  0.00  0.00     0.164 HD
BRANCH  28  30
ATOM     30  C   UNK d   1      18.757 -52.939  38.089  0.00  0.00     0.086 C 
ATOM     31  C   UNK d   1      17.958 -51.748  37.750  0.00  0.00     0.025 C 
ATOM     32  C   UNK d   1      16.491 -52.079  38.044  0.00  0.00     0.002 C 
ATOM     33  C   UNK d   1      16.632 -52.990  39.241  0.00  0.00     0.002 C 
ATOM     34  C   UNK d   1      17.917 -53.688  39.144  0.00  0.00     0.025 C 
ENDBRANCH  28  30
ENDBRANCH  21  22
ENDBRANCH   4  21
TORSDOF 5
ENDMDL
