MODEL 1
REMARK VINA RESULT:    -8.004      0.000      0.000
REMARK INTER + INTRA:         -12.136
REMARK INTER:                 -10.812
REMARK INTRA:                  -1.324
REMARK UNBOUND:                -1.324
REMARK  6 active torsions:
REMARK  status: ('A' for Active; 'I' for Inactive)
REMARK    1  A    between atoms: C_3  and  N_15 
REMARK    2  A    between atoms: N_6  and  C_9 
REMARK    3  A    between atoms: N_18  and  C_21 
REMARK    4  A    between atoms: C_21  and  C_22 
REMARK       I    between atoms: C_22  and  N_24 
REMARK    5  A    between atoms: N_24  and  C_25 
REMARK    6  A    between atoms: C_25  and  C_26 
ROOT
ATOM      1  N   UNK d   1      18.784 -56.381  31.812  0.00  0.00    -0.375 N 
ATOM      2  C   UNK d   1      18.014 -56.072  30.631  0.00  0.00     0.153 C 
ATOM      3  C   UNK d   1      17.698 -57.330  29.883  0.00  0.00     0.292 C 
ATOM      4  N   UNK d   1      18.035 -58.436  30.744  0.00  0.00     0.100 NA
ATOM      5  C   UNK d   1      19.446 -58.509  30.866  0.00  0.00     0.292 C 
ATOM      6  C   UNK d   1      19.884 -57.306  31.708  0.00  0.00     0.153 C 
ENDROOT
BRANCH   1   7
ATOM      7  C   UNK d   1      18.503 -55.807  33.079  0.00  0.00     0.077 A 
ATOM      8  C   UNK d   1      19.151 -54.659  33.527  0.00  0.00     0.131 A 
ATOM      9 Cl   UNK d   1      20.345 -53.949  32.461  0.00  0.00    -0.076 Cl
ATOM     10  C   UNK d   1      18.855 -54.117  34.762  0.00  0.00     0.292 A 
ATOM     11  N   UNK d   1      17.936 -54.670  35.576  0.00  0.00    -0.197 N 
ATOM     12  O   UNK d   1      19.446 -53.076  35.164  0.00  0.00    -0.264 OA
ATOM     13  N   UNK d   1      17.332 -55.759  35.132  0.00  0.00    -0.174 NA
ATOM     14  C   UNK d   1      17.571 -56.339  33.944  0.00  0.00     0.170 A 
BRANCH  11  15
ATOM     15  C   UNK d   1      17.626 -54.105  36.857  0.00  0.00     0.062 A 
ATOM     16  C   UNK d   1      18.349 -54.474  37.967  0.00  0.00     0.032 A 
ATOM     17  C   UNK d   1      18.056 -53.929  39.222  0.00  0.00     0.002 A 
ATOM     18  C   UNK d   1      17.042 -53.013  39.384  0.00  0.00     0.000 A 
ATOM     19  C   UNK d   1      16.313 -52.637  38.277  0.00  0.00     0.002 A 
ATOM     20  C   UNK d   1      16.614 -53.187  37.036  0.00  0.00     0.032 A 
ENDBRANCH  11  15
ENDBRANCH   1   7
BRANCH   4  21
ATOM     21  C   UNK d   1      17.311 -59.628  30.545  0.00  0.00     0.374 C 
BRANCH  21  22
ATOM     22  C   UNK d   1      16.363 -59.957  31.615  0.00  0.00     0.246 C 
ATOM     23  O   UNK d   1      15.186 -60.283  31.239  0.00  0.00    -0.272 OA
ATOM     24  N   UNK d   1      16.633 -59.950  33.005  0.00  0.00    -0.357 N 
ATOM     25  H   UNK d   1      17.595 -59.695  33.306  0.00  0.00     0.162 HD
BRANCH  24  26
ATOM     26  C   UNK d   1      15.666 -60.283  34.020  0.00  0.00     0.154 C 
BRANCH  26  27
ATOM     27  C   UNK d   1      15.056 -59.028  34.562  0.00  0.00     0.139 C 
ATOM     28  O   UNK d   1      13.691 -59.134  34.529  0.00  0.00    -0.384 OA
ATOM     29  C   UNK d   1      13.156 -58.963  35.777  0.00  0.00     0.168 C 
ATOM     30  C   UNK d   1      14.164 -58.071  36.469  0.00  0.00     0.029 C 
ATOM     31  C   UNK d   1      15.444 -58.791  36.014  0.00  0.00     0.035 C 
ENDBRANCH  26  27
ENDBRANCH  24  26
ENDBRANCH  21  22
ENDBRANCH   4  21
TORSDOF 6
ENDMDL
