MODEL 1
REMARK VINA RESULT:    -9.728      0.000      0.000
REMARK INTER + INTRA:         -13.345
REMARK INTER:                 -12.571
REMARK INTRA:                  -0.774
REMARK UNBOUND:                -0.774
REMARK  5 active torsions:
REMARK  status: ('A' for Active; 'I' for Inactive)
REMARK    1  A    between atoms: S_1  and  N_4 
REMARK    2  A    between atoms: S_1  and  C_28 
REMARK    3  A    between atoms: N_7  and  C_10 
REMARK    4  A    between atoms: C_10  and  C_11 
REMARK    5  A    between atoms: C_17  and  C_21 
ROOT
ATOM      1  C   UNK d   1      13.715 -58.186  38.563  0.00  0.00     0.060 A 
ATOM      2  C   UNK d   1      14.658 -58.683  37.684  0.00  0.00     0.105 A 
ATOM      3  C   UNK d   1      15.694 -57.954  37.158  0.00  0.00     0.272 A 
ATOM      4  O   UNK d   1      16.503 -58.523  36.354  0.00  0.00    -0.266 OA
ATOM      5  N   UNK d   1      15.836 -56.640  37.505  0.00  0.00    -0.171 N 
ATOM      6  N   UNK d   1      16.750 -55.856  37.090  0.00  0.00    -0.154 NA
ATOM      7  C   UNK d   1      16.828 -54.613  37.462  0.00  0.00     0.132 A 
ATOM      8  S   UNK d   1      15.460 -54.540  38.514  0.00  0.00    -0.028 SA
ATOM      9  C   UNK d   1      14.924 -56.163  38.354  0.00  0.00     0.199 A 
ATOM     10  N   UNK d   1      13.905 -56.885  38.870  0.00  0.00    -0.225 NA
ENDROOT
BRANCH   1  11
ATOM     11  C   UNK d   1      12.613 -59.018  39.102  0.00  0.00     0.176 C 
BRANCH  11  12
ATOM     12  N   UNK d   1      12.247 -59.988  38.120  0.00  0.00    -0.404 N 
ATOM     13  C   UNK d   1      11.275 -59.600  37.178  0.00  0.00     0.137 C 
ATOM     14  C   UNK d   1      11.336 -60.559  35.985  0.00  0.00     0.155 C 
ATOM     15  N   UNK d   1      11.293 -61.888  36.415  0.00  0.00    -0.302 N 
ATOM     16  C   UNK d   1      11.061 -62.047  37.789  0.00  0.00     0.155 C 
ATOM     17  C   UNK d   1      12.119 -61.316  38.586  0.00  0.00     0.137 C 
BRANCH  15  18
ATOM     18  S   UNK d   1      11.975 -63.109  35.522  0.00  0.00     0.280 S 
ATOM     19  O   UNK d   1      10.857 -63.935  34.894  0.00  0.00    -0.199 OA
ATOM     20  O   UNK d   1      12.863 -64.005  36.347  0.00  0.00    -0.199 OA
BRANCH  18  21
ATOM     21  C   UNK d   1      12.894 -62.473  34.176  0.00  0.00     0.188 A 
ATOM     22  N   UNK d   1      14.022 -61.713  34.246  0.00  0.00    -0.229 NA
ATOM     23  C   UNK d   1      14.449 -61.406  33.020  0.00  0.00     0.208 A 
ATOM     24  N   UNK d   1      13.626 -61.949  32.111  0.00  0.00    -0.358 N 
ATOM     25  C   UNK d   1      12.672 -62.604  32.827  0.00  0.00     0.134 A 
ATOM     26  H   UNK d   1      13.705 -61.880  31.083  0.00  0.00     0.166 HD
ENDBRANCH  18  21
ENDBRANCH  15  18
ENDBRANCH  11  12
ENDBRANCH   1  11
BRANCH   7  27
ATOM     27  C   UNK d   1      17.774 -53.543  37.121  0.00  0.00     0.002 A 
ATOM     28  C   UNK d   1      17.571 -52.287  37.651  0.00  0.00     0.016 A 
ATOM     29  C   UNK d   1      18.430 -51.234  37.367  0.00  0.00     0.024 A 
ATOM     30  C   UNK d   1      19.514 -51.439  36.539  0.00  0.00     0.034 A 
ATOM     31  C   UNK d   1      19.738 -52.692  35.995  0.00  0.00     0.024 A 
ATOM     32 Cl   UNK d   1      20.595 -50.132  36.176  0.00  0.00    -0.084 Cl
ATOM     33  C   UNK d   1      18.859 -53.704  36.305  0.00  0.00     0.016 A 
ENDBRANCH   7  27
TORSDOF 5
ENDMDL
