/Users/jonathanwahrer/Desktop/Msc/3_Semester/Drug_Design_Praktikum/waehrer_HTS_screening/HTS_experiment/out/docking_results/vina_output/6s1j/2284_docked.pdbqt
 OpenBabel03222222433D

 33 37  0  0  0  0  0  0  0  0999 V2000
   13.7150  -58.1860   38.5630 C   0  0  0  0  0  0  0  0  0  0  0  0
   14.6580  -58.6830   37.6840 C   0  0  0  0  0  3  0  0  0  0  0  0
   15.6940  -57.9540   37.1580 C   0  0  0  0  0  0  0  0  0  0  0  0
   16.5030  -58.5230   36.3540 O   0  0  0  0  0  0  0  0  0  0  0  0
   15.8360  -56.6400   37.5050 N   0  0  0  0  0  0  0  0  0  0  0  0
   16.7500  -55.8560   37.0900 N   0  0  0  0  0  0  0  0  0  0  0  0
   16.8280  -54.6130   37.4620 C   0  0  0  0  0  0  0  0  0  0  0  0
   15.4600  -54.5400   38.5140 S   0  0  0  0  0  0  0  0  0  0  0  0
   14.9240  -56.1630   38.3540 C   0  0  0  0  0  0  0  0  0  0  0  0
   13.9050  -56.8850   38.8700 N   0  0  0  0  0  0  0  0  0  0  0  0
   12.6130  -59.0180   39.1020 C   0  0  0  0  0  2  0  0  0  0  0  0
   12.2470  -59.9880   38.1200 N   0  0  0  0  0  0  0  0  0  0  0  0
   11.2750  -59.6000   37.1780 C   0  0  0  0  0  2  0  0  0  0  0  0
   11.3360  -60.5590   35.9850 C   0  0  0  0  0  2  0  0  0  0  0  0
   11.2930  -61.8880   36.4150 N   0  0  0  0  0  0  0  0  0  0  0  0
   11.0610  -62.0470   37.7890 C   0  0  0  0  0  2  0  0  0  0  0  0
   12.1190  -61.3160   38.5860 C   0  0  0  0  0  2  0  0  0  0  0  0
   11.9750  -63.1090   35.5220 S   0  0  0  0  0  0  0  0  0  0  0  0
   10.8570  -63.9350   34.8940 O   0  0  0  0  0  0  0  0  0  0  0  0
   12.8630  -64.0050   36.3470 O   0  0  0  0  0  0  0  0  0  0  0  0
   12.8940  -62.4730   34.1760 C   0  0  0  0  0  0  0  0  0  0  0  0
   14.0220  -61.7130   34.2460 N   0  0  0  0  0  0  0  0  0  0  0  0
   14.4490  -61.4060   33.0200 C   0  0  0  0  0  3  0  0  0  0  0  0
   13.6260  -61.9490   32.1110 N   0  0  0  0  0  0  0  0  0  0  0  0
   12.6720  -62.6040   32.8270 C   0  0  0  0  0  3  0  0  0  0  0  0
   13.7050  -61.8800   31.0830 H   0  0  0  0  0  0  0  0  0  0  0  0
   17.7740  -53.5430   37.1210 C   0  0  0  0  0  0  0  0  0  0  0  0
   17.5710  -52.2870   37.6510 C   0  0  0  0  0  3  0  0  0  0  0  0
   18.4300  -51.2340   37.3670 C   0  0  0  0  0  3  0  0  0  0  0  0
   19.5140  -51.4390   36.5390 C   0  0  0  0  0  0  0  0  0  0  0  0
   19.7380  -52.6920   35.9950 C   0  0  0  0  0  3  0  0  0  0  0  0
   20.5950  -50.1320   36.1760 Cl  0  0  0  0  0  0  0  0  0  0  0  0
   18.8590  -53.7040   36.3050 C   0  0  0  0  0  3  0  0  0  0  0  0
  1 10  1  0  0  0  0
  1 11  1  0  0  0  0
  2  1  2  0  0  0  0
  3  5  1  0  0  0  0
  3  2  1  0  0  0  0
  4  3  2  0  0  0  0
  5  9  1  0  0  0  0
  6  7  2  0  0  0  0
  6  5  1  0  0  0  0
  7  8  1  0  0  0  0
  9  8  1  0  0  0  0
  9 10  2  0  0  0  0
 12 17  1  0  0  0  0
 12 11  1  0  0  0  0
 13 12  1  0  0  0  0
 14 15  1  0  0  0  0
 14 13  1  0  0  0  0
 15 16  1  0  0  0  0
 16 17  1  0  0  0  0
 18 20  2  0  0  0  0
 18 15  1  0  0  0  0
 19 18  2  0  0  0  0
 21 22  1  0  0  0  0
 21 18  1  0  0  0  0
 23 22  2  0  0  0  0
 24 25  1  0  0  0  0
 24 23  1  0  0  0  0
 25 21  2  0  0  0  0
 26 24  1  0  0  0  0
 27  7  1  0  0  0  0
 27 28  1  0  0  0  0
 29 28  2  0  0  0  0
 30 29  1  0  0  0  0
 31 33  1  0  0  0  0
 31 30  2  0  0  0  0
 32 30  1  0  0  0  0
 33 27  2  0  0  0  0
M  END
>  <Pose>
1

>  <Score>
-9.728

$$$$
