MODEL 1
REMARK VINA RESULT:   -10.448      0.000      0.000
REMARK INTER + INTRA:         -15.489
REMARK INTER:                 -14.113
REMARK INTRA:                  -1.376
REMARK UNBOUND:                -1.376
REMARK  6 active torsions:
REMARK  status: ('A' for Active; 'I' for Inactive)
REMARK    1  A    between atoms: S_1  and  N_4 
REMARK    2  A    between atoms: S_1  and  C_22 
REMARK    3  A    between atoms: N_7  and  C_10 
REMARK    4  A    between atoms: C_10  and  C_11 
REMARK    5  A    between atoms: N_13  and  C_14 
REMARK    6  A    between atoms: C_14  and  C_15 
ROOT
ATOM      1  N   UNK d   1      17.386 -57.372  32.837  0.00  0.00    -0.203 NA
ATOM      2  C   UNK d   1      16.994 -56.168  33.508  0.00  0.00     0.127 C 
ATOM      3  C   UNK d   1      17.529 -54.881  32.853  0.00  0.00     0.132 C 
ATOM      4  N   UNK d   1      18.950 -55.024  32.778  0.00  0.00    -0.403 N 
ATOM      5  C   UNK d   1      19.238 -56.063  31.829  0.00  0.00     0.132 C 
ATOM      6  C   UNK d   1      18.862 -57.332  32.543  0.00  0.00     0.127 C 
ENDROOT
BRANCH   1   7
ATOM      7  S   UNK d   1      17.288 -58.655  34.066  0.00  0.00     0.243 S 
ATOM      8  O   UNK d   1      16.879 -59.925  33.346  0.00  0.00    -0.206 OA
ATOM      9  O   UNK d   1      18.635 -58.832  34.671  0.00  0.00    -0.206 OA
BRANCH   7  10
ATOM     10  C   UNK d   1      16.120 -58.300  35.278  0.00  0.00     0.077 A 
ATOM     11  C   UNK d   1      14.826 -58.768  35.011  0.00  0.00     0.064 A 
ATOM     12  C   UNK d   1      13.768 -58.661  35.917  0.00  0.00     0.103 A 
ATOM     13  C   UNK d   1      14.017 -58.059  37.147  0.00  0.00     0.102 A 
ATOM     14  O   UNK d   1      12.501 -59.130  35.616  0.00  0.00    -0.346 OA
ATOM     15  C   UNK d   1      15.297 -57.597  37.392  0.00  0.00     0.041 A 
ATOM     16  O   UNK d   1      12.927 -57.992  37.996  0.00  0.00    -0.346 OA
ATOM     17  C   UNK d   1      16.342 -57.712  36.485  0.00  0.00     0.028 A 
ATOM     18  C   UNK d   1      12.031 -59.135  38.023  0.00  0.00     0.202 C 
ATOM     19  C   UNK d   1      11.740 -59.680  36.664  0.00  0.00     0.202 C 
ENDBRANCH   7  10
ENDBRANCH   1   7
BRANCH   4  20
ATOM     20  C   UNK d   1      19.755 -53.912  32.949  0.00  0.00     0.204 C 
BRANCH  20  21
ATOM     21  C   UNK d   1      19.981 -53.441  34.317  0.00  0.00     0.169 C 
ATOM     22  O   UNK d   1      20.391 -52.199  34.362  0.00  0.00    -0.176 OA
ATOM     23  N   UNK d   1      19.836 -54.049  35.532  0.00  0.00    -0.366 N 
ATOM     24  H   UNK d   1      19.548 -55.074  35.667  0.00  0.00     0.161 HD
BRANCH  23  25
ATOM     25  C   UNK d   1      20.001 -53.384  36.827  0.00  0.00     0.162 C 
BRANCH  25  26
ATOM     26  C   UNK d   1      18.683 -53.284  37.486  0.00  0.00    -0.019 A 
ATOM     27  C   UNK d   1      18.067 -52.028  37.692  0.00  0.00     0.042 A 
ATOM     28  C   UNK d   1      16.940 -51.878  38.406  0.00  0.00     0.024 A 
ATOM     29 Cl   UNK d   1      18.822 -50.598  36.947  0.00  0.00    -0.084 Cl
ATOM     30  C   UNK d   1      16.302 -53.013  38.998  0.00  0.00     0.002 A 
ATOM     31  C   UNK d   1      16.877 -54.206  38.821  0.00  0.00     0.001 A 
ATOM     32  C   UNK d   1      18.053 -54.391  38.085  0.00  0.00     0.010 A 
ENDBRANCH  25  26
ENDBRANCH  23  25
ENDBRANCH  20  21
ENDBRANCH   4  20
TORSDOF 6
ENDMDL
