MODEL 1
REMARK VINA RESULT:   -10.094      0.000      0.000
REMARK INTER + INTRA:         -13.323
REMARK INTER:                 -12.455
REMARK INTRA:                  -0.868
REMARK UNBOUND:                -0.868
REMARK  4 active torsions:
REMARK  status: ('A' for Active; 'I' for Inactive)
REMARK    1  A    between atoms: S_1  and  N_4 
REMARK    2  A    between atoms: S_1  and  C_26 
REMARK       I    between atoms: N_7  and  C_10 
REMARK    3  A    between atoms: C_10  and  C_12 
REMARK    4  A    between atoms: C_12  and  N_13 
ROOT
ATOM      1  N   UNK d   1      16.693 -58.670  33.141  0.00  0.00    -0.303 N 
ATOM      2  C   UNK d   1      16.877 -58.253  31.798  0.00  0.00     0.155 C 
ATOM      3  C   UNK d   1      17.397 -56.847  31.654  0.00  0.00     0.146 C 
ATOM      4  N   UNK d   1      18.392 -56.528  32.655  0.00  0.00    -0.348 N 
ATOM      5  C   UNK d   1      18.904 -57.644  33.428  0.00  0.00     0.146 C 
ATOM      6  C   UNK d   1      17.788 -58.468  34.021  0.00  0.00     0.155 C 
ATOM      7  C   UNK d   1      18.804 -55.200  32.828  0.00  0.00     0.238 C 
ATOM      8  O   UNK d   1      18.300 -54.306  32.107  0.00  0.00    -0.272 OA
ENDROOT
BRANCH   7   9
ATOM      9  C   UNK d   1      19.820 -54.807  33.838  0.00  0.00     0.239 C 
BRANCH   9  10
ATOM     10  N   UNK d   1      19.247 -54.054  34.919  0.00  0.00    -0.259 N 
ATOM     11  C   UNK d   1      19.625 -52.731  35.267  0.00  0.00     0.328 C 
ATOM     12  O   UNK d   1      20.520 -52.049  34.663  0.00  0.00    -0.247 OA
ATOM     13  N   UNK d   1      18.884 -52.249  36.380  0.00  0.00    -0.320 N 
ATOM     14  C   UNK d   1      18.151 -53.381  36.915  0.00  0.00     0.118 C 
ATOM     15  C   UNK d   1      18.878 -50.871  36.869  0.00  0.00     0.155 C 
ATOM     16  C   UNK d   1      16.701 -53.065  37.142  0.00  0.00     0.041 C 
ATOM     17  C   UNK d   1      18.867 -53.818  38.171  0.00  0.00     0.041 C 
ATOM     18  C   UNK d   1      18.232 -54.410  35.848  0.00  0.00     0.257 C 
ATOM     19  C   UNK d   1      16.423 -52.410  38.463  0.00  0.00     0.003 C 
ATOM     20  C   UNK d   1      17.034 -53.125  39.632  0.00  0.00     0.000 C 
ATOM     21  C   UNK d   1      17.882 -54.305  39.210  0.00  0.00     0.003 C 
ATOM     22  O   UNK d   1      17.533 -55.445  35.748  0.00  0.00    -0.270 OA
ENDBRANCH   9  10
ENDBRANCH   7   9
BRANCH   1  23
ATOM     23  S   UNK d   1      15.168 -58.280  33.814  0.00  0.00     0.267 S 
ATOM     24  O   UNK d   1      14.197 -59.379  33.507  0.00  0.00    -0.200 OA
ATOM     25  O   UNK d   1      14.627 -57.005  33.239  0.00  0.00    -0.200 OA
BRANCH  23  26
ATOM     26  C   UNK d   1      15.272 -58.039  35.566  0.00  0.00     0.121 A 
ATOM     27  S   UNK d   1      14.566 -56.819  36.514  0.00  0.00    -0.064 SA
ATOM     28  C   UNK d   1      15.136 -57.292  38.044  0.00  0.00     0.075 A 
ATOM     29  C   UNK d   1      15.877 -58.411  37.774  0.00  0.00     0.033 A 
ATOM     30 Cl   UNK d   1      14.859 -56.542  39.631  0.00  0.00    -0.076 Cl
ATOM     31  C   UNK d   1      15.947 -58.801  36.481  0.00  0.00     0.035 A 
ENDBRANCH  23  26
ENDBRANCH   1  23
TORSDOF 4
ENDMDL
