/Users/jonathanwahrer/Desktop/Msc/3_Semester/Drug_Design_Praktikum/waehrer_HTS_screening/HTS_experiment/out/docking_results/vina_output/6s1j/2286_docked.pdbqt
 OpenBabel03222222443D

 31 34  0  0  0  0  0  0  0  0999 V2000
   16.6930  -58.6700   33.1410 N   0  0  0  0  0  0  0  0  0  0  0  0
   16.8770  -58.2530   31.7980 C   0  0  0  0  0  2  0  0  0  0  0  0
   17.3970  -56.8470   31.6540 C   0  0  0  0  0  2  0  0  0  0  0  0
   18.3920  -56.5280   32.6550 N   0  0  0  0  0  0  0  0  0  0  0  0
   18.9040  -57.6440   33.4280 C   0  0  0  0  0  2  0  0  0  0  0  0
   17.7880  -58.4680   34.0210 C   0  0  0  0  0  2  0  0  0  0  0  0
   18.8040  -55.2000   32.8280 C   0  0  0  0  0  0  0  0  0  0  0  0
   18.3000  -54.3060   32.1070 O   0  0  0  0  0  0  0  0  0  0  0  0
   19.8200  -54.8070   33.8380 C   0  0  0  0  0  2  0  0  0  0  0  0
   19.2470  -54.0540   34.9190 N   0  0  0  0  0  0  0  0  0  0  0  0
   19.6250  -52.7310   35.2670 C   0  0  0  0  0  0  0  0  0  0  0  0
   20.5200  -52.0490   34.6630 O   0  0  0  0  0  0  0  0  0  0  0  0
   18.8840  -52.2490   36.3800 N   0  0  0  0  0  0  0  0  0  0  0  0
   18.1510  -53.3810   36.9150 C   0  0  0  0  0  0  0  0  0  0  0  0
   18.8780  -50.8710   36.8690 C   0  0  0  0  0  1  0  0  0  0  0  0
   16.7010  -53.0650   37.1420 C   0  0  0  0  0  2  0  0  0  0  0  0
   18.8670  -53.8180   38.1710 C   0  0  0  0  0  2  0  0  0  0  0  0
   18.2320  -54.4100   35.8480 C   0  0  0  0  0  0  0  0  0  0  0  0
   16.4230  -52.4100   38.4630 C   0  0  0  0  0  2  0  0  0  0  0  0
   17.0340  -53.1250   39.6320 C   0  0  0  0  0  2  0  0  0  0  0  0
   17.8820  -54.3050   39.2100 C   0  0  0  0  0  2  0  0  0  0  0  0
   17.5330  -55.4450   35.7480 O   0  0  0  0  0  0  0  0  0  0  0  0
   15.1680  -58.2800   33.8140 S   0  0  0  0  0  0  0  0  0  0  0  0
   14.1970  -59.3790   33.5070 O   0  0  0  0  0  0  0  0  0  0  0  0
   14.6270  -57.0050   33.2390 O   0  0  0  0  0  0  0  0  0  0  0  0
   15.2720  -58.0390   35.5660 C   0  0  0  0  0  0  0  0  0  0  0  0
   14.5660  -56.8190   36.5140 S   0  0  0  0  0  0  0  0  0  0  0  0
   15.1360  -57.2920   38.0440 C   0  0  0  0  0  0  0  0  0  0  0  0
   15.8770  -58.4110   37.7740 C   0  0  0  0  0  3  0  0  0  0  0  0
   14.8590  -56.5420   39.6310 Cl  0  0  0  0  0  0  0  0  0  0  0  0
   15.9470  -58.8010   36.4810 C   0  0  0  0  0  3  0  0  0  0  0  0
  1 23  1  0  0  0  0
  1  6  1  0  0  0  0
  2  1  1  0  0  0  0
  3  2  1  0  0  0  0
  3  4  1  0  0  0  0
  4  7  1  0  0  0  0
  4  5  1  0  0  0  0
  5  6  1  0  0  0  0
  7  9  1  0  0  0  0
  8  7  2  0  0  0  0
  9 10  1  0  0  0  0
 10 11  1  0  0  0  0
 10 18  1  0  0  0  0
 11 13  1  0  0  0  0
 12 11  2  0  0  0  0
 13 15  1  0  0  0  0
 13 14  1  0  0  0  0
 14 16  1  0  0  0  0
 14 17  1  0  0  0  0
 16 19  1  0  0  0  0
 17 21  1  0  0  0  0
 18 14  1  0  0  0  0
 19 20  1  0  0  0  0
 21 20  1  0  0  0  0
 22 18  2  0  0  0  0
 23 26  1  0  0  0  0
 24 23  2  0  0  0  0
 25 23  2  0  0  0  0
 26 31  2  0  0  0  0
 26 27  1  0  0  0  0
 27 28  1  0  0  0  0
 28 30  1  0  0  0  0
 29 28  2  0  0  0  0
 31 29  1  0  0  0  0
M  END
>  <Pose>
1

>  <Score>
-10.094

$$$$
