MODEL 1
REMARK VINA RESULT:    -9.360      0.000      0.000
REMARK INTER + INTRA:         -14.230
REMARK INTER:                 -13.190
REMARK INTRA:                  -1.040
REMARK UNBOUND:                -1.040
REMARK  7 active torsions:
REMARK  status: ('A' for Active; 'I' for Inactive)
REMARK    1  A    between atoms: S_1  and  N_4 
REMARK    2  A    between atoms: S_1  and  C_27 
REMARK    3  A    between atoms: N_7  and  C_10 
REMARK    4  A    between atoms: C_10  and  C_11 
REMARK       I    between atoms: C_11  and  N_13 
REMARK    5  A    between atoms: N_13  and  C_14 
REMARK    6  A    between atoms: C_14  and  C_15 
REMARK    7  A    between atoms: C_15  and  N_21 
ROOT
ATOM      1  C   UNK d   1      14.979 -58.244  37.086  0.00  0.00     0.374 C 
ENDROOT
BRANCH   1   2
ATOM      2  N   UNK d   1      13.981 -58.125  36.063  0.00  0.00     0.100 N 
ATOM      3  C   UNK d   1      14.372 -57.322  34.959  0.00  0.00     0.293 C 
ATOM      4  C   UNK d   1      14.392 -58.013  33.622  0.00  0.00     0.165 C 
ATOM      5  N   UNK d   1      14.972 -59.260  33.725  0.00  0.00    -0.303 N 
ATOM      6  C   UNK d   1      14.508 -60.092  34.749  0.00  0.00     0.165 C 
ATOM      7  C   UNK d   1      13.484 -59.394  35.638  0.00  0.00     0.293 C 
BRANCH   5   8
ATOM      8  S   UNK d   1      16.173 -59.800  32.710  0.00  0.00     0.260 S 
ATOM      9  O   UNK d   1      17.036 -60.881  33.312  0.00  0.00    -0.200 OA
ATOM     10  O   UNK d   1      15.669 -60.368  31.402  0.00  0.00    -0.200 OA
BRANCH   8  11
ATOM     11  C   UNK d   1      17.267 -58.476  32.321  0.00  0.00     0.079 A 
ATOM     12  C   UNK d   1      18.032 -57.881  33.286  0.00  0.00     0.027 A 
ATOM     13  C   UNK d   1      18.885 -56.851  32.988  0.00  0.00     0.025 A 
ATOM     14  C   UNK d   1      18.968 -56.409  31.686  0.00  0.00     0.034 A 
ATOM     15  C   UNK d   1      18.196 -57.008  30.709  0.00  0.00     0.025 A 
ATOM     16 Cl   UNK d   1      20.069 -55.088  31.337  0.00  0.00    -0.084 Cl
ATOM     17  C   UNK d   1      17.346 -58.039  31.018  0.00  0.00     0.027 A 
ENDBRANCH   8  11
ENDBRANCH   5   8
ENDBRANCH   1   2
BRANCH   1  18
ATOM     18  C   UNK d   1      16.229 -57.500  36.712  0.00  0.00     0.246 C 
ATOM     19  O   UNK d   1      17.163 -58.173  36.224  0.00  0.00    -0.272 OA
ATOM     20  N   UNK d   1      16.340 -56.100  36.906  0.00  0.00    -0.357 N 
ATOM     21  H   UNK d   1      15.513 -55.592  37.320  0.00  0.00     0.162 HD
BRANCH  20  22
ATOM     22  C   UNK d   1      17.570 -55.472  36.521  0.00  0.00     0.164 C 
BRANCH  22  23
ATOM     23  C   UNK d   1      17.790 -54.090  37.002  0.00  0.00     0.175 C 
ATOM     24  C   UNK d   1      18.338 -54.128  38.408  0.00  0.00     0.043 C 
ATOM     25  C   UNK d   1      17.228 -54.074  39.463  0.00  0.00     0.003 C 
ATOM     26  C   UNK d   1      16.550 -52.718  39.440  0.00  0.00     0.000 C 
ATOM     27  C   UNK d   1      16.588 -52.218  38.008  0.00  0.00     0.003 C 
ATOM     28  C   UNK d   1      16.399 -53.440  37.133  0.00  0.00     0.043 C 
BRANCH  23  29
ATOM     29  N   UNK d   1      18.558 -53.219  36.198  0.00  0.00     0.103 N 
ATOM     30  C   UNK d   1      19.746 -52.666  36.744  0.00  0.00     0.299 C 
ATOM     31  C   UNK d   1      20.103 -51.465  35.849  0.00  0.00     0.198 C 
ATOM     32  O   UNK d   1      20.375 -51.892  34.572  0.00  0.00    -0.388 OA
ATOM     33  C   UNK d   1      20.227 -53.243  34.382  0.00  0.00     0.198 C 
ATOM     34  C   UNK d   1      18.877 -53.751  34.890  0.00  0.00     0.299 C 
ENDBRANCH  23  29
ENDBRANCH  22  23
ENDBRANCH  20  22
ENDBRANCH   1  18
TORSDOF 7
ENDMDL
