MODEL 1
REMARK VINA RESULT:    -8.233      0.000      0.000
REMARK INTER + INTRA:         -10.190
REMARK INTER:                  -9.677
REMARK INTRA:                  -0.513
REMARK UNBOUND:                -0.513
REMARK  3 active torsions:
REMARK  status: ('A' for Active; 'I' for Inactive)
REMARK    1  A    between atoms: S_1  and  N_4 
REMARK    2  A    between atoms: S_1  and  C_22 
REMARK       I    between atoms: N_7  and  C_10 
REMARK    3  A    between atoms: C_10  and  C_12 
ROOT
ATOM      1  N   UNK d   1      16.230 -58.813  35.081  0.00  0.00    -0.304 N 
ATOM      2  C   UNK d   1      15.653 -58.809  36.372  0.00  0.00     0.155 C 
ATOM      3  C   UNK d   1      16.137 -57.710  37.281  0.00  0.00     0.146 C 
ATOM      4  N   UNK d   1      16.251 -56.440  36.621  0.00  0.00    -0.347 N 
ATOM      5  C   UNK d   1      16.161 -56.441  35.182  0.00  0.00     0.146 C 
ATOM      6  C   UNK d   1      16.951 -57.651  34.694  0.00  0.00     0.155 C 
ATOM      7  C   UNK d   1      16.446 -55.270  37.373  0.00  0.00     0.243 C 
ATOM      8  O   UNK d   1      16.522 -55.395  38.628  0.00  0.00    -0.271 OA
ENDROOT
BRANCH   7   9
ATOM      9  C   UNK d   1      16.566 -53.907  36.786  0.00  0.00     0.190 C 
ATOM     10  N   UNK d   1      17.898 -53.613  36.403  0.00  0.00    -0.320 N 
ATOM     11  C   UNK d   1      18.726 -53.004  37.392  0.00  0.00     0.081 C 
ATOM     12  C   UNK d   1      18.750 -53.750  35.242  0.00  0.00     0.222 C 
ATOM     13  S   UNK d   1      17.547 -52.036  38.357  0.00  0.00    -0.135 SA
ATOM     14  C   UNK d   1      19.550 -52.023  36.580  0.00  0.00     0.051 C 
ATOM     15  C   UNK d   1      19.564 -53.914  38.198  0.00  0.00     0.051 C 
ATOM     16  C   UNK d   1      16.034 -52.842  37.698  0.00  0.00     0.111 C 
ATOM     17  C   UNK d   1      19.958 -52.951  35.428  0.00  0.00     0.106 C 
ATOM     18  O   UNK d   1      18.520 -54.443  34.205  0.00  0.00    -0.273 OA
ENDBRANCH   7   9
BRANCH   1  19
ATOM     19  S   UNK d   1      15.306 -59.547  33.862  0.00  0.00     0.260 S 
ATOM     20  O   UNK d   1      14.893 -58.548  32.827  0.00  0.00    -0.200 OA
ATOM     21  O   UNK d   1      16.170 -60.566  33.160  0.00  0.00    -0.200 OA
BRANCH  19  22
ATOM     22  C   UNK d   1      13.909 -60.419  34.487  0.00  0.00     0.079 A 
ATOM     23  C   UNK d   1      13.932 -61.792  34.592  0.00  0.00     0.027 A 
ATOM     24  C   UNK d   1      12.858 -62.503  35.074  0.00  0.00     0.025 A 
ATOM     25  C   UNK d   1      11.698 -61.867  35.479  0.00  0.00     0.034 A 
ATOM     26  C   UNK d   1      11.706 -60.487  35.361  0.00  0.00     0.025 A 
ATOM     27 Cl   UNK d   1      10.313 -62.741  36.097  0.00  0.00    -0.084 Cl
ATOM     28  C   UNK d   1      12.770 -59.764  34.882  0.00  0.00     0.027 A 
ENDBRANCH  19  22
ENDBRANCH   1  19
TORSDOF 3
ENDMDL
