/Users/jonathanwahrer/Desktop/Msc/3_Semester/Drug_Design_Praktikum/waehrer_HTS_screening/HTS_experiment/out/docking_results/vina_output/6s1j/2304_docked.pdbqt
 OpenBabel03222222443D

 28 31  0  0  1  0  0  0  0  0999 V2000
   16.2300  -58.8130   35.0810 N   0  0  0  0  0  0  0  0  0  0  0  0
   15.6530  -58.8090   36.3720 C   0  0  0  0  0  2  0  0  0  0  0  0
   16.1370  -57.7100   37.2810 C   0  0  0  0  0  2  0  0  0  0  0  0
   16.2510  -56.4400   36.6210 N   0  0  0  0  0  0  0  0  0  0  0  0
   16.1610  -56.4410   35.1820 C   0  0  0  0  0  2  0  0  0  0  0  0
   16.9510  -57.6510   34.6940 C   0  0  0  0  0  2  0  0  0  0  0  0
   16.4460  -55.2700   37.3730 C   0  0  0  0  0  0  0  0  0  0  0  0
   16.5220  -55.3950   38.6280 O   0  0  0  0  0  0  0  0  0  0  0  0
   16.5660  -53.9070   36.7860 C   0  0  2  0  0  3  0  0  0  0  0  0
   17.8980  -53.6130   36.4030 N   0  0  0  0  0  0  0  0  0  0  0  0
   18.7260  -53.0040   37.3920 C   0  0  2  0  0  0  0  0  0  0  0  0
   18.7500  -53.7500   35.2420 C   0  0  0  0  0  0  0  0  0  0  0  0
   17.5470  -52.0360   38.3570 S   0  0  0  0  0  0  0  0  0  0  0  0
   19.5500  -52.0230   36.5800 C   0  0  0  0  0  2  0  0  0  0  0  0
   19.5640  -53.9140   38.1980 C   0  0  0  0  0  1  0  0  0  0  0  0
   16.0340  -52.8420   37.6980 C   0  0  0  0  0  2  0  0  0  0  0  0
   19.9580  -52.9510   35.4280 C   0  0  0  0  0  2  0  0  0  0  0  0
   18.5200  -54.4430   34.2050 O   0  0  0  0  0  0  0  0  0  0  0  0
   15.3060  -59.5470   33.8620 S   0  0  0  0  0  0  0  0  0  0  0  0
   14.8930  -58.5480   32.8270 O   0  0  0  0  0  0  0  0  0  0  0  0
   16.1700  -60.5660   33.1600 O   0  0  0  0  0  0  0  0  0  0  0  0
   13.9090  -60.4190   34.4870 C   0  0  0  0  0  0  0  0  0  0  0  0
   13.9320  -61.7920   34.5920 C   0  0  0  0  0  3  0  0  0  0  0  0
   12.8580  -62.5030   35.0740 C   0  0  0  0  0  3  0  0  0  0  0  0
   11.6980  -61.8670   35.4790 C   0  0  0  0  0  0  0  0  0  0  0  0
   11.7060  -60.4870   35.3610 C   0  0  0  0  0  3  0  0  0  0  0  0
   10.3130  -62.7410   36.0970 Cl  0  0  0  0  0  0  0  0  0  0  0  0
   12.7700  -59.7640   34.8820 C   0  0  0  0  0  3  0  0  0  0  0  0
  1  2  1  0  0  0  0
  2  3  1  0  0  0  0
  4  3  1  0  0  0  0
  4  7  1  0  0  0  0
  5  4  1  0  0  0  0
  6  1  1  0  0  0  0
  6  5  1  0  0  0  0
  7  8  2  0  0  0  0
  9  7  1  1  0  0  0
  9 16  1  0  0  0  0
 10  9  1  0  0  0  0
 10 11  1  0  0  0  0
 11 15  1  1  0  0  0
 11 13  1  0  0  0  0
 12 17  1  0  0  0  0
 12 10  1  0  0  0  0
 14 11  1  0  0  0  0
 16 13  1  0  0  0  0
 17 14  1  0  0  0  0
 18 12  2  0  0  0  0
 19 22  1  0  0  0  0
 19  1  1  0  0  0  0
 20 19  2  0  0  0  0
 21 19  2  0  0  0  0
 22 23  2  0  0  0  0
 22 28  1  0  0  0  0
 23 24  1  0  0  0  0
 24 25  2  0  0  0  0
 25 27  1  0  0  0  0
 26 25  1  0  0  0  0
 28 26  2  0  0  0  0
M  END
>  <Pose>
1

>  <Score>
-8.233

$$$$
