/Users/jonathanwahrer/Desktop/Msc/3_Semester/Drug_Design_Praktikum/waehrer_HTS_screening/HTS_experiment/out/docking_results/vina_output/6s1j/2319_docked.pdbqt
 OpenBabel03222222453D

 33 36  0  0  0  0  0  0  0  0999 V2000
   15.9820  -56.6900   34.0450 N   0  0  0  0  0  0  0  0  0  0  0  0
   16.7020  -56.5560   32.8370 C   0  0  0  0  0  0  0  0  0  0  0  0
   16.4740  -57.3200   31.8760 O   0  0  0  0  0  0  0  0  0  0  0  0
   16.1200  -56.0890   34.8860 H   0  0  0  0  0  0  0  0  0  0  0  0
   17.7560  -55.5100   32.6450 C   0  0  0  0  0  2  0  0  0  0  0  0
   18.2230  -54.9810   33.8970 N   0  0  0  0  0  0  0  0  0  0  0  0
   19.4530  -54.2810   34.0280 C   0  0  0  0  0  0  0  0  0  0  0  0
   20.1560  -54.1200   33.0070 O   0  0  0  0  0  0  0  0  0  0  0  0
   17.6650  -55.0920   34.7760 H   0  0  0  0  0  0  0  0  0  0  0  0
   19.9530  -53.7280   35.3220 C   0  0  0  0  0  0  0  0  0  0  0  0
   19.3290  -54.3250   36.4210 O   0  0  0  0  0  0  0  0  0  0  0  0
   18.4180  -53.6890   37.2610 C   0  0  0  0  0  0  0  0  0  0  0  0
   18.4070  -52.3190   37.2430 C   0  0  0  0  0  0  0  0  0  0  0  0
   17.5630  -54.3660   38.0790 C   0  0  0  0  0  3  0  0  0  0  0  0
   17.5050  -51.6560   38.0760 C   0  0  0  0  0  3  0  0  0  0  0  0
   19.2670  -51.6440   36.4220 O   0  0  0  0  0  0  0  0  0  0  0  0
   16.6360  -52.3260   38.9070 C   0  0  0  0  0  3  0  0  0  0  0  0
   16.6760  -53.7070   38.8980 C   0  0  0  0  0  3  0  0  0  0  0  0
   19.9440  -52.2400   35.3500 C   0  0  0  0  0  3  0  0  0  0  0  0
   15.0190  -57.7000   34.1270 N   0  0  0  0  0  0  0  0  0  0  0  0
   14.5010  -58.0760   35.2360 C   0  0  0  0  0  0  0  0  0  0  0  0
   13.5000  -59.0970   35.5070 C   0  0  0  0  0  0  0  0  0  0  0  0
   14.8480  -57.5050   36.5420 C   0  0  0  0  0  0  0  0  0  0  0  0
   13.2260  -59.1780   36.8620 C   0  0  0  0  0  0  0  0  0  0  0  0
   12.8090  -59.9620   34.6870 C   0  0  0  0  0  3  0  0  0  0  0  0
   12.3100  -60.0740   37.3740 C   0  0  0  0  0  0  0  0  0  0  0  0
   14.0540  -58.2010   37.4830 N   0  0  0  0  0  0  0  0  0  0  0  0
   11.9440  -60.1750   39.2500 Br  0  0  0  0  0  0  0  0  0  0  0  0
   11.6250  -60.9380   36.5200 C   0  0  0  0  0  3  0  0  0  0  0  0
   11.8880  -60.8690   35.1610 C   0  0  0  0  0  0  0  0  0  0  0  0
   10.9640  -62.0430   33.9690 Br  0  0  0  0  0  0  0  0  0  0  0  0
   14.0720  -58.0240   38.5010 H   0  0  0  0  0  0  0  0  0  0  0  0
   15.6920  -56.5830   36.7040 O   0  0  0  0  0  0  0  0  0  0  0  0
  1 20  1  0  0  0  0
  1  4  1  0  0  0  0
  2  1  1  0  0  0  0
  3  2  2  0  0  0  0
  5  2  1  0  0  0  0
  5  6  1  0  0  0  0
  6  7  1  0  0  0  0
  6  9  1  0  0  0  0
  7 10  1  0  0  0  0
  8  7  2  0  0  0  0
 10 19  2  0  0  0  0
 10 11  1  0  0  0  0
 11 12  1  0  0  0  0
 12 14  1  0  0  0  0
 13 12  2  0  0  0  0
 13 15  1  0  0  0  0
 14 18  2  0  0  0  0
 15 17  2  0  0  0  0
 16 13  1  0  0  0  0
 18 17  1  0  0  0  0
 19 16  1  0  0  0  0
 20 21  2  0  0  0  0
 21 22  1  0  0  0  0
 21 23  1  0  0  0  0
 22 24  1  0  0  0  0
 23 33  2  0  0  0  0
 23 27  1  0  0  0  0
 24 26  2  0  0  0  0
 24 27  1  0  0  0  0
 25 30  1  0  0  0  0
 25 22  2  0  0  0  0
 26 28  1  0  0  0  0
 27 32  1  0  0  0  0
 29 26  1  0  0  0  0
 30 29  2  0  0  0  0
 31 30  1  0  0  0  0
M  END
>  <Pose>
1

>  <Score>
-10.223

$$$$
