MODEL 1
REMARK VINA RESULT:    -9.646      0.000      0.000
REMARK INTER + INTRA:         -14.424
REMARK INTER:                 -13.593
REMARK INTRA:                  -0.831
REMARK UNBOUND:                -0.831
REMARK  7 active torsions:
REMARK  status: ('A' for Active; 'I' for Inactive)
REMARK    1  A    between atoms: S_1  and  N_4 
REMARK    2  A    between atoms: S_1  and  C_21 
REMARK    3  A    between atoms: C_6  and  C_10 
REMARK       I    between atoms: C_10  and  N_12 
REMARK    4  A    between atoms: N_12  and  C_13 
REMARK    5  A    between atoms: C_13  and  C_14 
REMARK    6  A    between atoms: C_14  and  N_15 
REMARK       I    between atoms: N_30  and  C_31 
REMARK    7  A    between atoms: C_31  and  C_33 
ROOT
ATOM      1  N   UNK d   1      16.929 -57.474  34.203  0.00  0.00    -0.306 N 
ATOM      2  C   UNK d   1      15.576 -57.709  33.889  0.00  0.00     0.149 C 
ATOM      3  C   UNK d   1      14.631 -57.450  35.043  0.00  0.00     0.096 C 
ATOM      4  C   UNK d   1      15.242 -57.633  36.379  0.00  0.00     0.017 C 
ATOM      5  C   UNK d   1      16.520 -58.385  36.442  0.00  0.00     0.021 C 
ATOM      6  C   UNK d   1      17.474 -58.146  35.298  0.00  0.00     0.135 C 
ENDROOT
BRANCH   1   7
ATOM      7  S   UNK d   1      17.808 -56.370  33.324  0.00  0.00     0.262 S 
ATOM      8  O   UNK d   1      16.980 -55.938  32.116  0.00  0.00    -0.200 OA
ATOM      9  O   UNK d   1      18.998 -57.088  32.700  0.00  0.00    -0.200 OA
BRANCH   7  10
ATOM     10  C   UNK d   1      18.394 -54.988  34.172  0.00  0.00     0.099 A 
ATOM     11  C   UNK d   1      17.806 -54.599  35.366  0.00  0.00     0.057 A 
ATOM     12  C   UNK d   1      18.244 -53.515  36.087  0.00  0.00     0.045 A 
ATOM     13  C   UNK d   1      19.324 -52.771  35.598  0.00  0.00    -0.028 A 
ATOM     14  N   UNK d   1      17.873 -52.888  37.307  0.00  0.00    -0.317 N 
ATOM     15  C   UNK d   1      19.893 -53.159  34.429  0.00  0.00     0.030 A 
ATOM     16  C   UNK d   1      19.638 -51.646  36.520  0.00  0.00     0.061 C 
ATOM     17  C   UNK d   1      19.451 -54.253  33.705  0.00  0.00     0.035 A 
ATOM     18 Br   UNK d   1      20.337 -54.706  32.051  0.00  0.00    -0.049 Br
ATOM     19  C   UNK d   1      18.330 -51.494  37.270  0.00  0.00     0.137 C 
ATOM     20  C   UNK d   1      17.195 -53.442  38.390  0.00  0.00     0.224 C 
ATOM     21  O   UNK d   1      16.986 -52.736  39.436  0.00  0.00    -0.273 OA
BRANCH  20  22
ATOM     22  C   UNK d   1      16.689 -54.813  38.425  0.00  0.00     0.099 C 
ATOM     23  C   UNK d   1      15.207 -54.867  38.788  0.00  0.00     0.014 C 
ENDBRANCH  20  22
ENDBRANCH   7  10
ENDBRANCH   1   7
BRANCH   3  24
ATOM     24  C   UNK d   1      13.407 -58.282  34.922  0.00  0.00     0.223 C 
ATOM     25  O   UNK d   1      12.836 -58.332  33.805  0.00  0.00    -0.273 OA
ATOM     26  N   UNK d   1      12.899 -59.008  36.064  0.00  0.00    -0.359 N 
ATOM     27  H   UNK d   1      13.434 -58.891  36.928  0.00  0.00     0.162 HD
BRANCH  26  28
ATOM     28  C   UNK d   1      11.727 -59.783  35.875  0.00  0.00     0.142 C 
BRANCH  28  29
ATOM     29  C   UNK d   1      11.140 -60.492  37.036  0.00  0.00     0.136 C 
BRANCH  29  30
ATOM     30  N   UNK d   1      11.115 -59.851  38.298  0.00  0.00    -0.407 N 
ATOM     31  C   UNK d   1      11.958 -60.324  39.297  0.00  0.00     0.143 C 
ATOM     32  C   UNK d   1      11.300 -60.940  40.497  0.00  0.00     0.187 C 
ATOM     33  O   UNK d   1      10.157 -60.259  40.887  0.00  0.00    -0.388 OA
ATOM     34  C   UNK d   1       9.251 -60.372  39.832  0.00  0.00     0.187 C 
ATOM     35  C   UNK d   1       9.775 -59.505  38.711  0.00  0.00     0.143 C 
ENDBRANCH  29  30
ENDBRANCH  28  29
ENDBRANCH  26  28
ENDBRANCH   3  24
TORSDOF 7
ENDMDL
