MODEL 1
REMARK VINA RESULT:    -9.123      0.000      0.000
REMARK INTER + INTRA:         -10.697
REMARK INTER:                 -10.723
REMARK INTRA:                   0.026
REMARK UNBOUND:                 0.026
REMARK  3 active torsions:
REMARK  status: ('A' for Active; 'I' for Inactive)
REMARK    1  A    between atoms: C_5  and  N_8 
REMARK    2  A    between atoms: C_10  and  C_14 
REMARK       I    between atoms: C_14  and  N_16 
REMARK    3  A    between atoms: N_19  and  C_22 
ROOT
ATOM      1  C   UNK d   1      19.566 -52.245  36.070  0.00  0.00     0.226 C 
ATOM      2  O   UNK d   1      19.678 -51.088  35.516  0.00  0.00    -0.273 OA
ATOM      3  N   UNK d   1      19.916 -53.344  35.279  0.00  0.00    -0.349 N 
ATOM      4  C   UNK d   1      20.366 -53.148  33.910  0.00  0.00     0.146 C 
ATOM      5  C   UNK d   1      19.485 -53.930  32.940  0.00  0.00     0.161 C 
ATOM      6  N   UNK d   1      19.074 -55.152  33.566  0.00  0.00    -0.213 N 
ATOM      7  C   UNK d   1      19.902 -55.713  34.590  0.00  0.00     0.161 C 
ATOM      8  C   UNK d   1      19.860 -54.705  35.756  0.00  0.00     0.146 C 
ENDROOT
BRANCH   1   9
ATOM      9  C   UNK d   1      19.084 -52.270  37.456  0.00  0.00     0.105 C 
ATOM     10  C   UNK d   1      18.791 -53.640  38.002  0.00  0.00     0.146 C 
ATOM     11  N   UNK d   1      17.349 -53.703  38.205  0.00  0.00    -0.317 N 
ATOM     12  C   UNK d   1      16.933 -52.334  38.403  0.00  0.00     0.225 C 
ATOM     13  C   UNK d   1      17.894 -51.418  37.745  0.00  0.00     0.119 C 
ATOM     14  O   UNK d   1      15.876 -52.065  39.062  0.00  0.00    -0.273 OA
BRANCH  11  15
ATOM     15  C   UNK d   1      16.510 -54.853  38.212  0.00  0.00     0.037 A 
ATOM     16  C   UNK d   1      15.540 -55.051  39.172  0.00  0.00     0.031 A 
ATOM     17  C   UNK d   1      14.727 -56.169  39.184  0.00  0.00     0.026 A 
ATOM     18  C   UNK d   1      14.865 -57.132  38.220  0.00  0.00     0.034 A 
ATOM     19 Cl   UNK d   1      13.836 -58.564  38.221  0.00  0.00    -0.084 Cl
ATOM     20  C   UNK d   1      15.817 -56.968  37.253  0.00  0.00     0.026 A 
ATOM     21  C   UNK d   1      16.638 -55.831  37.249  0.00  0.00     0.031 A 
ENDBRANCH  11  15
ENDBRANCH   1   9
BRANCH   6  22
ATOM     22  C   UNK d   1      17.874 -55.792  33.190  0.00  0.00     0.704 A 
ATOM     23  N   UNK d   1      17.720 -56.720  32.206  0.00  0.00    -0.195 N 
ATOM     24  C   UNK d   1      16.434 -57.094  32.157  0.00  0.00     0.128 A 
ATOM     25  C   UNK d   1      18.791 -57.226  31.338  0.00  0.00     0.175 C 
ATOM     26  C   UNK d   1      15.747 -56.396  33.122  0.00  0.00     0.154 A 
ATOM     27  N   UNK d   1      16.644 -55.629  33.716  0.00  0.00    -0.075 NA
ENDBRANCH   6  22
TORSDOF 3
ENDMDL
