MODEL 1
REMARK VINA RESULT:    -8.651      0.000      0.000
REMARK INTER + INTRA:          -9.404
REMARK INTER:                  -9.157
REMARK INTRA:                  -0.247
REMARK UNBOUND:                -0.247
REMARK  1 active torsions:
REMARK  status: ('A' for Active; 'I' for Inactive)
REMARK    1  A    between atoms: C_5  and  N_8 
ROOT
ATOM      1  N   UNK d   1      15.907 -60.181  32.871  0.00  0.00    -0.231 N 
ATOM      2  C   UNK d   1      14.481 -60.337  32.824  0.00  0.00     0.357 A 
ATOM      3  O   UNK d   1      14.002 -61.414  32.369  0.00  0.00    -0.244 OA
ATOM      4  N   UNK d   1      13.704 -59.253  33.301  0.00  0.00    -0.169 NA
ATOM      5  C   UNK d   1      14.164 -58.170  33.750  0.00  0.00     0.202 A 
ATOM      6  C   UNK d   1      15.620 -57.814  33.860  0.00  0.00     0.140 A 
ATOM      7  C   UNK d   1      15.804 -56.675  32.898  0.00  0.00     0.269 C 
ATOM      8  N   UNK d   1      16.882 -55.794  33.130  0.00  0.00    -0.043 N 
ATOM      9  C   UNK d   1      17.127 -55.449  34.480  0.00  0.00     0.140 A 
ATOM     10  C   UNK d   1      16.655 -56.236  35.481  0.00  0.00    -0.021 A 
ATOM     11  C   UNK d   1      16.917 -55.864  36.797  0.00  0.00     0.016 A 
ATOM     12  C   UNK d   1      17.640 -54.717  37.058  0.00  0.00    -0.061 A 
ATOM     13  C   UNK d   1      18.121 -53.914  36.035  0.00  0.00     0.009 A 
ATOM     14  C   UNK d   1      17.851 -54.298  34.722  0.00  0.00     0.038 A 
ATOM     15  C   UNK d   1      17.929 -54.285  38.462  0.00  0.00     0.048 C 
ATOM     16  C   UNK d   1      15.878 -57.478  35.279  0.00  0.00     0.070 C 
ATOM     17  C   UNK d   1      18.134 -56.153  32.482  0.00  0.00     0.276 C 
ATOM     18  C   UNK d   1      16.423 -58.971  33.395  0.00  0.00     0.251 A 
ATOM     19  O   UNK d   1      17.705 -58.935  33.450  0.00  0.00    -0.271 OA
ATOM     20  O   UNK d   1      13.291 -57.163  34.204  0.00  0.00    -0.173 OA
ATOM     21  H   UNK d   1      16.620 -54.865  32.669  0.00  0.00     0.286 HD
ENDROOT
BRANCH   1  22
ATOM     22  C   UNK d   1      16.690 -61.240  32.357  0.00  0.00     0.047 A 
ATOM     23  C   UNK d   1      17.204 -61.208  31.059  0.00  0.00     0.032 A 
ATOM     24  C   UNK d   1      17.970 -62.218  30.542  0.00  0.00     0.026 A 
ATOM     25  C   UNK d   1      18.285 -63.352  31.291  0.00  0.00     0.034 A 
ATOM     26 Cl   UNK d   1      19.276 -64.628  30.610  0.00  0.00    -0.084 Cl
ATOM     27  C   UNK d   1      17.777 -63.385  32.575  0.00  0.00     0.026 A 
ATOM     28  C   UNK d   1      17.008 -62.370  33.092  0.00  0.00     0.032 A 
ENDBRANCH   1  22
TORSDOF 1
ENDMDL
