/Users/jonathanwahrer/Desktop/Msc/3_Semester/Drug_Design_Praktikum/waehrer_HTS_screening/HTS_experiment/out/docking_results/vina_output/6s1j/2349_docked.pdbqt
 OpenBabel03222222463D

 28 31  0  0  1  0  0  0  0  0999 V2000
   15.9070  -60.1810   32.8710 N   0  0  0  0  0  0  0  0  0  0  0  0
   14.4810  -60.3370   32.8240 C   0  0  0  0  0  0  0  0  0  0  0  0
   14.0020  -61.4140   32.3690 O   0  0  0  0  0  0  0  0  0  0  0  0
   13.7040  -59.2530   33.3010 N   0  0  0  0  0  2  0  0  0  0  0  0
   14.1640  -58.1700   33.7500 C   0  0  0  0  0  0  0  0  0  0  0  0
   15.6200  -57.8140   33.8600 C   0  0  1  0  0  0  0  0  0  0  0  0
   15.8040  -56.6750   32.8980 C   0  0  0  0  0  2  0  0  0  0  0  0
   16.8820  -55.7940   33.1300 N   0  0  0  0  0  4  0  0  0  0  0  0
   17.1270  -55.4490   34.4800 C   0  0  0  0  0  0  0  0  0  0  0  0
   16.6550  -56.2360   35.4810 C   0  0  0  0  0  0  0  0  0  0  0  0
   16.9170  -55.8640   36.7970 C   0  0  0  0  0  3  0  0  0  0  0  0
   17.6400  -54.7170   37.0580 C   0  0  0  0  0  0  0  0  0  0  0  0
   18.1210  -53.9140   36.0350 C   0  0  0  0  0  3  0  0  0  0  0  0
   17.8510  -54.2980   34.7220 C   0  0  0  0  0  3  0  0  0  0  0  0
   17.9290  -54.2850   38.4620 C   0  0  0  0  0  1  0  0  0  0  0  0
   15.8780  -57.4780   35.2790 C   0  0  0  0  0  2  0  0  0  0  0  0
   18.1340  -56.1530   32.4820 C   0  0  0  0  0  1  0  0  0  0  0  0
   16.4230  -58.9710   33.3950 C   0  0  0  0  0  0  0  0  0  0  0  0
   17.7050  -58.9350   33.4500 O   0  0  0  0  0  0  0  0  0  0  0  0
   13.2910  -57.1630   34.2040 O   0  0  0  0  0  0  0  0  0  0  0  0
   16.6200  -54.8650   32.6690 H   0  0  0  0  0  0  0  0  0  0  0  0
   16.6900  -61.2400   32.3570 C   0  0  0  0  0  0  0  0  0  0  0  0
   17.2040  -61.2080   31.0590 C   0  0  0  0  0  3  0  0  0  0  0  0
   17.9700  -62.2180   30.5420 C   0  0  0  0  0  3  0  0  0  0  0  0
   18.2850  -63.3520   31.2910 C   0  0  0  0  0  0  0  0  0  0  0  0
   19.2760  -64.6280   30.6100 Cl  0  0  0  0  0  0  0  0  0  0  0  0
   17.7770  -63.3850   32.5750 C   0  0  0  0  0  3  0  0  0  0  0  0
   17.0080  -62.3700   33.0920 C   0  0  0  0  0  3  0  0  0  0  0  0
  1 18  1  0  0  0  0
  2  1  1  0  0  0  0
  2  4  1  0  0  0  0
  3  2  2  0  0  0  0
  4  5  1  0  0  0  0
  5  6  1  0  0  0  0
  5 20  2  0  0  0  0
  6  7  1  6  0  0  0
  6 16  1  0  0  0  0
  7  8  1  0  0  0  0
  8  9  1  0  0  0  0
  9 14  2  0  0  0  0
  9 10  1  0  0  0  0
 10 11  2  0  0  0  0
 11 12  1  0  0  0  0
 12 15  1  0  0  0  0
 13 12  2  0  0  0  0
 14 13  1  0  0  0  0
 16 10  1  0  0  0  0
 17  8  1  0  0  0  0
 18 19  2  0  0  0  0
 18  6  1  0  0  0  0
 21  8  1  0  0  0  0
 22  1  1  0  0  0  0
 22 28  1  0  0  0  0
 23 22  2  0  0  0  0
 24 23  1  0  0  0  0
 24 25  2  0  0  0  0
 25 27  1  0  0  0  0
 26 25  1  0  0  0  0
 27 28  2  0  0  0  0
M  END
>  <Pose>
1

>  <Score>
-8.651

$$$$
