MODEL 1
REMARK VINA RESULT:    -8.022      0.000      0.000
REMARK INTER + INTRA:          -9.482
REMARK INTER:                  -8.960
REMARK INTRA:                  -0.522
REMARK UNBOUND:                -0.522
REMARK  3 active torsions:
REMARK  status: ('A' for Active; 'I' for Inactive)
REMARK    1  A    between atoms: C_5  and  N_8 
REMARK    2  A    between atoms: C_13  and  O_21 
REMARK    3  A    between atoms: C_14  and  O_20 
ROOT
ATOM      1  N   UNK d   1      17.541 -56.906  33.827  0.00  0.00    -0.252 N 
ATOM      2  C   UNK d   1      16.693 -57.030  32.673  0.00  0.00     0.236 C 
ATOM      3  O   UNK d   1      15.625 -56.385  32.528  0.00  0.00    -0.272 OA
ATOM      4  C   UNK d   1      17.257 -58.009  31.710  0.00  0.00     0.099 C 
ATOM      5  C   UNK d   1      17.650 -57.407  30.400  0.00  0.00     0.031 C 
ATOM      6  C   UNK d   1      18.063 -55.974  30.667  0.00  0.00     0.152 C 
ATOM      7  C   UNK d   1      19.313 -56.174  31.522  0.00  0.00     0.152 C 
ATOM      8  C   UNK d   1      19.572 -57.663  31.541  0.00  0.00     0.031 C 
ATOM      9  C   UNK d   1      18.581 -58.426  32.363  0.00  0.00     0.099 C 
ATOM     10  C   UNK d   1      18.477 -57.970  33.770  0.00  0.00     0.236 C 
ATOM     11  O   UNK d   1      19.124 -58.467  34.725  0.00  0.00    -0.272 OA
ATOM     12  C   UNK d   1      19.040 -58.006  30.131  0.00  0.00     0.016 C 
ENDROOT
BRANCH   1  13
ATOM     13  C   UNK d   1      17.503 -55.928  34.857  0.00  0.00     0.045 A 
ATOM     14  C   UNK d   1      18.041 -54.652  34.647  0.00  0.00     0.032 A 
ATOM     15  C   UNK d   1      18.014 -53.706  35.643  0.00  0.00     0.026 A 
ATOM     16  C   UNK d   1      17.459 -53.975  36.880  0.00  0.00     0.034 A 
ATOM     17 Cl   UNK d   1      17.443 -52.743  38.140  0.00  0.00    -0.084 Cl
ATOM     18  C   UNK d   1      16.920 -55.233  37.113  0.00  0.00     0.026 A 
ATOM     19  C   UNK d   1      16.960 -56.160  36.099  0.00  0.00     0.032 A 
ENDBRANCH   1  13
BRANCH   6  20
ATOM     20  O   UNK d   1      18.461 -55.420  29.470  0.00  0.00    -0.393 OA
ATOM     21  H   UNK d   1      19.112 -54.684  29.546  0.00  0.00     0.210 HD
ENDBRANCH   6  20
BRANCH   7  22
ATOM     22  O   UNK d   1      20.428 -55.597  30.917  0.00  0.00    -0.393 OA
ATOM     23  H   UNK d   1      20.536 -54.680  31.309  0.00  0.00     0.210 HD
ENDBRANCH   7  22
TORSDOF 3
ENDMDL
