/Users/jonathanwahrer/Desktop/Msc/3_Semester/Drug_Design_Praktikum/waehrer_HTS_screening/HTS_experiment/out/docking_results/vina_output/6s1j/2350_docked.pdbqt
 OpenBabel03222222463D

 23 26  0  0  1  0  0  0  0  0999 V2000
   17.5410  -56.9060   33.8270 N   0  0  0  0  0  0  0  0  0  0  0  0
   16.6930  -57.0300   32.6730 C   0  0  0  0  0  0  0  0  0  0  0  0
   15.6250  -56.3850   32.5280 O   0  0  0  0  0  0  0  0  0  0  0  0
   17.2570  -58.0090   31.7100 C   0  0  1  0  0  3  0  0  0  0  0  0
   17.6500  -57.4070   30.4000 C   0  0  1  0  0  3  0  0  0  0  0  0
   18.0630  -55.9740   30.6670 C   0  0  1  0  0  3  0  0  0  0  0  0
   19.3130  -56.1740   31.5220 C   0  0  1  0  0  3  0  0  0  0  0  0
   19.5720  -57.6630   31.5410 C   0  0  1  0  0  3  0  0  0  0  0  0
   18.5810  -58.4260   32.3630 C   0  0  1  0  0  3  0  0  0  0  0  0
   18.4770  -57.9700   33.7700 C   0  0  0  0  0  0  0  0  0  0  0  0
   19.1240  -58.4670   34.7250 O   0  0  0  0  0  0  0  0  0  0  0  0
   19.0400  -58.0060   30.1310 C   0  0  0  0  0  2  0  0  0  0  0  0
   17.5030  -55.9280   34.8570 C   0  0  0  0  0  0  0  0  0  0  0  0
   18.0410  -54.6520   34.6470 C   0  0  0  0  0  3  0  0  0  0  0  0
   18.0140  -53.7060   35.6430 C   0  0  0  0  0  3  0  0  0  0  0  0
   17.4590  -53.9750   36.8800 C   0  0  0  0  0  0  0  0  0  0  0  0
   17.4430  -52.7430   38.1400 Cl  0  0  0  0  0  0  0  0  0  0  0  0
   16.9200  -55.2330   37.1130 C   0  0  0  0  0  3  0  0  0  0  0  0
   16.9600  -56.1600   36.0990 C   0  0  0  0  0  3  0  0  0  0  0  0
   18.4610  -55.4200   29.4700 O   0  0  0  0  0  0  0  0  0  0  0  0
   19.1120  -54.6840   29.5460 H   0  0  0  0  0  0  0  0  0  0  0  0
   20.4280  -55.5970   30.9170 O   0  0  0  0  0  0  0  0  0  0  0  0
   20.5360  -54.6800   31.3090 H   0  0  0  0  0  0  0  0  0  0  0  0
  1 13  1  0  0  0  0
  2  1  1  0  0  0  0
  3  2  2  0  0  0  0
  4  9  1  0  0  0  0
  4  2  1  1  0  0  0
  5 12  1  1  0  0  0
  5  6  1  0  0  0  0
  5  4  1  0  0  0  0
  6 20  1  6  0  0  0
  6  7  1  0  0  0  0
  7 22  1  6  0  0  0
  7  8  1  0  0  0  0
  8 12  1  6  0  0  0
  8  9  1  0  0  0  0
  9 10  1  1  0  0  0
 10  1  1  0  0  0  0
 10 11  2  0  0  0  0
 13 19  1  0  0  0  0
 14 13  2  0  0  0  0
 14 15  1  0  0  0  0
 15 16  2  0  0  0  0
 16 18  1  0  0  0  0
 16 17  1  0  0  0  0
 19 18  2  0  0  0  0
 20 21  1  0  0  0  0
 22 23  1  0  0  0  0
M  END
>  <Pose>
1

>  <Score>
-8.022

$$$$
