MODEL 1
REMARK VINA RESULT:    -9.650      0.000      0.000
REMARK INTER + INTRA:         -13.553
REMARK INTER:                 -12.753
REMARK INTRA:                  -0.799
REMARK UNBOUND:                -0.799
REMARK  6 active torsions:
REMARK  status: ('A' for Active; 'I' for Inactive)
REMARK    1  A    between atoms: C_5  and  N_8 
REMARK    2  A    between atoms: C_14  and  C_17 
REMARK    3  A    between atoms: C_19  and  C_22 
REMARK    4  A    between atoms: C_24  and  O_31 
REMARK    5  A    between atoms: C_25  and  O_30 
REMARK    6  A    between atoms: C_26  and  O_28 
ROOT
ATOM      1  C   UNK d   1      15.367 -58.827  33.796  0.00  0.00     0.041 C 
ATOM      2  C   UNK d   1      14.529 -59.780  34.156  0.00  0.00     0.026 C 
ATOM      3  C   UNK d   1      13.161 -59.223  34.305  0.00  0.00     0.134 C 
ATOM      4  N   UNK d   1      13.236 -57.997  33.561  0.00  0.00    -0.228 NA
ATOM      5  N   UNK d   1      14.587 -57.641  33.691  0.00  0.00    -0.323 N 
ATOM      6  H   UNK d   1      12.582 -57.270  33.849  0.00  0.00     0.147 HD
ATOM      7  H   UNK d   1      14.942 -56.664  33.705  0.00  0.00     0.180 HD
ENDROOT
BRANCH   1   8
ATOM      8  C   UNK d   1      16.844 -58.946  33.537  0.00  0.00     0.221 C 
ATOM      9  C   UNK d   1      17.124 -58.814  32.089  0.00  0.00     0.244 C 
ATOM     10  N   UNK d   1      17.339 -57.534  31.529  0.00  0.00    -0.277 N 
ATOM     11  O   UNK d   1      17.166 -59.835  31.377  0.00  0.00    -0.272 OA
ATOM     12  C   UNK d   1      17.645 -56.439  32.342  0.00  0.00     0.336 C 
ATOM     13  H   UNK d   1      17.277 -57.369  30.482  0.00  0.00     0.173 HD
ATOM     14  N   UNK d   1      17.747 -56.584  33.752  0.00  0.00    -0.233 N 
ATOM     15  O   UNK d   1      17.845 -55.269  31.862  0.00  0.00    -0.246 OA
ATOM     16  C   UNK d   1      17.527 -57.875  34.300  0.00  0.00     0.251 C 
ATOM     17  O   UNK d   1      17.918 -58.122  35.454  0.00  0.00    -0.271 OA
BRANCH  14  18
ATOM     18  C   UNK d   1      18.058 -55.458  34.561  0.00  0.00     0.047 A 
ATOM     19  C   UNK d   1      17.062 -54.759  35.193  0.00  0.00     0.032 A 
ATOM     20  C   UNK d   1      17.332 -53.664  35.989  0.00  0.00     0.026 A 
ATOM     21  C   UNK d   1      18.627 -53.244  36.167  0.00  0.00     0.034 A 
ATOM     22 Cl   UNK d   1      18.997 -51.844  37.182  0.00  0.00    -0.084 Cl
ATOM     23  C   UNK d   1      19.641 -53.931  35.543  0.00  0.00     0.026 A 
ATOM     24  C   UNK d   1      19.347 -55.041  34.740  0.00  0.00     0.032 A 
ENDBRANCH  14  18
ENDBRANCH   1   8
BRANCH   3  25
ATOM     25  C   UNK d   1      12.875 -59.059  35.725  0.00  0.00    -0.030 A 
ATOM     26  C   UNK d   1      11.757 -59.674  36.246  0.00  0.00     0.049 A 
ATOM     27  C   UNK d   1      11.403 -59.582  37.577  0.00  0.00     0.104 A 
ATOM     28  C   UNK d   1      12.227 -58.825  38.420  0.00  0.00     0.133 A 
ATOM     29  C   UNK d   1      13.354 -58.190  37.946  0.00  0.00     0.104 A 
ATOM     30  C   UNK d   1      13.646 -58.327  36.603  0.00  0.00     0.049 A 
BRANCH  27  31
ATOM     31  O   UNK d   1      10.279 -60.199  38.111  0.00  0.00    -0.353 OA
ATOM     32  C   UNK d   1      10.253 -61.612  38.082  0.00  0.00     0.210 C 
ENDBRANCH  27  31
BRANCH  28  33
ATOM     33  O   UNK d   1      11.915 -58.703  39.755  0.00  0.00    -0.356 OA
ATOM     34  H   UNK d   1      11.151 -58.107  40.041  0.00  0.00     0.218 HD
ENDBRANCH  28  33
BRANCH  29  35
ATOM     35  O   UNK d   1      14.121 -57.465  38.808  0.00  0.00    -0.353 OA
ATOM     36  C   UNK d   1      14.319 -56.081  38.788  0.00  0.00     0.210 C 
ENDBRANCH  29  35
ENDBRANCH   3  25
TORSDOF 6
ENDMDL
