/Users/jonathanwahrer/Desktop/Msc/3_Semester/Drug_Design_Praktikum/waehrer_HTS_screening/HTS_experiment/out/docking_results/vina_output/6s1j/2357_docked.pdbqt
 OpenBabel03222222473D

 36 39  0  0  1  0  0  0  0  0999 V2000
   15.3670  -58.8270   33.7960 C   0  0  2  0  0  3  0  0  0  0  0  0
   14.5290  -59.7800   34.1560 C   0  0  0  0  0  2  0  0  0  0  0  0
   13.1610  -59.2230   34.3050 C   0  0  2  0  0  3  0  0  0  0  0  0
   13.2360  -57.9970   33.5610 N   0  0  0  0  0  0  0  0  0  0  0  0
   14.5870  -57.6410   33.6910 N   0  0  0  0  0  0  0  0  0  0  0  0
   12.5820  -57.2700   33.8490 H   0  0  0  0  0  0  0  0  0  0  0  0
   14.9420  -56.6640   33.7050 H   0  0  0  0  0  0  0  0  0  0  0  0
   16.8440  -58.9460   33.5370 C   0  0  1  0  0  3  0  0  0  0  0  0
   17.1240  -58.8140   32.0890 C   0  0  0  0  0  0  0  0  0  0  0  0
   17.3390  -57.5340   31.5290 N   0  0  0  0  0  0  0  0  0  0  0  0
   17.1660  -59.8350   31.3770 O   0  0  0  0  0  0  0  0  0  0  0  0
   17.6450  -56.4390   32.3420 C   0  0  0  0  0  0  0  0  0  0  0  0
   17.2770  -57.3690   30.4820 H   0  0  0  0  0  0  0  0  0  0  0  0
   17.7470  -56.5840   33.7520 N   0  0  0  0  0  0  0  0  0  0  0  0
   17.8450  -55.2690   31.8620 O   0  0  0  0  0  0  0  0  0  0  0  0
   17.5270  -57.8750   34.3000 C   0  0  0  0  0  0  0  0  0  0  0  0
   17.9180  -58.1220   35.4540 O   0  0  0  0  0  0  0  0  0  0  0  0
   18.0580  -55.4580   34.5610 C   0  0  0  0  0  0  0  0  0  0  0  0
   17.0620  -54.7590   35.1930 C   0  0  0  0  0  3  0  0  0  0  0  0
   17.3320  -53.6640   35.9890 C   0  0  0  0  0  3  0  0  0  0  0  0
   18.6270  -53.2440   36.1670 C   0  0  0  0  0  0  0  0  0  0  0  0
   18.9970  -51.8440   37.1820 Cl  0  0  0  0  0  0  0  0  0  0  0  0
   19.6410  -53.9310   35.5430 C   0  0  0  0  0  3  0  0  0  0  0  0
   19.3470  -55.0410   34.7400 C   0  0  0  0  0  3  0  0  0  0  0  0
   12.8750  -59.0590   35.7250 C   0  0  0  0  0  0  0  0  0  0  0  0
   11.7570  -59.6740   36.2460 C   0  0  0  0  0  3  0  0  0  0  0  0
   11.4030  -59.5820   37.5770 C   0  0  0  0  0  0  0  0  0  0  0  0
   12.2270  -58.8250   38.4200 C   0  0  0  0  0  0  0  0  0  0  0  0
   13.3540  -58.1900   37.9460 C   0  0  0  0  0  0  0  0  0  0  0  0
   13.6460  -58.3270   36.6030 C   0  0  0  0  0  3  0  0  0  0  0  0
   10.2790  -60.1990   38.1110 O   0  0  0  0  0  0  0  0  0  0  0  0
   10.2530  -61.6120   38.0820 C   0  0  0  0  0  1  0  0  0  0  0  0
   11.9150  -58.7030   39.7550 O   0  0  0  0  0  0  0  0  0  0  0  0
   11.1510  -58.1070   40.0410 H   0  0  0  0  0  0  0  0  0  0  0  0
   14.1210  -57.4650   38.8080 O   0  0  0  0  0  0  0  0  0  0  0  0
   14.3190  -56.0810   38.7880 C   0  0  0  0  0  1  0  0  0  0  0  0
  1  2  1  6  0  0  0
  2  3  1  0  0  0  0
  3 25  1  1  0  0  0
  4  5  1  0  0  0  0
  4  6  1  0  0  0  0
  4  3  1  0  0  0  0
  5  7  1  0  0  0  0
  5  1  1  0  0  0  0
  8  9  1  6  0  0  0
  8  1  1  0  0  0  0
  8 16  1  0  0  0  0
 10  9  1  0  0  0  0
 10 12  1  0  0  0  0
 11  9  2  0  0  0  0
 12 14  1  0  0  0  0
 13 10  1  0  0  0  0
 14 16  1  0  0  0  0
 14 18  1  0  0  0  0
 15 12  2  0  0  0  0
 16 17  2  0  0  0  0
 18 24  2  0  0  0  0
 18 19  1  0  0  0  0
 19 20  2  0  0  0  0
 20 21  1  0  0  0  0
 21 22  1  0  0  0  0
 23 21  2  0  0  0  0
 24 23  1  0  0  0  0
 25 26  2  0  0  0  0
 25 30  1  0  0  0  0
 26 27  1  0  0  0  0
 27 31  1  0  0  0  0
 27 28  2  0  0  0  0
 28 33  1  0  0  0  0
 29 28  1  0  0  0  0
 29 35  1  0  0  0  0
 30 29  2  0  0  0  0
 32 31  1  0  0  0  0
 33 34  1  0  0  0  0
 36 35  1  0  0  0  0
M  END
>  <Pose>
1

>  <Score>
-9.650

$$$$
