MODEL 1
REMARK VINA RESULT:   -10.310      0.000      0.000
REMARK INTER + INTRA:         -13.925
REMARK INTER:                 -13.022
REMARK INTRA:                  -0.903
REMARK UNBOUND:                -0.903
REMARK  5 active torsions:
REMARK  status: ('A' for Active; 'I' for Inactive)
REMARK    1  A    between atoms: C_5  and  N_8 
REMARK    2  A    between atoms: C_14  and  C_17 
REMARK    3  A    between atoms: C_19  and  C_22 
REMARK    4  A    between atoms: C_24  and  O_30 
REMARK    5  A    between atoms: C_25  and  O_28 
ROOT
ATOM      1  N   UNK d   1      15.207 -57.877  34.570  0.00  0.00    -0.233 N 
ATOM      2  C   UNK d   1      13.805 -58.027  34.391  0.00  0.00     0.336 C 
ATOM      3  O   UNK d   1      13.321 -57.798  33.244  0.00  0.00    -0.246 OA
ATOM      4  N   UNK d   1      12.961 -58.418  35.455  0.00  0.00    -0.277 N 
ATOM      5  C   UNK d   1      13.494 -58.675  36.739  0.00  0.00     0.244 C 
ATOM      6  O   UNK d   1      12.782 -59.201  37.664  0.00  0.00    -0.272 OA
ATOM      7  C   UNK d   1      14.882 -58.354  37.070  0.00  0.00     0.221 C 
ATOM      8  C   UNK d   1      15.707 -58.143  35.873  0.00  0.00     0.251 C 
ATOM      9  O   UNK d   1      16.981 -58.197  35.975  0.00  0.00    -0.271 OA
ATOM     10  H   UNK d   1      11.924 -58.523  35.301  0.00  0.00     0.173 HD
ENDROOT
BRANCH   7  11
ATOM     11  C   UNK d   1      14.935 -57.190  38.003  0.00  0.00     0.041 C 
ATOM     12  C   UNK d   1      15.813 -56.942  38.938  0.00  0.00     0.026 C 
ATOM     13  C   UNK d   1      15.421 -55.663  39.580  0.00  0.00     0.134 C 
ATOM     14  N   UNK d   1      14.034 -55.494  39.202  0.00  0.00    -0.228 NA
ATOM     15  N   UNK d   1      13.962 -56.151  37.969  0.00  0.00    -0.323 N 
ATOM     16  H   UNK d   1      13.389 -55.924  39.907  0.00  0.00     0.147 HD
ATOM     17  H   UNK d   1      13.295 -55.881  37.200  0.00  0.00     0.180 HD
BRANCH  13  18
ATOM     18  C   UNK d   1      16.241 -54.538  39.053  0.00  0.00    -0.032 A 
ATOM     19  C   UNK d   1      17.583 -54.670  38.780  0.00  0.00     0.048 A 
ATOM     20  C   UNK d   1      18.353 -53.631  38.291  0.00  0.00     0.099 A 
ATOM     21  C   UNK d   1      17.781 -52.401  38.059  0.00  0.00     0.101 A 
ATOM     22  C   UNK d   1      16.442 -52.249  38.325  0.00  0.00     0.040 A 
ATOM     23  C   UNK d   1      15.684 -53.290  38.811  0.00  0.00     0.012 A 
BRANCH  20  24
ATOM     24  O   UNK d   1      19.697 -53.825  38.036  0.00  0.00    -0.358 OA
ATOM     25  H   UNK d   1      20.060 -53.787  37.104  0.00  0.00     0.217 HD
ENDBRANCH  20  24
BRANCH  21  26
ATOM     26  O   UNK d   1      18.531 -51.350  37.572  0.00  0.00    -0.353 OA
ATOM     27  C   UNK d   1      19.273 -51.515  36.385  0.00  0.00     0.210 C 
ENDBRANCH  21  26
ENDBRANCH  13  18
ENDBRANCH   7  11
BRANCH   1  28
ATOM     28  C   UNK d   1      16.081 -57.488  33.519  0.00  0.00     0.047 A 
ATOM     29  C   UNK d   1      16.630 -58.410  32.636  0.00  0.00     0.032 A 
ATOM     30  C   UNK d   1      17.467 -58.042  31.627  0.00  0.00     0.026 A 
ATOM     31  C   UNK d   1      17.795 -56.705  31.461  0.00  0.00     0.034 A 
ATOM     32 Cl   UNK d   1      18.869 -56.190  30.173  0.00  0.00    -0.084 Cl
ATOM     33  C   UNK d   1      17.266 -55.759  32.323  0.00  0.00     0.026 A 
ATOM     34  C   UNK d   1      16.409 -56.161  33.350  0.00  0.00     0.032 A 
ENDBRANCH   1  28
TORSDOF 5
ENDMDL
