/Users/jonathanwahrer/Desktop/Msc/3_Semester/Drug_Design_Praktikum/waehrer_HTS_screening/HTS_experiment/out/docking_results/vina_output/6s1j/2358_docked.pdbqt
 OpenBabel03222222473D

 34 37  0  0  1  0  0  0  0  0999 V2000
   15.2070  -57.8770   34.5700 N   0  0  0  0  0  0  0  0  0  0  0  0
   13.8050  -58.0270   34.3910 C   0  0  0  0  0  0  0  0  0  0  0  0
   13.3210  -57.7980   33.2440 O   0  0  0  0  0  0  0  0  0  0  0  0
   12.9610  -58.4180   35.4550 N   0  0  0  0  0  0  0  0  0  0  0  0
   13.4940  -58.6750   36.7390 C   0  0  0  0  0  0  0  0  0  0  0  0
   12.7820  -59.2010   37.6640 O   0  0  0  0  0  0  0  0  0  0  0  0
   14.8820  -58.3540   37.0700 C   0  0  1  0  0  3  0  0  0  0  0  0
   15.7070  -58.1430   35.8730 C   0  0  0  0  0  0  0  0  0  0  0  0
   16.9810  -58.1970   35.9750 O   0  0  0  0  0  0  0  0  0  0  0  0
   11.9240  -58.5230   35.3010 H   0  0  0  0  0  0  0  0  0  0  0  0
   14.9350  -57.1900   38.0030 C   0  0  1  0  0  3  0  0  0  0  0  0
   15.8130  -56.9420   38.9380 C   0  0  0  0  0  2  0  0  0  0  0  0
   15.4210  -55.6630   39.5800 C   0  0  2  0  0  3  0  0  0  0  0  0
   14.0340  -55.4940   39.2020 N   0  0  0  0  0  0  0  0  0  0  0  0
   13.9620  -56.1510   37.9690 N   0  0  0  0  0  0  0  0  0  0  0  0
   13.3890  -55.9240   39.9070 H   0  0  0  0  0  0  0  0  0  0  0  0
   13.2950  -55.8810   37.2000 H   0  0  0  0  0  0  0  0  0  0  0  0
   16.2410  -54.5380   39.0530 C   0  0  0  0  0  0  0  0  0  0  0  0
   17.5830  -54.6700   38.7800 C   0  0  0  0  0  3  0  0  0  0  0  0
   18.3530  -53.6310   38.2910 C   0  0  0  0  0  0  0  0  0  0  0  0
   17.7810  -52.4010   38.0590 C   0  0  0  0  0  0  0  0  0  0  0  0
   16.4420  -52.2490   38.3250 C   0  0  0  0  0  3  0  0  0  0  0  0
   15.6840  -53.2900   38.8110 C   0  0  0  0  0  3  0  0  0  0  0  0
   19.6970  -53.8250   38.0360 O   0  0  0  0  0  0  0  0  0  0  0  0
   20.0600  -53.7870   37.1040 H   0  0  0  0  0  0  0  0  0  0  0  0
   18.5310  -51.3500   37.5720 O   0  0  0  0  0  0  0  0  0  0  0  0
   19.2730  -51.5150   36.3850 C   0  0  0  0  0  1  0  0  0  0  0  0
   16.0810  -57.4880   33.5190 C   0  0  0  0  0  0  0  0  0  0  0  0
   16.6300  -58.4100   32.6360 C   0  0  0  0  0  3  0  0  0  0  0  0
   17.4670  -58.0420   31.6270 C   0  0  0  0  0  3  0  0  0  0  0  0
   17.7950  -56.7050   31.4610 C   0  0  0  0  0  0  0  0  0  0  0  0
   18.8690  -56.1900   30.1730 Cl  0  0  0  0  0  0  0  0  0  0  0  0
   17.2660  -55.7590   32.3230 C   0  0  0  0  0  3  0  0  0  0  0  0
   16.4090  -56.1610   33.3500 C   0  0  0  0  0  3  0  0  0  0  0  0
  1  8  1  0  0  0  0
  2  1  1  0  0  0  0
  2  4  1  0  0  0  0
  3  2  2  0  0  0  0
  4  5  1  0  0  0  0
  5  7  1  0  0  0  0
  5  6  2  0  0  0  0
  7  8  1  6  0  0  0
  7 11  1  0  0  0  0
  8  9  2  0  0  0  0
 10  4  1  0  0  0  0
 11 12  1  6  0  0  0
 12 13  1  0  0  0  0
 13 18  1  6  0  0  0
 14 13  1  0  0  0  0
 14 16  1  0  0  0  0
 15 11  1  0  0  0  0
 15 14  1  0  0  0  0
 17 15  1  0  0  0  0
 19 18  2  0  0  0  0
 20 19  1  0  0  0  0
 21 20  2  0  0  0  0
 21 22  1  0  0  0  0
 22 23  2  0  0  0  0
 23 18  1  0  0  0  0
 24 20  1  0  0  0  0
 25 24  1  0  0  0  0
 26 21  1  0  0  0  0
 27 26  1  0  0  0  0
 28  1  1  0  0  0  0
 29 28  2  0  0  0  0
 30 29  1  0  0  0  0
 31 30  2  0  0  0  0
 31 33  1  0  0  0  0
 32 31  1  0  0  0  0
 33 34  2  0  0  0  0
 34 28  1  0  0  0  0
M  END
>  <Pose>
1

>  <Score>
-10.310

$$$$
