MODEL 1
REMARK VINA RESULT:    -9.677      0.000      0.000
REMARK INTER + INTRA:         -12.647
REMARK INTER:                 -11.657
REMARK INTRA:                  -0.990
REMARK UNBOUND:                -0.990
REMARK  4 active torsions:
REMARK  status: ('A' for Active; 'I' for Inactive)
REMARK    1  A    between atoms: C_5  and  N_8 
REMARK    2  A    between atoms: C_14  and  C_17 
REMARK    3  A    between atoms: C_19  and  C_22 
REMARK    4  A    between atoms: C_24  and  O_28 
ROOT
ATOM      1  N   UNK d   1      19.237 -54.893  33.806  0.00  0.00    -0.233 N 
ATOM      2  C   UNK d   1      20.016 -53.940  33.065  0.00  0.00     0.336 C 
ATOM      3  O   UNK d   1      20.380 -52.839  33.580  0.00  0.00    -0.246 OA
ATOM      4  N   UNK d   1      20.357 -54.293  31.732  0.00  0.00    -0.277 N 
ATOM      5  C   UNK d   1      19.929 -55.554  31.170  0.00  0.00     0.244 C 
ATOM      6  O   UNK d   1      20.598 -55.999  30.229  0.00  0.00    -0.272 OA
ATOM      7  C   UNK d   1      18.766 -56.221  31.723  0.00  0.00     0.221 C 
ATOM      8  C   UNK d   1      18.842 -56.119  33.211  0.00  0.00     0.251 C 
ATOM      9  O   UNK d   1      18.573 -57.067  33.992  0.00  0.00    -0.271 OA
ATOM     10  H   UNK d   1      20.918 -53.620  31.182  0.00  0.00     0.173 HD
ENDROOT
BRANCH   7  11
ATOM     11  C   UNK d   1      18.469 -57.558  31.262  0.00  0.00     0.041 C 
ATOM     12  C   UNK d   1      17.306 -58.103  30.989  0.00  0.00     0.026 C 
ATOM     13  C   UNK d   1      17.461 -59.509  30.542  0.00  0.00     0.134 C 
ATOM     14  N   UNK d   1      18.887 -59.621  30.334  0.00  0.00    -0.228 NA
ATOM     15  N   UNK d   1      19.475 -58.565  31.027  0.00  0.00    -0.323 N 
ATOM     16  H   UNK d   1      19.149 -59.651  29.326  0.00  0.00     0.147 HD
ATOM     17  H   UNK d   1      20.480 -58.563  31.302  0.00  0.00     0.180 HD
BRANCH  13  18
ATOM     18  C   UNK d   1      16.799 -59.785  29.262  0.00  0.00    -0.033 A 
ATOM     19  C   UNK d   1      15.668 -60.587  29.271  0.00  0.00     0.045 A 
ATOM     20  C   UNK d   1      15.022 -60.863  28.088  0.00  0.00     0.066 A 
ATOM     21  C   UNK d   1      15.468 -60.364  26.887  0.00  0.00     0.036 A 
ATOM     22  C   UNK d   1      16.589 -59.567  26.861  0.00  0.00     0.003 A 
ATOM     23  C   UNK d   1      17.242 -59.289  28.063  0.00  0.00     0.009 A 
BRANCH  20  24
ATOM     24  O   UNK d   1      13.877 -61.672  28.084  0.00  0.00    -0.361 OA
ATOM     25  H   UNK d   1      13.560 -62.066  27.216  0.00  0.00     0.217 HD
ENDBRANCH  20  24
ENDBRANCH  13  18
ENDBRANCH   7  11
BRANCH   1  26
ATOM     26  C   UNK d   1      18.887 -54.540  35.163  0.00  0.00     0.047 A 
ATOM     27  C   UNK d   1      17.601 -54.169  35.505  0.00  0.00     0.032 A 
ATOM     28  C   UNK d   1      17.235 -53.822  36.792  0.00  0.00     0.026 A 
ATOM     29  C   UNK d   1      18.191 -53.844  37.798  0.00  0.00     0.034 A 
ATOM     30 Cl   UNK d   1      17.701 -53.403  39.408  0.00  0.00    -0.084 Cl
ATOM     31  C   UNK d   1      19.494 -54.214  37.477  0.00  0.00     0.026 A 
ATOM     32  C   UNK d   1      19.824 -54.554  36.178  0.00  0.00     0.032 A 
ENDBRANCH   1  26
TORSDOF 4
ENDMDL
