MODEL 1
REMARK VINA RESULT:    -9.314      0.000      0.000
REMARK INTER + INTRA:         -11.990
REMARK INTER:                 -10.947
REMARK INTRA:                  -1.043
REMARK UNBOUND:                -1.043
REMARK  3 active torsions:
REMARK  status: ('A' for Active; 'I' for Inactive)
REMARK    1  A    between atoms: C_5  and  N_8 
REMARK    2  A    between atoms: C_14  and  C_17 
REMARK    3  A    between atoms: C_19  and  C_22 
ROOT
ATOM      1  N   UNK d   1      16.882 -56.989  34.095  0.00  0.00    -0.233 N 
ATOM      2  C   UNK d   1      16.358 -56.278  32.989  0.00  0.00     0.336 C 
ATOM      3  O   UNK d   1      15.116 -56.182  32.829  0.00  0.00    -0.246 OA
ATOM      4  N   UNK d   1      17.271 -55.670  32.058  0.00  0.00    -0.277 N 
ATOM      5  C   UNK d   1      18.676 -55.777  32.236  0.00  0.00     0.244 C 
ATOM      6  O   UNK d   1      19.442 -55.547  31.267  0.00  0.00    -0.272 OA
ATOM      7  C   UNK d   1      19.211 -56.156  33.554  0.00  0.00     0.221 C 
ATOM      8  C   UNK d   1      18.289 -57.076  34.242  0.00  0.00     0.251 C 
ATOM      9  O   UNK d   1      18.758 -57.991  35.004  0.00  0.00    -0.271 OA
ATOM     10  H   UNK d   1      16.929 -55.138  31.229  0.00  0.00     0.173 HD
ENDROOT
BRANCH   7  11
ATOM     11  C   UNK d   1      19.455 -54.942  34.402  0.00  0.00     0.041 C 
ATOM     12  C   UNK d   1      19.874 -54.885  35.639  0.00  0.00     0.026 C 
ATOM     13  C   UNK d   1      19.963 -53.478  36.057  0.00  0.00     0.135 C 
ATOM     14  N   UNK d   1      19.894 -52.744  34.825  0.00  0.00    -0.228 NA
ATOM     15  N   UNK d   1      19.255 -53.619  33.932  0.00  0.00    -0.323 N 
ATOM     16  H   UNK d   1      20.816 -52.459  34.483  0.00  0.00     0.147 HD
ATOM     17  H   UNK d   1      18.740 -53.277  33.089  0.00  0.00     0.180 HD
BRANCH  13  18
ATOM     18  C   UNK d   1      18.765 -53.195  36.889  0.00  0.00    -0.018 A 
ATOM     19  C   UNK d   1      17.934 -54.219  37.278  0.00  0.00     0.125 A 
ATOM     20  N   UNK d   1      16.834 -53.966  38.040  0.00  0.00    -0.273 NA
ATOM     21  C   UNK d   1      16.506 -52.729  38.446  0.00  0.00     0.116 A 
ATOM     22  C   UNK d   1      17.316 -51.680  38.074  0.00  0.00     0.020 A 
ATOM     23  C   UNK d   1      18.453 -51.923  37.289  0.00  0.00     0.012 A 
ENDBRANCH  13  18
ENDBRANCH   7  11
BRANCH   1  24
ATOM     24  C   UNK d   1      15.999 -57.620  35.054  0.00  0.00     0.047 A 
ATOM     25  C   UNK d   1      15.295 -58.766  34.754  0.00  0.00     0.032 A 
ATOM     26  C   UNK d   1      14.450 -59.360  35.685  0.00  0.00     0.026 A 
ATOM     27  C   UNK d   1      14.288 -58.822  36.944  0.00  0.00     0.034 A 
ATOM     28 Cl   UNK d   1      13.224 -59.569  38.123  0.00  0.00    -0.084 Cl
ATOM     29  C   UNK d   1      14.994 -57.675  37.239  0.00  0.00     0.026 A 
ATOM     30  C   UNK d   1      15.834 -57.085  36.312  0.00  0.00     0.032 A 
ENDBRANCH   1  24
TORSDOF 3
ENDMDL
