/Users/jonathanwahrer/Desktop/Msc/3_Semester/Drug_Design_Praktikum/waehrer_HTS_screening/HTS_experiment/out/docking_results/vina_output/6s1j/2361_docked.pdbqt
 OpenBabel03222222473D

 30 33  0  0  1  0  0  0  0  0999 V2000
   16.8820  -56.9890   34.0950 N   0  0  0  0  0  0  0  0  0  0  0  0
   16.3580  -56.2780   32.9890 C   0  0  0  0  0  0  0  0  0  0  0  0
   15.1160  -56.1820   32.8290 O   0  0  0  0  0  0  0  0  0  0  0  0
   17.2710  -55.6700   32.0580 N   0  0  0  0  0  0  0  0  0  0  0  0
   18.6760  -55.7770   32.2360 C   0  0  0  0  0  0  0  0  0  0  0  0
   19.4420  -55.5470   31.2670 O   0  0  0  0  0  0  0  0  0  0  0  0
   19.2110  -56.1560   33.5540 C   0  0  2  0  0  3  0  0  0  0  0  0
   18.2890  -57.0760   34.2420 C   0  0  0  0  0  0  0  0  0  0  0  0
   18.7580  -57.9910   35.0040 O   0  0  0  0  0  0  0  0  0  0  0  0
   16.9290  -55.1380   31.2290 H   0  0  0  0  0  0  0  0  0  0  0  0
   19.4550  -54.9420   34.4020 C   0  0  1  0  0  3  0  0  0  0  0  0
   19.8740  -54.8850   35.6390 C   0  0  0  0  0  2  0  0  0  0  0  0
   19.9630  -53.4780   36.0570 C   0  0  1  0  0  3  0  0  0  0  0  0
   19.8940  -52.7440   34.8250 N   0  0  0  0  0  0  0  0  0  0  0  0
   19.2550  -53.6190   33.9320 N   0  0  0  0  0  0  0  0  0  0  0  0
   20.8160  -52.4590   34.4830 H   0  0  0  0  0  0  0  0  0  0  0  0
   18.7400  -53.2770   33.0890 H   0  0  0  0  0  0  0  0  0  0  0  0
   18.7650  -53.1950   36.8890 C   0  0  0  0  0  0  0  0  0  0  0  0
   17.9340  -54.2190   37.2780 C   0  0  0  0  0  3  0  0  0  0  0  0
   16.8340  -53.9660   38.0400 N   0  0  0  0  0  0  0  0  0  0  0  0
   16.5060  -52.7290   38.4460 C   0  0  0  0  0  3  0  0  0  0  0  0
   17.3160  -51.6800   38.0740 C   0  0  0  0  0  3  0  0  0  0  0  0
   18.4530  -51.9230   37.2890 C   0  0  0  0  0  3  0  0  0  0  0  0
   15.9990  -57.6200   35.0540 C   0  0  0  0  0  0  0  0  0  0  0  0
   15.2950  -58.7660   34.7540 C   0  0  0  0  0  3  0  0  0  0  0  0
   14.4500  -59.3600   35.6850 C   0  0  0  0  0  3  0  0  0  0  0  0
   14.2880  -58.8220   36.9440 C   0  0  0  0  0  0  0  0  0  0  0  0
   13.2240  -59.5690   38.1230 Cl  0  0  0  0  0  0  0  0  0  0  0  0
   14.9940  -57.6750   37.2390 C   0  0  0  0  0  3  0  0  0  0  0  0
   15.8340  -57.0850   36.3120 C   0  0  0  0  0  3  0  0  0  0  0  0
  1  8  1  0  0  0  0
  1 24  1  0  0  0  0
  2  1  1  0  0  0  0
  3  2  2  0  0  0  0
  4  5  1  0  0  0  0
  4  2  1  0  0  0  0
  6  5  2  0  0  0  0
  7  5  1  6  0  0  0
  7  8  1  0  0  0  0
  7 11  1  0  0  0  0
  8  9  2  0  0  0  0
 10  4  1  0  0  0  0
 11 12  1  6  0  0  0
 12 13  1  0  0  0  0
 13 18  1  1  0  0  0
 14 13  1  0  0  0  0
 15 11  1  0  0  0  0
 15 14  1  0  0  0  0
 16 14  1  0  0  0  0
 17 15  1  0  0  0  0
 18 19  2  0  0  0  0
 18 23  1  0  0  0  0
 19 20  1  0  0  0  0
 20 21  2  0  0  0  0
 22 21  1  0  0  0  0
 23 22  2  0  0  0  0
 24 30  1  0  0  0  0
 25 24  2  0  0  0  0
 25 26  1  0  0  0  0
 26 27  2  0  0  0  0
 27 29  1  0  0  0  0
 27 28  1  0  0  0  0
 30 29  2  0  0  0  0
M  END
>  <Pose>
1

>  <Score>
-9.314

$$$$
