MODEL 1
REMARK VINA RESULT:    -9.327      0.000      0.000
REMARK INTER + INTRA:         -12.768
REMARK INTER:                 -12.326
REMARK INTRA:                  -0.441
REMARK UNBOUND:                -0.441
REMARK  6 active torsions:
REMARK  status: ('A' for Active; 'I' for Inactive)
REMARK    1  A    between atoms: C_5  and  N_8 
REMARK    2  A    between atoms: C_9  and  O_19 
REMARK    3  A    between atoms: C_9  and  C_20 
REMARK       I    between atoms: C_20  and  N_22 
REMARK    4  A    between atoms: N_22  and  C_23 
REMARK    5  A    between atoms: C_23  and  C_24 
REMARK    6  A    between atoms: C_24  and  N_25 
ROOT
ATOM      1  N   UNK d   1      18.917 -54.912  33.335  0.00  0.00    -0.254 N 
ATOM      2  C   UNK d   1      18.118 -55.926  32.745  0.00  0.00     0.256 A 
ATOM      3  C   UNK d   1      18.536 -56.329  31.410  0.00  0.00     0.034 A 
ATOM      4  C   UNK d   1      19.551 -55.717  30.739  0.00  0.00     0.048 A 
ATOM      5  C   UNK d   1      19.886 -56.145  29.440  0.00  0.00     0.030 A 
ATOM      6  C   UNK d   1      19.231 -57.168  28.802  0.00  0.00     0.002 A 
ATOM      7  C   UNK d   1      18.203 -57.779  29.500  0.00  0.00     0.001 A 
ATOM      8  C   UNK d   1      17.874 -57.371  30.752  0.00  0.00     0.015 A 
ATOM      9  N   UNK d   1      20.320 -54.652  31.322  0.00  0.00    -0.308 N 
ATOM     10  C   UNK d   1      19.959 -54.282  32.637  0.00  0.00     0.330 A 
ATOM     11  O   UNK d   1      20.591 -53.344  33.224  0.00  0.00    -0.246 OA
ATOM     12  H   UNK d   1      21.082 -54.209  30.780  0.00  0.00     0.170 HD
ENDROOT
BRANCH   2  13
ATOM     13  O   UNK d   1      16.820 -55.319  32.610  0.00  0.00    -0.359 OA
ATOM     14  H   UNK d   1      16.389 -55.643  31.777  0.00  0.00     0.213 HD
ENDBRANCH   2  13
BRANCH   2  15
ATOM     15  C   UNK d   1      17.913 -57.085  33.651  0.00  0.00     0.279 C 
ATOM     16  O   UNK d   1      18.862 -57.811  33.952  0.00  0.00    -0.268 OA
ATOM     17  N   UNK d   1      16.615 -57.315  34.143  0.00  0.00    -0.355 N 
ATOM     18  H   UNK d   1      15.794 -56.698  33.890  0.00  0.00     0.162 HD
BRANCH  17  19
ATOM     19  C   UNK d   1      16.299 -58.426  35.042  0.00  0.00     0.142 C 
BRANCH  19  20
ATOM     20  C   UNK d   1      16.640 -58.133  36.452  0.00  0.00     0.136 C 
BRANCH  20  21
ATOM     21  N   UNK d   1      15.594 -57.717  37.304  0.00  0.00    -0.407 N 
ATOM     22  C   UNK d   1      15.689 -56.464  37.932  0.00  0.00     0.143 C 
ATOM     23  C   UNK d   1      14.334 -56.132  38.564  0.00  0.00     0.187 C 
ATOM     24  O   UNK d   1      13.713 -57.305  39.028  0.00  0.00    -0.388 OA
ATOM     25  C   UNK d   1      13.267 -58.094  37.970  0.00  0.00     0.187 C 
ATOM     26  C   UNK d   1      14.274 -58.004  36.855  0.00  0.00     0.143 C 
ENDBRANCH  20  21
ENDBRANCH  19  20
ENDBRANCH  17  19
ENDBRANCH   2  15
BRANCH   1  27
ATOM     27  C   UNK d   1      18.659 -54.505  34.723  0.00  0.00     0.043 A 
ATOM     28  C   UNK d   1      17.474 -53.926  35.092  0.00  0.00     0.031 A 
ATOM     29  C   UNK d   1      17.243 -53.545  36.410  0.00  0.00     0.026 A 
ATOM     30  C   UNK d   1      18.222 -53.754  37.355  0.00  0.00     0.034 A 
ATOM     31 Cl   UNK d   1      17.921 -53.267  39.027  0.00  0.00    -0.084 Cl
ATOM     32  C   UNK d   1      19.424 -54.335  37.010  0.00  0.00     0.026 A 
ATOM     33  C   UNK d   1      19.620 -54.702  35.691  0.00  0.00     0.031 A 
ENDBRANCH   1  27
TORSDOF 6
ENDMDL
