/Users/jonathanwahrer/Desktop/Msc/3_Semester/Drug_Design_Praktikum/waehrer_HTS_screening/HTS_experiment/out/docking_results/vina_output/6s1j/2363_docked.pdbqt
 OpenBabel03222222483D

 33 36  0  0  1  0  0  0  0  0999 V2000
   18.9170  -54.9120   33.3350 N   0  0  0  0  0  0  0  0  0  0  0  0
   18.1180  -55.9260   32.7450 C   0  0  2  0  0  0  0  0  0  0  0  0
   18.5360  -56.3290   31.4100 C   0  0  0  0  0  0  0  0  0  0  0  0
   19.5510  -55.7170   30.7390 C   0  0  0  0  0  0  0  0  0  0  0  0
   19.8860  -56.1450   29.4400 C   0  0  0  0  0  3  0  0  0  0  0  0
   19.2310  -57.1680   28.8020 C   0  0  0  0  0  3  0  0  0  0  0  0
   18.2030  -57.7790   29.5000 C   0  0  0  0  0  3  0  0  0  0  0  0
   17.8740  -57.3710   30.7520 C   0  0  0  0  0  3  0  0  0  0  0  0
   20.3200  -54.6520   31.3220 N   0  0  0  0  0  0  0  0  0  0  0  0
   19.9590  -54.2820   32.6370 C   0  0  0  0  0  0  0  0  0  0  0  0
   20.5910  -53.3440   33.2240 O   0  0  0  0  0  0  0  0  0  0  0  0
   21.0820  -54.2090   30.7800 H   0  0  0  0  0  0  0  0  0  0  0  0
   16.8200  -55.3190   32.6100 O   0  0  0  0  0  0  0  0  0  0  0  0
   16.3890  -55.6430   31.7770 H   0  0  0  0  0  0  0  0  0  0  0  0
   17.9130  -57.0850   33.6510 C   0  0  0  0  0  0  0  0  0  0  0  0
   18.8620  -57.8110   33.9520 O   0  0  0  0  0  0  0  0  0  0  0  0
   16.6150  -57.3150   34.1430 N   0  0  0  0  0  0  0  0  0  0  0  0
   15.7940  -56.6980   33.8900 H   0  0  0  0  0  0  0  0  0  0  0  0
   16.2990  -58.4260   35.0420 C   0  0  0  0  0  2  0  0  0  0  0  0
   16.6400  -58.1330   36.4520 C   0  0  0  0  0  2  0  0  0  0  0  0
   15.5940  -57.7170   37.3040 N   0  0  0  0  0  0  0  0  0  0  0  0
   15.6890  -56.4640   37.9320 C   0  0  0  0  0  2  0  0  0  0  0  0
   14.3340  -56.1320   38.5640 C   0  0  0  0  0  2  0  0  0  0  0  0
   13.7130  -57.3050   39.0280 O   0  0  0  0  0  0  0  0  0  0  0  0
   13.2670  -58.0940   37.9700 C   0  0  0  0  0  2  0  0  0  0  0  0
   14.2740  -58.0040   36.8550 C   0  0  0  0  0  2  0  0  0  0  0  0
   18.6590  -54.5050   34.7230 C   0  0  0  0  0  0  0  0  0  0  0  0
   17.4740  -53.9260   35.0920 C   0  0  0  0  0  3  0  0  0  0  0  0
   17.2430  -53.5450   36.4100 C   0  0  0  0  0  3  0  0  0  0  0  0
   18.2220  -53.7540   37.3550 C   0  0  0  0  0  0  0  0  0  0  0  0
   17.9210  -53.2670   39.0270 Cl  0  0  0  0  0  0  0  0  0  0  0  0
   19.4240  -54.3350   37.0100 C   0  0  0  0  0  3  0  0  0  0  0  0
   19.6200  -54.7020   35.6910 C   0  0  0  0  0  3  0  0  0  0  0  0
  1 27  1  0  0  0  0
  2 13  1  6  0  0  0
  2  1  1  0  0  0  0
  2 15  1  0  0  0  0
  3  2  1  0  0  0  0
  4  9  1  0  0  0  0
  4  3  2  0  0  0  0
  5  4  1  0  0  0  0
  6  5  2  0  0  0  0
  6  7  1  0  0  0  0
  7  8  2  0  0  0  0
  8  3  1  0  0  0  0
  9 10  1  0  0  0  0
 10 11  2  0  0  0  0
 10  1  1  0  0  0  0
 12  9  1  0  0  0  0
 14 13  1  0  0  0  0
 15 16  2  0  0  0  0
 15 17  1  0  0  0  0
 17 19  1  0  0  0  0
 18 17  1  0  0  0  0
 19 20  1  0  0  0  0
 20 21  1  0  0  0  0
 21 22  1  0  0  0  0
 22 23  1  0  0  0  0
 23 24  1  0  0  0  0
 25 24  1  0  0  0  0
 26 21  1  0  0  0  0
 26 25  1  0  0  0  0
 27 28  2  0  0  0  0
 27 33  1  0  0  0  0
 28 29  1  0  0  0  0
 29 30  2  0  0  0  0
 30 31  1  0  0  0  0
 32 30  1  0  0  0  0
 33 32  2  0  0  0  0
M  END
>  <Pose>
1

>  <Score>
-9.327

$$$$
