MODEL 1
REMARK VINA RESULT:    -9.479      0.000      0.000
REMARK INTER + INTRA:         -13.179
REMARK INTER:                 -12.527
REMARK INTRA:                  -0.652
REMARK UNBOUND:                -0.652
REMARK  6 active torsions:
REMARK  status: ('A' for Active; 'I' for Inactive)
REMARK    1  A    between atoms: C_4  and  C_8 
REMARK    2  A    between atoms: C_8  and  N_9 
REMARK    3  A    between atoms: N_16  and  C_18 
REMARK    4  A    between atoms: C_18  and  C_19 
REMARK    5  A    between atoms: C_21  and  O_25 
REMARK    6  A    between atoms: C_30  and  O_32 
ROOT
ATOM      1  N   UNK d   1      17.621 -58.620  32.732  0.00  0.00    -0.280 N 
ATOM      2  C   UNK d   1      17.337 -57.925  31.524  0.00  0.00     0.260 C 
ATOM      3  O   UNK d   1      16.888 -58.570  30.523  0.00  0.00    -0.270 OA
ATOM      4  C   UNK d   1      17.532 -56.481  31.360  0.00  0.00     0.319 C 
ATOM      5  N   UNK d   1      18.249 -55.846  32.416  0.00  0.00     0.127 N 
ATOM      6  C   UNK d   1      18.072 -56.390  33.723  0.00  0.00     0.292 A 
ATOM      7  C   UNK d   1      16.910 -55.842  34.515  0.00  0.00     0.326 A 
ATOM      8  N   UNK d   1      17.825 -55.206  35.407  0.00  0.00     0.098 N 
ATOM      9  C   UNK d   1      18.964 -55.650  34.706  0.00  0.00     0.326 A 
ATOM     10  C   UNK d   1      18.212 -57.868  33.785  0.00  0.00     0.270 C 
ATOM     11  O   UNK d   1      18.819 -58.465  34.710  0.00  0.00    -0.270 OA
ATOM     12  C   UNK d   1      19.644 -55.853  32.079  0.00  0.00     0.307 C 
ATOM     13  C   UNK d   1      19.791 -56.464  30.714  0.00  0.00     0.149 C 
ATOM     14  C   UNK d   1      18.421 -56.295  30.122  0.00  0.00     0.079 C 
ENDROOT
BRANCH   8  15
ATOM     15  C   UNK d   1      17.649 -53.836  35.724  0.00  0.00     0.311 C 
BRANCH  15  16
ATOM     16  C   UNK d   1      17.027 -53.547  37.021  0.00  0.00    -0.028 A 
ATOM     17  C   UNK d   1      16.168 -54.455  37.589  0.00  0.00     0.045 A 
ATOM     18  C   UNK d   1      15.561 -54.205  38.823  0.00  0.00     0.068 A 
ATOM     19  C   UNK d   1      15.834 -53.025  39.476  0.00  0.00     0.037 A 
ATOM     20  C   UNK d   1      16.691 -52.099  38.931  0.00  0.00     0.003 A 
ATOM     21  C   UNK d   1      17.279 -52.380  37.699  0.00  0.00     0.009 A 
BRANCH  18  22
ATOM     22  O   UNK d   1      14.696 -55.116  39.397  0.00  0.00    -0.356 OA
ATOM     23  C   UNK d   1      14.929 -56.496  39.184  0.00  0.00     0.210 C 
ENDBRANCH  18  22
ENDBRANCH  15  16
ENDBRANCH   8  15
BRANCH   1  24
ATOM     24  C   UNK d   1      17.330 -60.033  32.898  0.00  0.00     0.173 C 
BRANCH  24  25
ATOM     25  C   UNK d   1      15.936 -60.208  33.435  0.00  0.00    -0.038 A 
ATOM     26  C   UNK d   1      15.474 -59.426  34.470  0.00  0.00     0.032 A 
ATOM     27  C   UNK d   1      14.200 -59.567  34.981  0.00  0.00     0.034 A 
ATOM     28 Cl   UNK d   1      13.646 -58.555  36.297  0.00  0.00    -0.084 Cl
ATOM     29  C   UNK d   1      13.351 -60.512  34.457  0.00  0.00     0.024 A 
ATOM     30  C   UNK d   1      13.833 -61.283  33.423  0.00  0.00     0.002 A 
ATOM     31  C   UNK d   1      15.085 -61.155  32.910  0.00  0.00     0.009 A 
ENDBRANCH  24  25
ENDBRANCH   1  24
BRANCH  13  32
ATOM     32  O   UNK d   1      20.780 -55.856  29.952  0.00  0.00    -0.394 OA
ATOM     33  H   UNK d   1      21.644 -56.245  30.230  0.00  0.00     0.210 HD
ENDBRANCH  13  32
TORSDOF 6
ENDMDL
