MODEL 1
REMARK VINA RESULT:    -9.315      0.000      0.000
REMARK INTER + INTRA:         -13.398
REMARK INTER:                 -12.582
REMARK INTRA:                  -0.816
REMARK UNBOUND:                -0.816
REMARK  6 active torsions:
REMARK  status: ('A' for Active; 'I' for Inactive)
REMARK    1  A    between atoms: N_4  and  C_7 
REMARK    2  A    between atoms: C_7  and  C_8 
REMARK    3  A    between atoms: C_8  and  C_10 
REMARK       I    between atoms: C_10  and  N_12 
REMARK    4  A    between atoms: N_12  and  N_13 
REMARK       I    between atoms: N_13  and  C_14 
REMARK    5  A    between atoms: C_14  and  C_16 
REMARK    6  A    between atoms: C_18  and  N_26 
ROOT
ATOM      1  N   UNK d   1      14.369 -56.602  38.071  0.00  0.00    -0.267 N 
ATOM      2  C   UNK d   1      14.985 -55.552  38.770  0.00  0.00     0.245 C 
ATOM      3  O   UNK d   1      14.537 -55.251  39.918  0.00  0.00    -0.271 OA
ATOM      4  H   UNK d   1      14.729 -56.863  37.121  0.00  0.00     0.190 HD
ENDROOT
BRANCH   2   5
ATOM      5  C   UNK d   1      16.130 -54.764  38.258  0.00  0.00     0.045 C 
ATOM      6  C   UNK d   1      16.648 -55.354  36.961  0.00  0.00     0.054 C 
ATOM      7  C   UNK d   1      17.817 -54.566  36.444  0.00  0.00     0.078 C 
ATOM      8  C   UNK d   1      17.307 -53.156  36.136  0.00  0.00     0.039 C 
ATOM      9  C   UNK d   1      18.929 -54.443  37.439  0.00  0.00     0.039 C 
ATOM     10  C   UNK d   1      16.769 -52.535  37.385  0.00  0.00    -0.010 C 
ATOM     11  C   UNK d   1      15.640 -53.366  37.949  0.00  0.00     0.024 C 
ATOM     12  C   UNK d   1      17.880 -52.438  38.406  0.00  0.00     0.009 C 
ATOM     13  C   UNK d   1      18.363 -53.839  38.699  0.00  0.00    -0.010 C 
ATOM     14  C   UNK d   1      17.247 -54.669  39.274  0.00  0.00     0.024 C 
BRANCH   7  15
ATOM     15  N   UNK d   1      18.246 -55.193  35.209  0.00  0.00    -0.159 N 
ATOM     16  N   UNK d   1      18.147 -56.450  34.815  0.00  0.00    -0.046 NA
ATOM     17  N   UNK d   1      18.652 -56.632  33.632  0.00  0.00    -0.122 NA
ATOM     18  C   UNK d   1      19.111 -55.469  33.204  0.00  0.00     0.282 A 
ATOM     19  N   UNK d   1      18.857 -54.564  34.191  0.00  0.00    -0.144 NA
ENDBRANCH   7  15
ENDBRANCH   2   5
BRANCH   1  20
ATOM     20  N   UNK d   1      13.307 -57.295  38.606  0.00  0.00    -0.267 N 
ATOM     21  C   UNK d   1      12.688 -58.415  38.002  0.00  0.00     0.241 C 
ATOM     22  O   UNK d   1      13.089 -58.862  36.897  0.00  0.00    -0.271 OA
ATOM     23  H   UNK d   1      12.913 -56.979  39.536  0.00  0.00     0.190 HD
BRANCH  21  24
ATOM     24  C   UNK d   1      11.538 -59.126  38.633  0.00  0.00     0.095 C 
ATOM     25  C   UNK d   1      10.708 -59.862  37.637  0.00  0.00     0.022 C 
BRANCH  24  26
ATOM     26  C   UNK d   1      12.057 -60.041  39.718  0.00  0.00     0.164 C 
BRANCH  26  27
ATOM     27  N   UNK d   1      11.389 -59.838  40.982  0.00  0.00    -0.279 N 
ATOM     28  C   UNK d   1      10.279 -59.097  41.231  0.00  0.00     0.133 A 
ATOM     29  C   UNK d   1       9.968 -59.168  42.575  0.00  0.00     0.047 A 
ATOM     30 Br   UNK d   1       8.533 -58.350  43.525  0.00  0.00    -0.048 Br
ATOM     31  C   UNK d   1      10.951 -59.994  43.126  0.00  0.00     0.159 A 
ATOM     32  N   UNK d   1      11.766 -60.358  42.119  0.00  0.00    -0.184 NA
ENDBRANCH  26  27
ENDBRANCH  24  26
ENDBRANCH  21  24
ENDBRANCH   1  20
TORSDOF 6
ENDMDL
