/Users/jonathanwahrer/Desktop/Msc/3_Semester/Drug_Design_Praktikum/waehrer_HTS_screening/HTS_experiment/out/docking_results/vina_output/6s1j/2373_docked.pdbqt
 OpenBabel03222222483D

 28 31  0  0  1  0  0  0  0  0999 V2000
   18.4030  -54.5340   35.5210 N   0  0  0  0  0  0  0  0  0  0  0  0
   18.3030  -53.8830   36.6670 C   0  0  2  0  0  3  0  0  0  0  0  0
   17.4390  -54.5100   37.5090 N   0  0  0  0  0  0  0  0  0  0  0  0
   16.9770  -55.5740   36.8890 C   0  0  0  0  0  0  0  0  0  0  0  0
   17.5960  -55.5880   35.6220 C   0  0  0  0  0  3  0  0  0  0  0  0
   17.1630  -54.0640   38.8460 C   0  0  0  0  0  2  0  0  0  0  0  0
   16.2620  -52.8310   38.8200 C   0  0  0  0  0  2  0  0  0  0  0  0
   16.7160  -52.0420   37.5880 C   0  0  0  0  0  2  0  0  0  0  0  0
   18.1620  -51.6760   37.7790 C   0  0  0  0  0  2  0  0  0  0  0  0
   19.0450  -52.6140   36.9410 C   0  0  0  0  0  2  0  0  0  0  0  0
   19.1910  -54.2570   34.3160 C   0  0  0  0  0  2  0  0  0  0  0  0
   18.5270  -54.9160   33.1700 C   0  0  0  0  0  0  0  0  0  0  0  0
   17.2660  -54.7580   33.0600 O   0  0  0  0  0  0  0  0  0  0  0  0
   19.2210  -55.7160   32.1860 C   0  0  0  0  0  0  0  0  0  0  0  0
   20.0500  -55.0730   31.2590 C   0  0  0  0  0  3  0  0  0  0  0  0
   20.7300  -55.7780   30.2980 C   0  0  0  0  0  3  0  0  0  0  0  0
   20.6290  -57.1440   30.2000 C   0  0  0  0  0  0  0  0  0  0  0  0
   21.4660  -58.0990   29.0040 Cl  0  0  0  0  0  0  0  0  0  0  0  0
   19.8060  -57.7710   31.1220 C   0  0  0  0  0  3  0  0  0  0  0  0
   19.1190  -57.0730   32.0890 C   0  0  0  0  0  3  0  0  0  0  0  0
   16.0400  -56.6090   37.3360 C   0  0  0  0  0  0  0  0  0  0  0  0
   16.1110  -57.9330   37.0440 C   0  0  0  0  0  3  0  0  0  0  0  0
   15.1470  -58.8580   37.4430 C   0  0  0  0  0  3  0  0  0  0  0  0
   14.0600  -58.4550   38.1690 C   0  0  0  0  0  0  0  0  0  0  0  0
   13.9600  -57.1220   38.4830 C   0  0  0  0  0  3  0  0  0  0  0  0
   14.9210  -56.2200   38.0800 C   0  0  0  0  0  3  0  0  0  0  0  0
   13.0730  -59.3660   38.5850 O   0  0  0  0  0  0  0  0  0  0  0  0
   11.7020  -59.1360   38.3970 C   0  0  0  0  0  1  0  0  0  0  0  0
  1  5  1  0  0  0  0
  1  2  1  0  0  0  0
  2 10  1  6  0  0  0
  2  3  1  0  0  0  0
  3  6  1  0  0  0  0
  4 21  1  0  0  0  0
  4  3  1  0  0  0  0
  5  4  2  0  0  0  0
  7  6  1  0  0  0  0
  8  9  1  0  0  0  0
  8  7  1  0  0  0  0
 10  9  1  0  0  0  0
 11  1  1  0  0  0  0
 12 11  1  0  0  0  0
 13 12  2  0  0  0  0
 14 12  1  0  0  0  0
 15 14  2  0  0  0  0
 16 15  1  0  0  0  0
 17 16  2  0  0  0  0
 17 19  1  0  0  0  0
 18 17  1  0  0  0  0
 19 20  2  0  0  0  0
 20 14  1  0  0  0  0
 21 26  1  0  0  0  0
 22 21  2  0  0  0  0
 22 23  1  0  0  0  0
 23 24  2  0  0  0  0
 24 25  1  0  0  0  0
 24 27  1  0  0  0  0
 26 25  2  0  0  0  0
 28 27  1  0  0  0  0
M  END
>  <Pose>
1

>  <Score>
-10.283

$$$$
