MODEL 1
REMARK VINA RESULT:    -9.836      0.000      0.000
REMARK INTER + INTRA:         -14.132
REMARK INTER:                 -12.424
REMARK INTRA:                  -1.708
REMARK UNBOUND:                -1.708
REMARK  5 active torsions:
REMARK  status: ('A' for Active; 'I' for Inactive)
REMARK    1  A    between atoms: C_5  and  C_8 
REMARK    2  A    between atoms: C_8  and  O_33 
REMARK       I    between atoms: N_11  and  C_14 
REMARK    3  A    between atoms: C_14  and  C_16 
REMARK    4  A    between atoms: C_16  and  N_17 
REMARK       I    between atoms: N_17  and  C_18 
REMARK    5  A    between atoms: C_20  and  C_21 
ROOT
ATOM      1  C   UNK d   1      17.749 -59.408  30.607  0.00  0.00     0.172 C 
ATOM      2  C   UNK d   1      17.938 -60.322  29.520  0.00  0.00     0.042 C 
ENDROOT
BRANCH   1   3
ATOM      3  C   UNK d   1      18.172 -57.958  30.411  0.00  0.00     0.242 C 
ATOM      4  N   UNK d   1      18.416 -57.132  31.534  0.00  0.00    -0.350 N 
ATOM      5  C   UNK d   1      18.475 -55.707  31.545  0.00  0.00     0.129 C 
ATOM      6  C   UNK d   1      18.952 -57.764  32.756  0.00  0.00     0.129 C 
ATOM      7  C   UNK d   1      17.999 -55.042  32.813  0.00  0.00     0.062 C 
ATOM      8  C   UNK d   1      17.686 -55.909  33.958  0.00  0.00     0.088 C 
ATOM      9  C   UNK d   1      18.336 -57.271  33.970  0.00  0.00     0.062 C 
ATOM     10  O   UNK d   1      18.300 -57.531  29.267  0.00  0.00    -0.271 OA
BRANCH   8  11
ATOM     11  C   UNK d   1      18.013 -55.317  35.275  0.00  0.00    -0.024 A 
ATOM     12  C   UNK d   1      17.053 -55.460  36.266  0.00  0.00     0.012 A 
ATOM     13  C   UNK d   1      17.254 -54.970  37.565  0.00  0.00     0.024 A 
ATOM     14  C   UNK d   1      18.431 -54.332  37.883  0.00  0.00     0.034 A 
ATOM     15 Cl   UNK d   1      18.711 -53.721  39.531  0.00  0.00    -0.084 Cl
ATOM     16  C   UNK d   1      19.389 -54.191  36.894  0.00  0.00     0.024 A 
ATOM     17  C   UNK d   1      19.163 -54.681  35.614  0.00  0.00     0.012 A 
ENDBRANCH   8  11
BRANCH   8  18
ATOM     18  O   UNK d   1      16.273 -56.118  33.947  0.00  0.00    -0.385 OA
ATOM     19  H   UNK d   1      15.806 -55.410  34.423  0.00  0.00     0.211 HD
ENDBRANCH   8  18
ENDBRANCH   1   3
BRANCH   1  20
ATOM     20  N   UNK d   1      16.595 -59.459  31.474  0.00  0.00    -0.356 N 
ATOM     21  C   UNK d   1      16.484 -60.252  32.615  0.00  0.00     0.177 C 
ATOM     22  O   UNK d   1      17.619 -61.026  32.747  0.00  0.00    -0.172 OA
ATOM     23  C   UNK d   1      15.605 -60.481  33.663  0.00  0.00     0.090 C 
ATOM     24  H   UNK d   1      15.804 -58.847  31.081  0.00  0.00     0.162 HD
BRANCH  23  25
ATOM     25  C   UNK d   1      14.531 -60.159  34.320  0.00  0.00     0.063 A 
ATOM     26  N   UNK d   1      13.230 -60.655  33.851  0.00  0.00    -0.297 N 
ATOM     27  N   UNK d   1      12.048 -60.443  34.532  0.00  0.00    -0.265 N 
ATOM     28  H   UNK d   1      13.251 -61.198  32.945  0.00  0.00     0.187 HD
ATOM     29  C   UNK d   1      11.999 -59.737  35.723  0.00  0.00     0.271 A 
ATOM     30  H   UNK d   1      11.148 -60.830  34.134  0.00  0.00     0.190 HD
ATOM     31  O   UNK d   1      10.946 -59.514  36.372  0.00  0.00    -0.266 OA
ATOM     32  C   UNK d   1      13.264 -59.195  36.277  0.00  0.00     0.046 A 
ATOM     33  C   UNK d   1      14.418 -59.432  35.569  0.00  0.00     0.008 A 
ATOM     34  C   UNK d   1      13.224 -58.562  37.495  0.00  0.00     0.018 A 
ATOM     35  C   UNK d   1      15.596 -58.991  36.181  0.00  0.00     0.015 A 
ATOM     36  C   UNK d   1      15.573 -58.350  37.411  0.00  0.00     0.001 A 
ATOM     37  C   UNK d   1      14.396 -58.127  38.076  0.00  0.00     0.001 A 
ENDBRANCH  23  25
ENDBRANCH   1  20
TORSDOF 5
ENDMDL
