MODEL 1
REMARK VINA RESULT:    -8.383      0.000      0.000
REMARK INTER + INTRA:         -10.364
REMARK INTER:                  -9.853
REMARK INTRA:                  -0.511
REMARK UNBOUND:                -0.511
REMARK  3 active torsions:
REMARK  status: ('A' for Active; 'I' for Inactive)
REMARK    1  A    between atoms: C_3  and  N_15 
REMARK    2  A    between atoms: N_6  and  C_9 
REMARK       I    between atoms: N_18  and  C_21 
REMARK    3  A    between atoms: C_21  and  C_23 
ROOT
ATOM      1 Cl   UNK d   1      20.353 -54.106  32.456  0.00  0.00    -0.076 Cl
ATOM      2  C   UNK d   1      19.163 -54.809  33.546  0.00  0.00     0.131 A 
ATOM      3  C   UNK d   1      18.533 -55.964  33.146  0.00  0.00     0.077 A 
ATOM      4  C   UNK d   1      17.602 -56.491  34.026  0.00  0.00     0.170 A 
ATOM      5  N   UNK d   1      17.357 -55.877  35.197  0.00  0.00    -0.174 NA
ATOM      6  N   UNK d   1      17.956 -54.766  35.594  0.00  0.00    -0.197 N 
ATOM      7  C   UNK d   1      18.865 -54.228  34.763  0.00  0.00     0.292 A 
ATOM      8  O   UNK d   1      19.479 -53.167  35.075  0.00  0.00    -0.264 OA
ENDROOT
BRANCH   3   9
ATOM      9  N   UNK d   1      18.850 -56.542  31.898  0.00  0.00    -0.375 N 
ATOM     10  C   UNK d   1      18.210 -56.101  30.664  0.00  0.00     0.143 C 
ATOM     11  C   UNK d   1      17.346 -57.296  30.219  0.00  0.00     0.145 C 
ATOM     12  N   UNK d   1      18.135 -58.487  30.161  0.00  0.00    -0.347 N 
ATOM     13  C   UNK d   1      19.583 -58.345  30.421  0.00  0.00     0.145 C 
ATOM     14  C   UNK d   1      17.604 -59.770  29.867  0.00  0.00     0.248 C 
ATOM     15  C   UNK d   1      19.822 -57.606  31.723  0.00  0.00     0.143 C 
ATOM     16  O   UNK d   1      18.344 -60.798  29.827  0.00  0.00    -0.270 OA
BRANCH  14  17
ATOM     17  C   UNK d   1      16.174 -59.998  29.592  0.00  0.00     0.213 C 
ATOM     18  O   UNK d   1      15.832 -59.538  28.357  0.00  0.00    -0.376 OA
ATOM     19  C   UNK d   1      14.815 -60.342  27.858  0.00  0.00     0.168 C 
ATOM     20  C   UNK d   1      15.313 -61.724  28.253  0.00  0.00     0.029 C 
ATOM     21  C   UNK d   1      15.803 -61.462  29.662  0.00  0.00     0.043 C 
ENDBRANCH  14  17
ENDBRANCH   3   9
BRANCH   6  22
ATOM     22  C   UNK d   1      17.651 -54.158  36.858  0.00  0.00     0.062 A 
ATOM     23  C   UNK d   1      16.636 -53.229  36.955  0.00  0.00     0.032 A 
ATOM     24  C   UNK d   1      16.327 -52.628  38.179  0.00  0.00     0.002 A 
ATOM     25  C   UNK d   1      17.034 -52.956  39.308  0.00  0.00     0.000 A 
ATOM     26  C   UNK d   1      18.046 -53.878  39.226  0.00  0.00     0.002 A 
ATOM     27  C   UNK d   1      18.336 -54.459  38.016  0.00  0.00     0.032 A 
ENDBRANCH   6  22
TORSDOF 3
ENDMDL
