/Users/jonathanwahrer/Desktop/Msc/3_Semester/Drug_Design_Praktikum/waehrer_HTS_screening/HTS_experiment/out/docking_results/vina_output/6s1j/2381_docked.pdbqt
 OpenBabel03222222503D

 30 33  0  0  0  0  0  0  0  0999 V2000
   18.7740  -54.3370   35.1250 N   0  0  0  0  0  0  0  0  0  0  0  0
   19.9690  -54.1230   35.8920 C   0  0  0  0  0  2  0  0  0  0  0  0
   19.6740  -54.0670   37.3740 C   0  0  0  0  0  2  0  0  0  0  0  0
   18.3890  -53.4740   37.6470 N   0  0  0  0  0  0  0  0  0  0  0  0
   17.7130  -52.7670   36.5860 C   0  0  0  0  0  2  0  0  0  0  0  0
   17.4950  -53.7390   35.4540 C   0  0  0  0  0  2  0  0  0  0  0  0
   17.8090  -53.5880   38.9350 C   0  0  0  0  0  0  0  0  0  0  0  0
   18.4000  -54.2100   39.8760 O   0  0  0  0  0  0  0  0  0  0  0  0
   18.8450  -55.1840   33.9770 C   0  0  0  0  0  0  0  0  0  0  0  0
   18.4370  -56.5030   34.0040 C   0  0  0  0  0  0  0  0  0  0  0  0
   17.8040  -57.1640   35.4940 Cl  0  0  0  0  0  0  0  0  0  0  0  0
   18.5390  -57.2620   32.8490 C   0  0  0  0  0  0  0  0  0  0  0  0
   19.0200  -56.7790   31.6890 N   0  0  0  0  0  0  0  0  0  0  0  0
   18.1730  -58.4550   32.8660 O   0  0  0  0  0  0  0  0  0  0  0  0
   19.4060  -55.5140   31.6800 N   0  0  0  0  0  0  0  0  0  0  0  0
   19.3340  -54.7240   32.7670 C   0  0  0  0  0  3  0  0  0  0  0  0
   19.1020  -57.6120   30.5280 C   0  0  0  0  0  0  0  0  0  0  0  0
   20.3070  -58.1530   30.1300 C   0  0  0  0  0  3  0  0  0  0  0  0
   20.3960  -58.9570   29.0110 C   0  0  0  0  0  3  0  0  0  0  0  0
   19.2900  -59.2580   28.2430 C   0  0  0  0  0  3  0  0  0  0  0  0
   18.0820  -58.7210   28.6360 C   0  0  0  0  0  3  0  0  0  0  0  0
   18.0000  -57.9190   29.7520 C   0  0  0  0  0  3  0  0  0  0  0  0
   16.4870  -52.9940   39.2690 C   0  0  0  0  0  2  0  0  0  0  0  0
   15.4480  -53.5830   38.5350 O   0  0  0  0  0  0  0  0  0  0  0  0
   15.1550  -54.9240   38.6850 C   0  0  0  0  0  0  0  0  0  0  0  0
   14.3900  -55.5390   39.5940 N   0  0  0  0  0  0  0  0  0  0  0  0
   14.3770  -56.8140   39.3820 O   0  0  0  0  0  0  0  0  0  0  0  0
   15.1150  -57.1360   38.3400 C   0  0  0  0  0  0  0  0  0  0  0  0
   15.6280  -55.9440   37.8700 C   0  0  0  0  0  3  0  0  0  0  0  0
   15.2900  -58.5170   37.8560 C   0  0  0  0  0  1  0  0  0  0  0  0
  1  6  1  0  0  0  0
  1  2  1  0  0  0  0
  2  3  1  0  0  0  0
  3  4  1  0  0  0  0
  4  7  1  0  0  0  0
  5  4  1  0  0  0  0
  6  5  1  0  0  0  0
  7 23  1  0  0  0  0
  7  8  2  0  0  0  0
  9 10  2  0  0  0  0
  9  1  1  0  0  0  0
 10 11  1  0  0  0  0
 12 14  2  0  0  0  0
 12 10  1  0  0  0  0
 13 12  1  0  0  0  0
 15 13  1  0  0  0  0
 15 16  2  0  0  0  0
 16  9  1  0  0  0  0
 17 13  1  0  0  0  0
 18 17  1  0  0  0  0
 19 18  2  0  0  0  0
 20 21  2  0  0  0  0
 20 19  1  0  0  0  0
 21 22  1  0  0  0  0
 22 17  2  0  0  0  0
 24 25  1  0  0  0  0
 24 23  1  0  0  0  0
 25 26  2  0  0  0  0
 27 26  1  0  0  0  0
 28 27  1  0  0  0  0
 29 28  2  0  0  0  0
 29 25  1  0  0  0  0
 30 28  1  0  0  0  0
M  END
>  <Pose>
1

>  <Score>
-8.794

$$$$
