MODEL 1
REMARK VINA RESULT:    -8.794      0.000      0.000
REMARK INTER + INTRA:         -12.088
REMARK INTER:                 -11.365
REMARK INTRA:                  -0.723
REMARK UNBOUND:                -0.723
REMARK  5 active torsions:
REMARK  status: ('A' for Active; 'I' for Inactive)
REMARK    1  A    between atoms: C_3  and  N_15 
REMARK    2  A    between atoms: N_6  and  C_9 
REMARK       I    between atoms: N_18  and  C_21 
REMARK    3  A    between atoms: C_21  and  C_23 
REMARK    4  A    between atoms: C_23  and  O_24 
REMARK    5  A    between atoms: O_24  and  C_25 
ROOT
ATOM      1  N   UNK d   1      18.774 -54.337  35.125  0.00  0.00    -0.375 N 
ATOM      2  C   UNK d   1      19.969 -54.123  35.892  0.00  0.00     0.143 C 
ATOM      3  C   UNK d   1      19.674 -54.067  37.374  0.00  0.00     0.145 C 
ATOM      4  N   UNK d   1      18.389 -53.474  37.647  0.00  0.00    -0.347 N 
ATOM      5  C   UNK d   1      17.713 -52.767  36.586  0.00  0.00     0.145 C 
ATOM      6  C   UNK d   1      17.495 -53.739  35.454  0.00  0.00     0.143 C 
ATOM      7  C   UNK d   1      17.809 -53.588  38.935  0.00  0.00     0.244 C 
ATOM      8  O   UNK d   1      18.400 -54.210  39.876  0.00  0.00    -0.271 OA
ENDROOT
BRANCH   1   9
ATOM      9  C   UNK d   1      18.845 -55.184  33.977  0.00  0.00     0.077 A 
ATOM     10  C   UNK d   1      18.437 -56.503  34.004  0.00  0.00     0.131 A 
ATOM     11 Cl   UNK d   1      17.804 -57.164  35.494  0.00  0.00    -0.076 Cl
ATOM     12  C   UNK d   1      18.539 -57.262  32.849  0.00  0.00     0.292 A 
ATOM     13  N   UNK d   1      19.020 -56.779  31.689  0.00  0.00    -0.197 N 
ATOM     14  O   UNK d   1      18.173 -58.455  32.866  0.00  0.00    -0.264 OA
ATOM     15  N   UNK d   1      19.406 -55.514  31.680  0.00  0.00    -0.174 NA
ATOM     16  C   UNK d   1      19.334 -54.724  32.767  0.00  0.00     0.170 A 
BRANCH  13  17
ATOM     17  C   UNK d   1      19.102 -57.612  30.528  0.00  0.00     0.062 A 
ATOM     18  C   UNK d   1      20.307 -58.153  30.130  0.00  0.00     0.032 A 
ATOM     19  C   UNK d   1      20.396 -58.957  29.011  0.00  0.00     0.002 A 
ATOM     20  C   UNK d   1      19.290 -59.258  28.243  0.00  0.00     0.000 A 
ATOM     21  C   UNK d   1      18.082 -58.721  28.636  0.00  0.00     0.002 A 
ATOM     22  C   UNK d   1      18.000 -57.919  29.752  0.00  0.00     0.032 A 
ENDBRANCH  13  17
ENDBRANCH   1   9
BRANCH   7  23
ATOM     23  C   UNK d   1      16.487 -52.994  39.269  0.00  0.00     0.280 C 
BRANCH  23  24
ATOM     24  O   UNK d   1      15.448 -53.583  38.535  0.00  0.00    -0.324 OA
BRANCH  24  25
ATOM     25  C   UNK d   1      15.155 -54.924  38.685  0.00  0.00     0.194 A 
ATOM     26  N   UNK d   1      14.390 -55.539  39.594  0.00  0.00    -0.103 NA
ATOM     27  O   UNK d   1      14.377 -56.814  39.382  0.00  0.00    -0.216 OA
ATOM     28  C   UNK d   1      15.115 -57.136  38.340  0.00  0.00     0.079 A 
ATOM     29  C   UNK d   1      15.628 -55.944  37.870  0.00  0.00     0.094 A 
ATOM     30  C   UNK d   1      15.290 -58.517  37.856  0.00  0.00     0.079 C 
ENDBRANCH  24  25
ENDBRANCH  23  24
ENDBRANCH   7  23
TORSDOF 5
ENDMDL
