MODEL 1
REMARK VINA RESULT:    -9.468      0.000      0.000
REMARK INTER + INTRA:         -12.546
REMARK INTER:                 -11.681
REMARK INTRA:                  -0.865
REMARK UNBOUND:                -0.865
REMARK  4 active torsions:
REMARK  status: ('A' for Active; 'I' for Inactive)
REMARK       I    between atoms: N_11  and  C_13 
REMARK    1  A    between atoms: C_13  and  C_15 
REMARK    2  A    between atoms: C_15  and  C_16 
REMARK    3  A    between atoms: C_16  and  C_17 
REMARK    4  A    between atoms: C_17  and  N_18 
ROOT
ATOM      1 Cl   UNK d   1      15.102 -57.786  36.005  0.00  0.00    -0.084 Cl
ATOM      2  C   UNK d   1      16.382 -57.602  34.811  0.00  0.00     0.034 A 
ATOM      3  C   UNK d   1      16.673 -56.307  34.386  0.00  0.00     0.035 A 
ATOM      4  C   UNK d   1      17.672 -56.146  33.453  0.00  0.00    -0.005 A 
ATOM      5  C   UNK d   1      18.357 -57.249  32.962  0.00  0.00     0.078 A 
ATOM      6  C   UNK d   1      18.061 -58.538  33.390  0.00  0.00     0.039 A 
ATOM      7  C   UNK d   1      17.057 -58.698  34.328  0.00  0.00     0.026 A 
ATOM      8  O   UNK d   1      19.372 -57.170  32.023  0.00  0.00    -0.338 OA
ATOM      9  C   UNK d   1      19.590 -56.224  31.013  0.00  0.00     0.088 C 
ATOM     10  C   UNK d   1      19.780 -54.820  31.461  0.00  0.00     0.164 C 
ATOM     11  N   UNK d   1      19.232 -54.472  32.732  0.00  0.00    -0.345 N 
ATOM     12  C   UNK d   1      17.837 -54.704  33.128  0.00  0.00     0.167 C 
ATOM     13  C   UNK d   1      20.073 -53.848  33.694  0.00  0.00     0.220 C 
ATOM     14  O   UNK d   1      21.259 -53.635  33.356  0.00  0.00    -0.273 OA
ATOM     15  C   UNK d   1      20.834 -56.659  30.216  0.00  0.00     0.066 C 
ATOM     16  C   UNK d   1      20.622 -58.104  29.853  0.00  0.00     0.170 C 
ATOM     17  O   UNK d   1      19.362 -58.561  30.200  0.00  0.00    -0.391 OA
ATOM     18  C   UNK d   1      18.347 -57.810  29.635  0.00  0.00     0.170 C 
ATOM     19  C   UNK d   1      18.455 -56.342  29.983  0.00  0.00     0.066 C 
ENDROOT
BRANCH  13  20
ATOM     20  C   UNK d   1      19.598 -53.461  35.014  0.00  0.00     0.104 C 
BRANCH  20  21
ATOM     21  C   UNK d   1      19.740 -54.426  36.119  0.00  0.00     0.029 C 
BRANCH  21  22
ATOM     22  C   UNK d   1      19.421 -54.016  37.496  0.00  0.00     0.137 C 
BRANCH  22  23
ATOM     23  N   UNK d   1      18.108 -53.617  37.840  0.00  0.00    -0.269 N 
ATOM     24  C   UNK d   1      17.001 -54.484  38.015  0.00  0.00     0.325 C 
ATOM     25  O   UNK d   1      16.963 -55.746  37.911  0.00  0.00    -0.247 OA
ATOM     26  N   UNK d   1      15.886 -53.674  38.343  0.00  0.00    -0.334 N 
ATOM     27  C   UNK d   1      16.366 -52.353  38.740  0.00  0.00     0.227 C 
ATOM     28  H   UNK d   1      14.881 -53.936  38.319  0.00  0.00     0.164 HD
ATOM     29  C   UNK d   1      17.676 -52.288  38.057  0.00  0.00     0.245 C 
ATOM     30  O   UNK d   1      18.287 -51.207  37.733  0.00  0.00    -0.271 OA
ENDBRANCH  22  23
ENDBRANCH  21  22
ENDBRANCH  20  21
ENDBRANCH  13  20
TORSDOF 4
ENDMDL
