MODEL 1
REMARK VINA RESULT:    -8.398      0.000      0.000
REMARK INTER + INTRA:         -12.229
REMARK INTER:                 -11.344
REMARK INTRA:                  -0.885
REMARK UNBOUND:                -0.885
REMARK  6 active torsions:
REMARK  status: ('A' for Active; 'I' for Inactive)
REMARK    1  A    between atoms: C_5  and  C_8 
REMARK    2  A    between atoms: N_9  and  C_28 
REMARK    3  A    between atoms: C_15  and  C_17 
REMARK    4  A    between atoms: C_25  and  O_26 
REMARK    5  A    between atoms: C_28  and  C_29 
REMARK    6  A    between atoms: C_29  and  N_30 
ROOT
ATOM      1  C   UNK d   1      17.145 -56.947  35.860  0.00  0.00     0.161 C 
ATOM      2  N   UNK d   1      17.196 -55.580  36.285  0.00  0.00    -0.331 N 
ATOM      3  C   UNK d   1      17.312 -54.712  35.169  0.00  0.00     0.295 C 
ATOM      4  O   UNK d   1      17.210 -53.464  35.091  0.00  0.00    -0.264 OA
ATOM      5  C   UNK d   1      17.601 -55.536  33.972  0.00  0.00     0.251 C 
ATOM      6  O   UNK d   1      17.771 -55.125  32.797  0.00  0.00    -0.282 OA
ATOM      7  C   UNK d   1      17.642 -56.903  34.457  0.00  0.00     0.064 C 
ATOM      8  C   UNK d   1      18.054 -57.929  33.703  0.00  0.00     0.153 C 
ATOM      9  O   UNK d   1      17.990 -59.175  34.340  0.00  0.00    -0.188 OA
ENDROOT
BRANCH   1  10
ATOM     10  C   UNK d   1      15.861 -57.604  36.038  0.00  0.00    -0.030 A 
ATOM     11  C   UNK d   1      15.572 -58.216  37.243  0.00  0.00     0.011 A 
ATOM     12  C   UNK d   1      14.397 -58.854  37.510  0.00  0.00     0.019 A 
ATOM     13  C   UNK d   1      13.427 -58.910  36.552  0.00  0.00     0.011 A 
ATOM     14 Br   UNK d   1      11.798 -59.815  36.977  0.00  0.00    -0.051 Br
ATOM     15  C   UNK d   1      13.653 -58.320  35.331  0.00  0.00     0.019 A 
ATOM     16  C   UNK d   1      14.865 -57.676  35.088  0.00  0.00     0.011 A 
ENDBRANCH   1  10
BRANCH   8  17
ATOM     17  C   UNK d   1      18.535 -57.780  32.334  0.00  0.00     0.114 A 
ATOM     18  O   UNK d   1      19.623 -57.267  31.874  0.00  0.00    -0.304 OA
ATOM     19  C   UNK d   1      19.732 -57.295  30.579  0.00  0.00     0.119 A 
ATOM     20  C   UNK d   1      18.588 -57.897  30.075  0.00  0.00     0.003 A 
ATOM     21  C   UNK d   1      20.701 -56.869  29.688  0.00  0.00     0.102 A 
ATOM     22  C   UNK d   1      17.841 -58.197  31.216  0.00  0.00     0.054 A 
ATOM     23  C   UNK d   1      18.442 -58.055  28.718  0.00  0.00     0.014 A 
ATOM     24  C   UNK d   1      19.417 -57.623  27.848  0.00  0.00     0.004 A 
ATOM     25  C   UNK d   1      20.566 -57.020  28.344  0.00  0.00     0.040 A 
BRANCH  21  26
ATOM     26  O   UNK d   1      21.830 -56.274  30.212  0.00  0.00    -0.353 OA
ATOM     27  C   UNK d   1      22.924 -55.800  29.440  0.00  0.00     0.210 C 
ENDBRANCH  21  26
ENDBRANCH   8  17
BRANCH   2  28
ATOM     28  C   UNK d   1      17.138 -55.115  37.644  0.00  0.00     0.155 C 
BRANCH  28  29
ATOM     29  C   UNK d   1      18.202 -54.068  37.921  0.00  0.00     0.254 C 
BRANCH  29  30
ATOM     30  N   UNK d   1      17.680 -52.840  38.412  0.00  0.00    -0.077 N 
ATOM     31  C   UNK d   1      18.091 -51.661  37.713  0.00  0.00     0.269 C 
ATOM     32  C   UNK d   1      16.228 -52.895  38.517  0.00  0.00     0.269 C 
ATOM     33  H   UNK d   1      18.031 -52.727  39.410  0.00  0.00     0.279 HD
ENDBRANCH  29  30
ENDBRANCH  28  29
ENDBRANCH   2  28
TORSDOF 6
ENDMDL
