/Users/jonathanwahrer/Desktop/Msc/3_Semester/Drug_Design_Praktikum/waehrer_HTS_screening/HTS_experiment/out/docking_results/vina_output/6s1j/2403_docked.pdbqt
 OpenBabel03222222503D

 26 29  0  0  0  0  0  0  0  0999 V2000
   15.2190  -57.6020   37.2650 N   0  0  0  0  0  0  0  0  0  0  0  0
   14.2580  -58.4260   36.8230 C   0  0  0  0  0  0  0  0  0  0  0  0
   14.6570  -59.0720   35.6580 C   0  0  0  0  0  0  0  0  0  0  0  0
   15.9040  -58.6070   35.4080 N   0  0  0  0  0  0  0  0  0  0  0  0
   16.2410  -57.7330   36.3600 C   0  0  0  0  0  3  0  0  0  0  0  0
   13.8840  -59.9550   34.9930 N   0  0  0  0  0  0  0  0  0  0  0  0
   12.6680  -60.1950   35.5180 C   0  0  0  0  0  0  0  0  0  0  0  0
   11.9310  -61.0190   34.9100 O   0  0  0  0  0  0  0  0  0  0  0  0
   12.2340  -59.5980   36.6380 N   0  0  0  0  0  0  0  0  0  0  0  0
   13.0060  -58.7150   37.3050 C   0  0  0  0  0  0  0  0  0  0  0  0
   12.6200  -58.1480   38.3460 O   0  0  0  0  0  0  0  0  0  0  0  0
   10.9210  -59.8600   37.2000 C   0  0  0  0  0  1  0  0  0  0  0  0
   14.3610  -60.5970   33.7830 C   0  0  0  0  0  1  0  0  0  0  0  0
   15.2590  -56.7520   38.4390 C   0  0  0  0  0  2  0  0  0  0  0  0
   16.0180  -55.4800   38.1950 C   0  0  0  0  0  0  0  0  0  0  0  0
   17.0460  -55.4950   37.3280 N   0  0  0  0  0  0  0  0  0  0  0  0
   17.7630  -54.3630   37.0660 C   0  0  0  0  0  0  0  0  0  0  0  0
   17.4610  -53.2020   37.6670 N   0  0  0  0  0  0  0  0  0  0  0  0
   18.8130  -54.4330   36.1640 C   0  0  0  0  0  3  0  0  0  0  0  0
   18.1690  -52.0830   37.4070 C   0  0  0  0  0  3  0  0  0  0  0  0
   16.4290  -53.1220   38.5560 C   0  0  0  0  0  0  0  0  0  0  0  0
   19.2070  -52.1430   36.5190 C   0  0  0  0  0  0  0  0  0  0  0  0
   20.1880  -50.5460   36.1730 Br  0  0  0  0  0  0  0  0  0  0  0  0
   19.5520  -53.3120   35.8800 C   0  0  0  0  0  3  0  0  0  0  0  0
   15.7260  -54.2820   38.7990 C   0  0  0  0  0  3  0  0  0  0  0  0
   16.1830  -52.0290   39.0890 O   0  0  0  0  0  0  0  0  0  0  0  0
  1 14  1  0  0  0  0
  2  1  1  0  0  0  0
  2 10  1  0  0  0  0
  3  2  2  0  0  0  0
  4  3  1  0  0  0  0
  4  5  2  0  0  0  0
  5  1  1  0  0  0  0
  6  7  1  0  0  0  0
  6  3  1  0  0  0  0
  7  9  1  0  0  0  0
  8  7  2  0  0  0  0
  9 12  1  0  0  0  0
  9 10  1  0  0  0  0
 10 11  2  0  0  0  0
 13  6  1  0  0  0  0
 15 14  1  0  0  0  0
 15 25  2  0  0  0  0
 16 15  1  0  0  0  0
 17 16  2  0  0  0  0
 17 18  1  0  0  0  0
 18 21  1  0  0  0  0
 19 17  1  0  0  0  0
 20 18  1  0  0  0  0
 21 25  1  0  0  0  0
 21 26  2  0  0  0  0
 22 20  2  0  0  0  0
 23 22  1  0  0  0  0
 24 19  2  0  0  0  0
 24 22  1  0  0  0  0
M  END
>  <Pose>
1

>  <Score>
-9.429

$$$$
