MODEL 1
REMARK VINA RESULT:    -9.429      0.000      0.000
REMARK INTER + INTRA:          -9.950
REMARK INTER:                 -10.531
REMARK INTRA:                   0.581
REMARK UNBOUND:                 0.581
REMARK  2 active torsions:
REMARK  status: ('A' for Active; 'I' for Inactive)
REMARK    1  A    between atoms: C_7  and  C_11 
REMARK    2  A    between atoms: C_11  and  N_12 
ROOT
ATOM      1  N   UNK d   1      15.219 -57.602  37.265  0.00  0.00    -0.328 N 
ATOM      2  C   UNK d   1      14.258 -58.426  36.823  0.00  0.00     0.151 A 
ATOM      3  C   UNK d   1      14.657 -59.072  35.658  0.00  0.00     0.167 A 
ATOM      4  N   UNK d   1      15.904 -58.607  35.408  0.00  0.00    -0.223 NA
ATOM      5  C   UNK d   1      16.241 -57.733  36.360  0.00  0.00     0.213 A 
ATOM      6  N   UNK d   1      13.884 -59.955  34.993  0.00  0.00    -0.286 N 
ATOM      7  C   UNK d   1      12.668 -60.195  35.518  0.00  0.00     0.332 A 
ATOM      8  O   UNK d   1      11.931 -61.019  34.910  0.00  0.00    -0.246 OA
ATOM      9  N   UNK d   1      12.234 -59.598  36.638  0.00  0.00    -0.269 N 
ATOM     10  C   UNK d   1      13.006 -58.715  37.305  0.00  0.00     0.282 A 
ATOM     11  O   UNK d   1      12.620 -58.148  38.346  0.00  0.00    -0.265 OA
ATOM     12  C   UNK d   1      10.921 -59.860  37.200  0.00  0.00     0.164 C 
ATOM     13  C   UNK d   1      14.361 -60.597  33.783  0.00  0.00     0.163 C 
ENDROOT
BRANCH   1  14
ATOM     14  C   UNK d   1      15.259 -56.752  38.439  0.00  0.00     0.189 C 
BRANCH  14  15
ATOM     15  C   UNK d   1      16.018 -55.480  38.195  0.00  0.00     0.060 A 
ATOM     16  N   UNK d   1      17.046 -55.495  37.328  0.00  0.00    -0.233 NA
ATOM     17  C   UNK d   1      17.763 -54.363  37.066  0.00  0.00     0.137 A 
ATOM     18  N   UNK d   1      17.461 -53.202  37.667  0.00  0.00    -0.272 N 
ATOM     19  C   UNK d   1      18.813 -54.433  36.164  0.00  0.00     0.052 A 
ATOM     20  C   UNK d   1      18.169 -52.083  37.407  0.00  0.00     0.121 A 
ATOM     21  C   UNK d   1      16.429 -53.122  38.556  0.00  0.00     0.255 A 
ATOM     22  C   UNK d   1      19.207 -52.143  36.519  0.00  0.00     0.027 A 
ATOM     23 Br   UNK d   1      20.188 -50.546  36.173  0.00  0.00    -0.050 Br
ATOM     24  C   UNK d   1      19.552 -53.312  35.880  0.00  0.00     0.024 A 
ATOM     25  C   UNK d   1      15.726 -54.282  38.799  0.00  0.00     0.103 A 
ATOM     26  O   UNK d   1      16.183 -52.029  39.089  0.00  0.00    -0.268 OA
ENDBRANCH  14  15
ENDBRANCH   1  14
TORSDOF 2
ENDMDL
