/Users/jonathanwahrer/Desktop/Msc/3_Semester/Drug_Design_Praktikum/waehrer_HTS_screening/HTS_experiment/out/docking_results/vina_output/6s1j/2416_docked.pdbqt
 OpenBabel03222222513D

 34 37  0  0  1  0  0  0  0  0999 V2000
   17.7180  -57.1290   32.7270 N   0  0  0  0  0  0  0  0  0  0  0  0
   19.0360  -57.2620   32.3020 C   0  0  0  0  0  2  0  0  0  0  0  0
   19.5170  -55.9170   31.7410 C   0  0  0  0  0  2  0  0  0  0  0  0
   19.0200  -54.8300   32.5870 N   0  0  0  0  0  0  0  0  0  0  0  0
   17.5820  -54.7540   32.7500 C   0  0  0  0  0  2  0  0  0  0  0  0
   17.0130  -56.0540   32.1620 C   0  0  0  0  0  2  0  0  0  0  0  0
   19.9300  -53.9330   33.2120 C   0  0  0  0  0  0  0  0  0  0  0  0
   21.1540  -54.1160   33.0100 O   0  0  0  0  0  0  0  0  0  0  0  0
   19.4440  -52.8430   34.0580 C   0  0  0  0  0  2  0  0  0  0  0  0
   20.2120  -52.6790   35.3620 C   0  0  2  0  0  3  0  0  0  0  0  0
   20.1330  -53.8280   36.2250 N   0  0  0  0  0  0  0  0  0  0  0  0
   19.4910  -54.0460   37.4730 C   0  0  0  0  0  0  0  0  0  0  0  0
   20.6400  -54.7120   35.9050 H   0  0  0  0  0  0  0  0  0  0  0  0
   19.8760  -54.9790   38.2260 O   0  0  0  0  0  0  0  0  0  0  0  0
   18.3640  -53.2750   38.0420 C   0  0  0  0  0  0  0  0  0  0  0  0
   18.0220  -51.9500   37.7480 C   0  0  0  0  0  0  0  0  0  0  0  0
   17.5990  -53.9780   38.9370 C   0  0  0  0  0  3  0  0  0  0  0  0
   16.9390  -51.3840   38.3580 C   0  0  0  0  0  3  0  0  0  0  0  0
   18.7070  -51.0940   36.8470 N   0  0  0  0  0  0  0  0  0  0  0  0
   16.1430  -52.0760   39.2740 C   0  0  0  0  0  3  0  0  0  0  0  0
   16.5090  -53.3950   39.5440 C   0  0  0  0  0  3  0  0  0  0  0  0
   19.8200  -51.4050   36.0020 C   0  0  0  0  0  0  0  0  0  0  0  0
   18.3500  -50.1400   36.8030 H   0  0  0  0  0  0  0  0  0  0  0  0
   20.5710  -50.3870   35.7930 O   0  0  0  0  0  0  0  0  0  0  0  0
   16.9370  -58.3180   33.5780 S   0  0  0  0  0  0  0  0  0  0  0  0
   15.6780  -58.7110   32.8280 O   0  0  0  0  0  0  0  0  0  0  0  0
   17.7340  -59.5970   33.7280 O   0  0  0  0  0  0  0  0  0  0  0  0
   16.4180  -57.8210   35.1930 C   0  0  0  0  0  0  0  0  0  0  0  0
   16.7820  -56.6060   35.7250 C   0  0  0  0  0  3  0  0  0  0  0  0
   16.3570  -56.2660   36.9900 C   0  0  0  0  0  3  0  0  0  0  0  0
   15.5670  -57.0890   37.7720 C   0  0  0  0  0  0  0  0  0  0  0  0
   15.2000  -58.3150   37.2310 C   0  0  0  0  0  3  0  0  0  0  0  0
   15.0260  -56.6670   39.3630 Cl  0  0  0  0  0  0  0  0  0  0  0  0
   15.6290  -58.6510   35.9670 C   0  0  0  0  0  3  0  0  0  0  0  0
  1 25  1  0  0  0  0
  2  1  1  0  0  0  0
  3  2  1  0  0  0  0
  3  4  1  0  0  0  0
  4  5  1  0  0  0  0
  4  7  1  0  0  0  0
  6  1  1  0  0  0  0
  6  5  1  0  0  0  0
  7  9  1  0  0  0  0
  8  7  2  0  0  0  0
 10  9  1  6  0  0  0
 10 22  1  0  0  0  0
 10 11  1  0  0  0  0
 11 12  1  0  0  0  0
 12 15  1  0  0  0  0
 12 14  2  0  0  0  0
 13 11  1  0  0  0  0
 15 17  1  0  0  0  0
 16 15  2  0  0  0  0
 16 18  1  0  0  0  0
 17 21  2  0  0  0  0
 18 20  2  0  0  0  0
 19 16  1  0  0  0  0
 20 21  1  0  0  0  0
 22 19  1  0  0  0  0
 23 19  1  0  0  0  0
 24 22  2  0  0  0  0
 25 27  2  0  0  0  0
 25 28  1  0  0  0  0
 26 25  2  0  0  0  0
 28 29  2  0  0  0  0
 28 34  1  0  0  0  0
 29 30  1  0  0  0  0
 30 31  2  0  0  0  0
 31 33  1  0  0  0  0
 32 31  1  0  0  0  0
 34 32  2  0  0  0  0
M  END
>  <Pose>
1

>  <Score>
-10.008

$$$$
