MODEL 1
REMARK VINA RESULT:    -8.899      0.000      0.000
REMARK INTER + INTRA:         -12.770
REMARK INTER:                 -11.760
REMARK INTRA:                  -1.010
REMARK UNBOUND:                -1.010
REMARK  6 active torsions:
REMARK  status: ('A' for Active; 'I' for Inactive)
REMARK    1  A    between atoms: C_7  and  C_8 
REMARK    2  A    between atoms: C_8  and  N_9 
REMARK    3  A    between atoms: C_11  and  C_16 
REMARK    4  A    between atoms: C_12  and  C_14 
REMARK    5  A    between atoms: C_14  and  O_15 
REMARK    6  A    between atoms: C_16  and  N_17 
ROOT
ATOM      1  N   UNK d   1      18.848 -55.433  33.629  0.00  0.00     0.095 N 
ATOM      2  C   UNK d   1      17.376 -55.278  33.563  0.00  0.00     0.279 C 
ATOM      3  C   UNK d   1      16.912 -56.660  33.488  0.00  0.00     0.050 C 
ATOM      4  C   UNK d   1      17.764 -57.183  32.343  0.00  0.00     0.045 C 
ATOM      5  C   UNK d   1      19.132 -56.576  32.873  0.00  0.00     0.280 C 
ENDROOT
BRANCH   1   6
ATOM      6  C   UNK d   1      19.191 -55.427  35.059  0.00  0.00     0.334 C 
BRANCH   6   7
ATOM      7  C   UNK d   1      19.194 -54.149  35.726  0.00  0.00     0.097 A 
ATOM      8  C   UNK d   1      18.319 -53.604  36.639  0.00  0.00     0.042 A 
ATOM      9  C   UNK d   1      17.294 -54.174  37.355  0.00  0.00     0.048 A 
ATOM     10  C   UNK d   1      18.624 -52.289  36.906  0.00  0.00     0.066 A 
ATOM     11 Cl   UNK d   1      16.816 -55.814  36.930  0.00  0.00    -0.083 Cl
ATOM     12  C   UNK d   1      16.603 -53.482  38.313  0.00  0.00     0.025 A 
ATOM     13  C   UNK d   1      16.930 -52.154  38.569  0.00  0.00     0.004 A 
ATOM     14  C   UNK d   1      17.966 -51.556  37.845  0.00  0.00     0.032 A 
ATOM     15  N   UNK d   1      19.696 -52.016  36.130  0.00  0.00    -0.273 N 
ATOM     16  N   UNK d   1      20.032 -53.083  35.455  0.00  0.00    -0.174 NA
ATOM     17  C   UNK d   1      20.295 -50.678  35.991  0.00  0.00     0.180 C 
ENDBRANCH   6   7
ENDBRANCH   1   6
BRANCH   3  18
ATOM     18  C   UNK d   1      15.447 -56.846  33.178  0.00  0.00     0.279 C 
BRANCH  18  19
ATOM     19  N   UNK d   1      14.797 -57.346  34.348  0.00  0.00     0.093 N 
ATOM     20  C   UNK d   1      13.433 -57.766  34.103  0.00  0.00     0.298 C 
ATOM     21  C   UNK d   1      13.175 -59.215  34.444  0.00  0.00     0.198 C 
ATOM     22  O   UNK d   1      13.542 -59.563  35.724  0.00  0.00    -0.388 OA
ATOM     23  C   UNK d   1      14.688 -58.903  36.156  0.00  0.00     0.198 C 
ATOM     24  C   UNK d   1      15.483 -58.458  34.966  0.00  0.00     0.298 C 
ENDBRANCH  18  19
ENDBRANCH   3  18
BRANCH   4  25
ATOM     25  C   UNK d   1      17.509 -56.422  31.074  0.00  0.00     0.170 C 
BRANCH  25  26
ATOM     26  O   UNK d   1      16.912 -57.289  30.122  0.00  0.00    -0.400 OA
ATOM     27  H   UNK d   1      16.473 -58.040  30.680  0.00  0.00     0.209 HD
ENDBRANCH  25  26
ENDBRANCH   4  25
TORSDOF 6
ENDMDL
