MODEL 1
REMARK VINA RESULT:    -8.537      0.000      0.000
REMARK INTER + INTRA:         -10.045
REMARK INTER:                  -9.535
REMARK INTRA:                  -0.511
REMARK UNBOUND:                -0.511
REMARK  2 active torsions:
REMARK  status: ('A' for Active; 'I' for Inactive)
REMARK    1  A    between atoms: C_4  and  C_8 
REMARK       I    between atoms: C_8  and  N_10 
REMARK    2  A    between atoms: N_13  and  C_16 
ROOT
ATOM      1  C   UNK d   1      16.496 -56.894  32.927  0.00  0.00     0.204 C 
ATOM      2  O   UNK d   1      15.466 -56.395  32.269  0.00  0.00    -0.170 OA
ATOM      3  N   UNK d   1      16.233 -57.923  33.817  0.00  0.00    -0.355 N 
ATOM      4  C   UNK d   1      14.821 -58.344  33.990  0.00  0.00     0.145 C 
ATOM      5  C   UNK d   1      14.489 -58.098  35.437  0.00  0.00     0.144 C 
ATOM      6  N   UNK d   1      15.597 -57.696  36.245  0.00  0.00    -0.362 N 
ATOM      7  C   UNK d   1      16.970 -58.126  36.024  0.00  0.00     0.144 C 
ATOM      8  C   UNK d   1      17.127 -58.677  34.615  0.00  0.00     0.145 C 
ENDROOT
BRANCH   1   9
ATOM      9  C   UNK d   1      17.734 -56.248  32.576  0.00  0.00     0.089 A 
ATOM     10  N   UNK d   1      18.545 -56.414  31.531  0.00  0.00    -0.342 N 
ATOM     11  C   UNK d   1      19.614 -55.572  31.580  0.00  0.00     0.126 A 
ATOM     12  H   UNK d   1      18.472 -57.077  30.733  0.00  0.00     0.167 HD
ATOM     13 Cl   UNK d   1      20.934 -55.424  30.439  0.00  0.00    -0.063 Cl
ATOM     14  C   UNK d   1      19.508 -54.812  32.712  0.00  0.00     0.074 A 
ATOM     15  C   UNK d   1      18.349 -55.233  33.321  0.00  0.00     0.061 A 
ATOM     16 Cl   UNK d   1      20.622 -53.573  33.250  0.00  0.00    -0.081 Cl
ENDBRANCH   1   9
BRANCH   6  17
ATOM     17  C   UNK d   1      15.389 -56.818  37.343  0.00  0.00     0.142 A 
ATOM     18  N   UNK d   1      14.546 -57.141  38.342  0.00  0.00    -0.224 NA
ATOM     19  C   UNK d   1      14.334 -56.316  39.394  0.00  0.00     0.237 A 
ATOM     20  N   UNK d   1      14.970 -55.134  39.471  0.00  0.00    -0.222 NA
ATOM     21  C   UNK d   1      15.827 -54.739  38.516  0.00  0.00     0.162 A 
ATOM     22  N   UNK d   1      16.576 -53.632  38.358  0.00  0.00    -0.256 N 
ATOM     23  C   UNK d   1      16.034 -55.604  37.435  0.00  0.00     0.076 A 
ATOM     24  N   UNK d   1      17.238 -53.770  37.227  0.00  0.00    -0.182 NA
ATOM     25  C   UNK d   1      16.663 -52.475  39.249  0.00  0.00     0.182 C 
ATOM     26  C   UNK d   1      16.938 -54.951  36.638  0.00  0.00     0.158 A 
ENDBRANCH   6  17
TORSDOF 2
ENDMDL
