MODEL 1
REMARK VINA RESULT:    -9.832      0.000      0.000
REMARK INTER + INTRA:         -13.709
REMARK INTER:                 -12.706
REMARK INTRA:                  -1.002
REMARK UNBOUND:                -1.002
REMARK  5 active torsions:
REMARK  status: ('A' for Active; 'I' for Inactive)
REMARK    1  A    between atoms: C_5  and  C_8 
REMARK    2  A    between atoms: N_15  and  C_16 
REMARK    3  A    between atoms: C_16  and  C_17 
REMARK    4  A    between atoms: C_17  and  C_18 
REMARK    5  A    between atoms: C_18  and  N_19 
ROOT
ATOM      1  C   UNK d   1      15.266 -57.193  36.319  0.00  0.00     0.078 A 
ATOM      2  C   UNK d   1      14.270 -58.108  35.933  0.00  0.00     0.146 A 
ATOM      3  N   UNK d   1      13.508 -58.390  36.988  0.00  0.00    -0.153 N 
ATOM      4  C   UNK d   1      12.439 -59.132  37.378  0.00  0.00     0.083 A 
ATOM      5  C   UNK d   1      12.253 -58.882  38.694  0.00  0.00     0.077 A 
ATOM      6  N   UNK d   1      13.197 -58.007  39.069  0.00  0.00    -0.189 N 
ATOM      7  C   UNK d   1      13.986 -57.690  38.018  0.00  0.00     0.692 A 
ATOM      8  N   UNK d   1      15.070 -56.946  37.621  0.00  0.00    -0.180 N 
ATOM      9  C   UNK d   1      11.226 -59.496  39.389  0.00  0.00     0.032 A 
ATOM     10  C   UNK d   1      10.371 -60.380  38.752  0.00  0.00     0.002 A 
ATOM     11  C   UNK d   1      10.562 -60.637  37.401  0.00  0.00     0.002 A 
ATOM     12  C   UNK d   1      11.594 -60.007  36.741  0.00  0.00     0.033 A 
ATOM     13  H   UNK d   1      13.323 -57.623  40.042  0.00  0.00     0.184 HD
ENDROOT
BRANCH   8  14
ATOM     14  C   UNK d   1      15.821 -56.107  38.496  0.00  0.00     0.149 C 
BRANCH  14  15
ATOM     15  C   UNK d   1      15.267 -54.721  38.703  0.00  0.00     0.048 C 
BRANCH  15  16
ATOM     16  C   UNK d   1      15.947 -53.623  38.014  0.00  0.00     0.236 C 
BRANCH  16  17
ATOM     17  N   UNK d   1      16.943 -52.859  38.706  0.00  0.00    -0.071 N 
ATOM     18  C   UNK d   1      18.027 -53.683  39.208  0.00  0.00     0.235 C 
ATOM     19  C   UNK d   1      19.148 -53.918  38.288  0.00  0.00     0.028 C 
ATOM     20  C   UNK d   1      19.191 -53.087  37.060  0.00  0.00     0.003 C 
ATOM     21  C   UNK d   1      18.647 -51.725  37.311  0.00  0.00     0.028 C 
ATOM     22  C   UNK d   1      17.361 -51.672  38.048  0.00  0.00     0.235 C 
ATOM     23  H   UNK d   1      16.473 -52.559  39.589  0.00  0.00     0.279 HD
ENDBRANCH  16  17
ENDBRANCH  15  16
ENDBRANCH  14  15
ENDBRANCH   8  14
BRANCH   1  24
ATOM     24  C   UNK d   1      16.276 -56.708  35.371  0.00  0.00    -0.007 A 
ATOM     25  C   UNK d   1      15.944 -56.662  34.018  0.00  0.00     0.015 A 
ATOM     26  C   UNK d   1      16.803 -56.215  33.033  0.00  0.00     0.020 A 
ATOM     27  C   UNK d   1      18.056 -55.783  33.358  0.00  0.00     0.011 A 
ATOM     28 Br   UNK d   1      19.271 -55.159  32.043  0.00  0.00    -0.051 Br
ATOM     29  C   UNK d   1      18.412 -55.814  34.679  0.00  0.00     0.020 A 
ATOM     30  C   UNK d   1      17.527 -56.275  35.683  0.00  0.00     0.015 A 
ENDBRANCH   1  24
TORSDOF 5
ENDMDL
