/Users/jonathanwahrer/Desktop/Msc/3_Semester/Drug_Design_Praktikum/waehrer_HTS_screening/HTS_experiment/out/docking_results/vina_output/6s1j/2440_docked.pdbqt
 OpenBabel03222222523D

 33 36  0  0  1  0  0  0  0  0999 V2000
   15.3340  -61.5950   33.1610 Cl  0  0  0  0  0  0  0  0  0  0  0  0
   14.8500  -60.1010   33.9580 C   0  0  0  0  0  0  0  0  0  0  0  0
   15.8510  -59.1470   34.1940 C   0  0  0  0  0  0  0  0  0  0  0  0
   15.4710  -57.9880   34.8140 C   0  0  0  0  0  0  0  0  0  0  0  0
   14.1320  -57.7640   35.1980 C   0  0  0  0  0  3  0  0  0  0  0  0
   13.1620  -58.7040   34.9620 C   0  0  0  0  0  3  0  0  0  0  0  0
   13.5500  -59.8700   34.3380 C   0  0  0  0  0  3  0  0  0  0  0  0
   16.6610  -57.1380   34.9480 C   0  0  2  0  0  0  0  0  0  0  0  0
   16.9030  -56.6600   36.2620 N   0  0  0  0  0  0  0  0  0  0  0  0
   17.5640  -55.4300   36.2500 C   0  0  1  0  0  3  0  0  0  0  0  0
   17.3670  -54.8920   34.8500 C   0  0  2  0  0  3  0  0  0  0  0  0
   16.5130  -55.8690   34.1100 C   0  0  1  0  0  3  0  0  0  0  0  0
   17.0850  -56.0250   32.7470 C   0  0  0  0  0  0  0  0  0  0  0  0
   16.5480  -56.6960   31.8350 O   0  0  0  0  0  0  0  0  0  0  0  0
   18.3100  -55.2920   32.6990 N   0  0  0  0  0  0  0  0  0  0  0  0
   18.6100  -54.9020   34.0470 C   0  0  0  0  0  0  0  0  0  0  0  0
   19.7470  -54.6200   34.4580 O   0  0  0  0  0  0  0  0  0  0  0  0
   17.7660  -57.9230   34.3890 C   0  0  0  0  0  0  0  0  0  0  0  0
   18.9970  -57.6220   34.3080 O   0  0  0  0  0  0  0  0  0  0  0  0
   17.2460  -59.1500   33.9150 N   0  0  0  0  0  0  0  0  0  0  0  0
   17.2060  -57.3660   36.9530 H   0  0  0  0  0  0  0  0  0  0  0  0
   17.7490  -59.9380   33.4430 H   0  0  0  0  0  0  0  0  0  0  0  0
   17.2670  -54.4370   37.3060 C   0  0  0  0  0  2  0  0  0  0  0  0
   18.3900  -53.6830   37.8960 C   0  0  0  0  0  2  0  0  0  0  0  0
   18.7120  -52.3770   37.3130 C   0  0  0  0  0  0  0  0  0  0  0  0
   18.0940  -51.3550   37.6680 O   0  0  0  0  0  0  0  0  0  0  0  0
   19.7270  -52.1980   36.3290 N   0  0  0  0  0  0  0  0  0  0  0  0
   20.7380  -52.3150   36.5220 H   0  0  0  0  0  0  0  0  0  0  0  0
   19.4450  -51.9380   35.3680 H   0  0  0  0  0  0  0  0  0  0  0  0
   19.1060  -54.9790   31.5520 C   0  0  0  0  0  2  0  0  0  0  0  0
   19.8150  -56.1210   30.9180 C   0  0  0  0  0  2  0  0  0  0  0  0
   21.0540  -55.7980   30.1600 C   0  0  0  0  0  2  0  0  0  0  0  0
   21.8360  -57.0540   29.7910 C   0  0  0  0  0  1  0  0  0  0  0  0
  1  2  1  0  0  0  0
  2  3  2  0  0  0  0
  2  7  1  0  0  0  0
  3  4  1  0  0  0  0
  4  8  1  0  0  0  0
  4  5  2  0  0  0  0
  6  5  1  0  0  0  0
  7  6  2  0  0  0  0
  8 18  1  6  0  0  0
  8  9  1  0  0  0  0
  9 21  1  0  0  0  0
 10  9  1  0  0  0  0
 10 23  1  1  0  0  0
 11 16  1  6  0  0  0
 11 10  1  0  0  0  0
 12 13  1  6  0  0  0
 12 11  1  0  0  0  0
 12  8  1  0  0  0  0
 14 13  2  0  0  0  0
 15 13  1  0  0  0  0
 15 16  1  0  0  0  0
 16 17  2  0  0  0  0
 19 18  2  0  0  0  0
 20  3  1  0  0  0  0
 20 18  1  0  0  0  0
 22 20  1  0  0  0  0
 23 24  1  0  0  0  0
 25 26  2  0  0  0  0
 25 24  1  0  0  0  0
 27 28  1  0  0  0  0
 27 25  1  0  0  0  0
 29 27  1  0  0  0  0
 30 15  1  0  0  0  0
 31 30  1  0  0  0  0
 32 31  1  0  0  0  0
 33 32  1  0  0  0  0
M  END
>  <Pose>
1

>  <Score>
-8.614

$$$$
