MODEL 1
REMARK VINA RESULT:    -8.614      0.000      0.000
REMARK INTER + INTRA:         -12.642
REMARK INTER:                 -11.635
REMARK INTRA:                  -1.007
REMARK UNBOUND:                -1.007
REMARK  6 active torsions:
REMARK  status: ('A' for Active; 'I' for Inactive)
REMARK    1  A    between atoms: C_10  and  C_22 
REMARK    2  A    between atoms: N_15  and  C_18 
REMARK    3  A    between atoms: C_18  and  C_19 
REMARK    4  A    between atoms: C_19  and  C_20 
REMARK    5  A    between atoms: C_22  and  C_23 
REMARK    6  A    between atoms: C_23  and  C_24 
REMARK       I    between atoms: C_24  and  N_26 
ROOT
ATOM      1 Cl   UNK d   1      15.334 -61.595  33.161  0.00  0.00    -0.082 Cl
ATOM      2  C   UNK d   1      14.850 -60.101  33.958  0.00  0.00     0.061 A 
ATOM      3  C   UNK d   1      15.851 -59.147  34.194  0.00  0.00     0.066 A 
ATOM      4  C   UNK d   1      15.471 -57.988  34.814  0.00  0.00     0.008 A 
ATOM      5  C   UNK d   1      14.132 -57.764  35.198  0.00  0.00     0.012 A 
ATOM      6  C   UNK d   1      13.162 -58.704  34.962  0.00  0.00     0.002 A 
ATOM      7  C   UNK d   1      13.550 -59.870  34.338  0.00  0.00     0.026 A 
ATOM      8  C   UNK d   1      16.661 -57.138  34.948  0.00  0.00     0.151 A 
ATOM      9  N   UNK d   1      16.903 -56.660  36.262  0.00  0.00    -0.395 N 
ATOM     10  C   UNK d   1      17.564 -55.430  36.250  0.00  0.00     0.092 C 
ATOM     11  C   UNK d   1      17.367 -54.892  34.850  0.00  0.00     0.117 C 
ATOM     12  C   UNK d   1      16.513 -55.869  34.110  0.00  0.00     0.135 C 
ATOM     13  C   UNK d   1      17.085 -56.025  32.747  0.00  0.00     0.234 C 
ATOM     14  O   UNK d   1      16.548 -56.696  31.835  0.00  0.00    -0.272 OA
ATOM     15  N   UNK d   1      18.310 -55.292  32.699  0.00  0.00    -0.288 N 
ATOM     16  C   UNK d   1      18.610 -54.902  34.047  0.00  0.00     0.233 C 
ATOM     17  O   UNK d   1      19.747 -54.620  34.458  0.00  0.00    -0.272 OA
ATOM     18  C   UNK d   1      17.766 -57.923  34.389  0.00  0.00     0.256 A 
ATOM     19  O   UNK d   1      18.997 -57.622  34.308  0.00  0.00    -0.270 OA
ATOM     20  N   UNK d   1      17.246 -59.150  33.915  0.00  0.00    -0.323 N 
ATOM     21  H   UNK d   1      17.206 -57.366  36.953  0.00  0.00     0.155 HD
ATOM     22  H   UNK d   1      17.749 -59.938  33.443  0.00  0.00     0.169 HD
ENDROOT
BRANCH  10  23
ATOM     23  C   UNK d   1      17.267 -54.437  37.306  0.00  0.00     0.035 C 
BRANCH  23  24
ATOM     24  C   UNK d   1      18.390 -53.683  37.896  0.00  0.00     0.104 C 
BRANCH  24  25
ATOM     25  C   UNK d   1      18.712 -52.377  37.313  0.00  0.00     0.215 C 
ATOM     26  O   UNK d   1      18.094 -51.355  37.668  0.00  0.00    -0.274 OA
ATOM     27  N   UNK d   1      19.727 -52.198  36.329  0.00  0.00    -0.370 N 
ATOM     28  H   UNK d   1      20.738 -52.315  36.522  0.00  0.00     0.159 HD
ATOM     29  H   UNK d   1      19.445 -51.938  35.368  0.00  0.00     0.159 HD
ENDBRANCH  24  25
ENDBRANCH  23  24
ENDBRANCH  10  23
BRANCH  15  30
ATOM     30  C   UNK d   1      19.106 -54.979  31.552  0.00  0.00     0.135 C 
BRANCH  30  31
ATOM     31  C   UNK d   1      19.815 -56.121  30.918  0.00  0.00     0.020 C 
BRANCH  31  32
ATOM     32  C   UNK d   1      21.054 -55.798  30.160  0.00  0.00    -0.003 C 
ATOM     33  C   UNK d   1      21.836 -57.054  29.791  0.00  0.00     0.005 C 
ENDBRANCH  31  32
ENDBRANCH  30  31
ENDBRANCH  15  30
TORSDOF 6
ENDMDL
