/Users/jonathanwahrer/Desktop/Msc/3_Semester/Drug_Design_Praktikum/waehrer_HTS_screening/HTS_experiment/out/docking_results/vina_output/6y4q/0002_docked.pdbqt
 OpenBabel03232217103D

 38 41  0  0  0  0  0  0  0  0999 V2000
    2.4620  -17.5570  -36.5450 C   0  0  0  0  0  0  0  0  0  0  0  0
    3.1680  -17.9670  -35.4340 N   0  0  0  0  0  0  0  0  0  0  0  0
    3.9600  -18.9230  -35.8000 N   0  0  0  0  0  0  0  0  0  0  0  0
    3.7980  -19.1600  -37.1300 N   0  0  0  0  0  0  0  0  0  0  0  0
    2.8780  -18.3320  -37.6210 C   0  0  0  0  0  0  0  0  0  0  0  0
    1.4870  -16.4940  -36.4980 C   0  0  0  0  0  0  0  0  0  0  0  0
    1.6470  -15.1290  -36.2340 N   0  0  0  0  0  0  0  0  0  0  0  0
    2.5200  -14.6690  -36.0340 H   0  0  0  0  0  0  0  0  0  0  0  0
    0.2640  -16.8780  -36.7460 O   0  0  0  0  0  0  0  0  0  0  0  0
    0.4540  -14.3280  -36.2620 N   0  0  0  0  0  0  0  0  0  0  0  0
    0.4780  -13.1140  -35.8560 C   0  0  0  0  0  3  0  0  0  0  0  0
   -0.7140  -12.2560  -35.8660 C   0  0  0  0  0  0  0  0  0  0  0  0
   -1.4920  -12.0550  -34.7440 C   0  0  0  0  0  3  0  0  0  0  0  0
   -2.6140  -11.2440  -34.7620 C   0  0  0  0  0  0  0  0  0  0  0  0
   -2.9960  -10.6010  -35.9190 C   0  0  0  0  0  0  0  0  0  0  0  0
   -3.6910  -10.9670  -33.2060 Br  0  0  0  0  0  0  0  0  0  0  0  0
   -2.2200  -10.7990  -37.0450 C   0  0  0  0  0  0  0  0  0  0  0  0
   -4.1210   -9.7760  -35.9740 O   0  0  0  0  0  1  0  0  0  0  0  0
   -2.7270   -9.9160  -38.6730 Br  0  0  0  0  0  0  0  0  0  0  0  0
   -1.1020  -11.6080  -37.0200 C   0  0  0  0  0  0  0  0  0  0  0  0
   -0.3070  -11.8150  -38.1620 O   0  0  0  0  0  0  0  0  0  0  0  0
   -0.5600  -11.3660  -39.0290 H   0  0  0  0  0  0  0  0  0  0  0  0
    2.3790  -18.2150  -38.9900 C   0  0  0  0  0  2  0  0  0  0  0  0
    1.0510  -18.6000  -39.2900 N   0  0  0  0  0  4  0  0  0  0  0  0
    0.9130  -20.0210  -39.5750 C   0  0  0  0  0  2  0  0  0  0  0  0
    1.8780  -20.4590  -40.6020 C   0  0  0  0  0  2  0  0  0  0  0  0
    2.2540  -19.6330  -41.5790 O   0  0  0  0  0  0  0  0  0  0  0  0
    1.7890  -18.3580  -41.5980 C   0  0  0  0  0  2  0  0  0  0  0  0
    0.7340  -18.0090  -40.6300 C   0  0  0  0  0  2  0  0  0  0  0  0
    0.3740  -18.2590  -38.6240 H   0  0  0  0  0  0  0  0  0  0  0  0
    4.5670  -20.1870  -37.7610 C   0  0  0  0  0  0  0  0  0  0  0  0
    4.2360  -21.3870  -38.2210 N   0  0  0  0  0  0  0  0  0  0  0  0
    5.2970  -21.9150  -38.7350 O   0  0  0  0  0  0  0  0  0  0  0  0
    6.3220  -21.1260  -38.6410 N   0  0  0  0  0  0  0  0  0  0  0  0
    5.9330  -20.0130  -38.0350 C   0  0  0  0  0  0  0  0  0  0  0  0
    6.6850  -18.8560  -37.7040 N   0  0  0  0  0  0  0  0  0  0  0  0
    7.1010  -18.2810  -38.4650 H   0  0  0  0  0  0  0  0  0  0  0  0
    6.8450  -18.5470  -36.7020 H   0  0  0  0  0  0  0  0  0  0  0  0
  1  6  1  0  0  0  0
  1  2  1  0  0  0  0
  3  2  2  0  0  0  0
  4  3  1  0  0  0  0
  5  4  1  0  0  0  0
  5  1  2  0  0  0  0
  6  7  1  0  0  0  0
  7  8  1  0  0  0  0
  9  6  2  0  0  0  0
 10  7  1  0  0  0  0
 10 11  2  0  0  0  0
 12 11  1  0  0  0  0
 12 13  1  0  0  0  0
 14 13  2  0  0  0  0
 14 16  1  0  0  0  0
 15 14  1  0  0  0  0
 17 20  1  0  0  0  0
 17 15  2  0  0  0  0
 18 15  1  0  0  0  0
 19 17  1  0  0  0  0
 20 12  2  0  0  0  0
 21 20  1  0  0  0  0
 22 21  1  0  0  0  0
 23  5  1  0  0  0  0
 24 23  1  0  0  0  0
 24 30  1  0  0  0  0
 25 24  1  0  0  0  0
 26 25  1  0  0  0  0
 27 26  1  0  0  0  0
 28 27  1  0  0  0  0
 28 29  1  0  0  0  0
 29 24  1  0  0  0  0
 31  4  1  0  0  0  0
 32 31  2  0  0  0  0
 33 34  1  0  0  0  0
 33 32  1  0  0  0  0
 34 35  2  0  0  0  0
 35 31  1  0  0  0  0
 35 36  1  0  0  0  0
 36 38  1  0  0  0  0
 37 36  1  0  0  0  0
M  END
>  <Pose>
1

>  <Score>
-6.561

$$$$
