MODEL 1
REMARK VINA RESULT:    -6.382      0.000      0.000
REMARK INTER + INTRA:          -9.664
REMARK INTER:                  -8.620
REMARK INTRA:                  -1.044
REMARK UNBOUND:                -1.044
REMARK  7 active torsions:
REMARK  status: ('A' for Active; 'I' for Inactive)
REMARK    1  A    between atoms: C_3  and  O_31 
REMARK    2  A    between atoms: C_6  and  C_9 
REMARK    3  A    between atoms: C_7  and  O_8 
REMARK    4  A    between atoms: N_10  and  N_11 
REMARK    5  A    between atoms: N_11  and  C_12 
REMARK    6  A    between atoms: C_14  and  N_24 
REMARK    7  A    between atoms: C_16  and  N_18 
ROOT
ATOM      1  C   UNK d   1       1.247 -14.303 -36.330  0.00  0.00     0.774 A 
ATOM      2  N   UNK d   1       0.216 -13.527 -36.001  0.00  0.00     0.133 NA
ATOM      3  C   UNK d   1       0.147 -12.209 -36.349  0.00  0.00     0.756 A 
ATOM      4  N   UNK d   1       1.178 -11.731 -37.042  0.00  0.00     0.131 NA
ATOM      5  C   UNK d   1       2.261 -12.448 -37.417  0.00  0.00     0.756 A 
ATOM      6  N   UNK d   1       2.250 -13.758 -37.028  0.00  0.00     0.133 NA
ENDROOT
BRANCH   1   7
ATOM      7  N   UNK d   1       1.281 -15.672 -35.949  0.00  0.00    -0.105 N 
ATOM      8  H   UNK d   1       1.090 -16.014 -35.001  0.00  0.00     0.208 HD
BRANCH   7   9
ATOM      9  N   UNK d   1       1.595 -16.645 -36.918  0.00  0.00    -0.171 NA
ATOM     10  C   UNK d   1       2.352 -17.643 -36.684  0.00  0.00     0.153 C 
BRANCH  10  11
ATOM     11  C   UNK d   1       2.690 -18.660 -37.666  0.00  0.00     0.019 A 
ATOM     12  C   UNK d   1       3.964 -19.176 -37.708  0.00  0.00     0.038 A 
ATOM     13  C   UNK d   1       4.312 -20.144 -38.633  0.00  0.00     0.046 A 
ATOM     14  C   UNK d   1       3.400 -20.627 -39.545  0.00  0.00     0.103 A 
ATOM     15 Br   UNK d   1       6.093 -20.847 -38.669  0.00  0.00    -0.048 Br
ATOM     16  C   UNK d   1       2.118 -20.115 -39.511  0.00  0.00     0.079 A 
ATOM     17 Br   UNK d   1       0.858 -20.790 -40.779  0.00  0.00    -0.045 Br
ATOM     18  C   UNK d   1       1.778 -19.145 -38.580  0.00  0.00     0.097 A 
BRANCH  14  19
ATOM     19  O   UNK d   1       3.732 -21.602 -40.483  0.00  0.00    -0.358 OA
ATOM     20  H   UNK d   1       4.655 -21.610 -40.884  0.00  0.00     0.217 HD
ENDBRANCH  14  19
BRANCH  18  21
ATOM     21  O   UNK d   1       0.499 -18.643 -38.557  0.00  0.00    -0.358 OA
ATOM     22  H   UNK d   1      -0.281 -19.212 -38.215  0.00  0.00     0.217 HD
ENDBRANCH  18  21
ENDBRANCH  10  11
ENDBRANCH   7   9
ENDBRANCH   1   7
BRANCH   3  23
ATOM     23  N   UNK d   1      -0.955 -11.404 -35.991  0.00  0.00    -0.209 N 
ATOM     24  C   UNK d   1      -0.886  -9.976 -36.131  0.00  0.00     0.167 C 
ATOM     25  C   UNK d   1      -1.411  -9.370 -34.840  0.00  0.00     0.188 C 
ATOM     26  O   UNK d   1      -2.599  -9.963 -34.432  0.00  0.00    -0.388 OA
ATOM     27  C   UNK d   1      -2.477 -11.308 -34.162  0.00  0.00     0.188 C 
ATOM     28  C   UNK d   1      -2.151 -12.014 -35.484  0.00  0.00     0.167 C 
ENDBRANCH   3  23
BRANCH   5  29
ATOM     29  N   UNK d   1       3.328 -11.899 -38.152  0.00  0.00    -0.209 N 
ATOM     30  C   UNK d   1       4.189 -10.917 -37.570  0.00  0.00     0.167 C 
ATOM     31  C   UNK d   1       4.254  -9.739 -38.546  0.00  0.00     0.188 C 
ATOM     32  O   UNK d   1       3.426  -9.922 -39.633  0.00  0.00    -0.388 OA
ATOM     33  C   UNK d   1       3.678 -11.063 -40.353  0.00  0.00     0.188 C 
ATOM     34  C   UNK d   1       3.566 -12.320 -39.498  0.00  0.00     0.167 C 
ENDBRANCH   5  29
TORSDOF 7
ENDMDL
