MODEL 1
REMARK VINA RESULT:    -5.692      0.000      0.000
REMARK INTER + INTRA:         -10.474
REMARK INTER:                  -8.687
REMARK INTRA:                  -1.787
REMARK UNBOUND:                -1.787
REMARK  10 active torsions:
REMARK  status: ('A' for Active; 'I' for Inactive)
REMARK    1  A    between atoms: C_3  and  O_10 
REMARK    2  A    between atoms: O_10  and  C_11 
REMARK    3  A    between atoms: C_11  and  C_12 
REMARK    4  A    between atoms: C_12  and  O_13 
REMARK    5  A    between atoms: C_12  and  C_14 
REMARK    6  A    between atoms: C_14  and  N_15 
REMARK    7  A    between atoms: C_19  and  N_20 
REMARK    8  A    between atoms: N_23  and  C_26 
REMARK    9  A    between atoms: C_26  and  C_27 
REMARK   10  A    between atoms: C_27  and  O_28 
ROOT
ATOM      1  N   UNK d   1      -1.039 -19.162 -38.602  0.00  0.00    -0.171 N 
ATOM      2  C   UNK d   1      -2.123 -19.973 -38.726  0.00  0.00     0.154 A 
ATOM      3  C   UNK d   1      -1.742 -21.165 -39.281  0.00  0.00     0.184 A 
ATOM      4  N   UNK d   1      -0.444 -21.058 -39.478  0.00  0.00    -0.044 NA
ATOM      5  C   UNK d   1       0.022 -19.846 -39.070  0.00  0.00     0.707 A 
ATOM      6  N   UNK d   1      -2.591 -22.210 -39.528  0.00  0.00    -0.284 N 
ATOM      7  C   UNK d   1      -3.875 -22.028 -39.192  0.00  0.00     0.352 A 
ATOM      8  O   UNK d   1      -4.657 -22.994 -39.422  0.00  0.00    -0.244 OA
ATOM      9  N   UNK d   1      -4.300 -20.876 -38.640  0.00  0.00    -0.164 NA
ATOM     10  C   UNK d   1      -3.478 -19.843 -38.393  0.00  0.00     0.236 A 
ATOM     11  O   UNK d   1      -3.937 -18.679 -37.823  0.00  0.00    -0.167 OA
ATOM     12  C   UNK d   1      -2.074 -23.430 -40.131  0.00  0.00     0.163 C 
ENDROOT
BRANCH   1  13
ATOM     13  C   UNK d   1      -1.043 -17.847 -38.069  0.00  0.00     0.182 C 
BRANCH  13  14
ATOM     14  C   UNK d   1      -1.291 -16.671 -38.886  0.00  0.00     0.161 C 
BRANCH  14  15
ATOM     15  C   UNK d   1      -0.308 -16.012 -39.758  0.00  0.00     0.209 C 
BRANCH  15  16
ATOM     16  O   UNK d   1       0.946 -15.887 -39.092  0.00  0.00    -0.346 OA
BRANCH  16  17
ATOM     17  C   UNK d   1       1.682 -14.760 -38.971  0.00  0.00     0.103 A 
ATOM     18  C   UNK d   1       1.710 -14.091 -37.737  0.00  0.00     0.047 A 
ATOM     19 Br   UNK d   1       0.690 -14.838 -36.300  0.00  0.00    -0.048 Br
ATOM     20  C   UNK d   1       2.439 -12.943 -37.558  0.00  0.00     0.041 A 
ATOM     21  C   UNK d   1       3.172 -12.410 -38.596  0.00  0.00     0.013 A 
ATOM     22  C   UNK d   1       3.161 -13.047 -39.815  0.00  0.00     0.041 A 
ATOM     23 Br   UNK d   1       4.153 -10.813 -38.254  0.00  0.00    -0.051 Br
ATOM     24  C   UNK d   1       2.410 -14.218 -39.980  0.00  0.00     0.047 A 
ATOM     25 Br   UNK d   1       2.440 -15.009 -41.688  0.00  0.00    -0.048 Br
ENDBRANCH  16  17
ENDBRANCH  15  16
ENDBRANCH  14  15
BRANCH  14  26
ATOM     26  O   UNK d   1      -2.534 -16.548 -39.532  0.00  0.00    -0.392 OA
ATOM     27  H   UNK d   1      -3.031 -17.385 -39.533  0.00  0.00     0.210 HD
ENDBRANCH  14  26
ENDBRANCH  13  14
ENDBRANCH   1  13
BRANCH   5  28
ATOM     28  N   UNK d   1       1.426 -19.526 -39.070  0.00  0.00    -0.212 N 
ATOM     29  C   UNK d   1       2.218 -19.121 -40.166  0.00  0.00     0.169 C 
ATOM     30  C   UNK d   1       3.641 -18.807 -39.629  0.00  0.00     0.255 C 
ATOM     31  N   UNK d   1       4.120 -20.071 -39.102  0.00  0.00    -0.066 N 
ATOM     32  C   UNK d   1       3.470 -20.149 -37.780  0.00  0.00     0.255 C 
ATOM     33  H   UNK d   1       3.780 -20.902 -39.629  0.00  0.00     0.280 HD
ATOM     34  C   UNK d   1       2.105 -19.586 -37.769  0.00  0.00     0.169 C 
BRANCH  31  35
ATOM     35  C   UNK d   1       5.560 -20.070 -38.937  0.00  0.00     0.260 C 
BRANCH  35  36
ATOM     36  C   UNK d   1       5.912 -19.230 -37.729  0.00  0.00     0.192 C 
BRANCH  36  37
ATOM     37  O   UNK d   1       7.273 -18.906 -37.778  0.00  0.00    -0.399 OA
ATOM     38  H   UNK d   1       7.631 -19.021 -38.701  0.00  0.00     0.209 HD
ENDBRANCH  36  37
ENDBRANCH  35  36
ENDBRANCH  31  35
ENDBRANCH   5  28
TORSDOF 10
ENDMDL
