MODEL 1
REMARK VINA RESULT:    -7.127      0.000      0.000
REMARK INTER + INTRA:         -12.775
REMARK INTER:                 -10.668
REMARK INTRA:                  -2.107
REMARK UNBOUND:                -2.107
REMARK  9 active torsions:
REMARK  status: ('A' for Active; 'I' for Inactive)
REMARK    1  A    between atoms: C_4  and  O_29 
REMARK    2  A    between atoms: C_6  and  C_8 
REMARK    3  A    between atoms: C_8  and  N_9 
REMARK    4  A    between atoms: N_9  and  N_10 
REMARK       I    between atoms: N_10  and  C_11 
REMARK    5  A    between atoms: C_11  and  C_13 
REMARK    6  A    between atoms: C_13  and  N_14 
REMARK    7  A    between atoms: C_18  and  C_19 
REMARK    8  A    between atoms: C_23  and  N_24 
REMARK    9  A    between atoms: O_29  and  C_30 
ROOT
ATOM      1  N   UNK d   1       2.374 -18.889 -38.622  0.00  0.00    -0.319 N 
ATOM      2  C   UNK d   1       1.672 -17.989 -37.835  0.00  0.00     0.065 A 
ATOM      3  C   UNK d   1       2.384 -17.809 -36.709  0.00  0.00     0.086 A 
ATOM      4  N   UNK d   1       3.468 -18.561 -36.811  0.00  0.00    -0.226 NA
ATOM      5  C   UNK d   1       3.473 -19.250 -38.016  0.00  0.00     0.167 A 
ATOM      6  C   UNK d   1       1.975 -16.962 -35.690  0.00  0.00     0.034 A 
ATOM      7  C   UNK d   1       0.785 -16.303 -35.884  0.00  0.00     0.002 A 
ATOM      8  C   UNK d   1       0.011 -16.454 -37.019  0.00  0.00     0.002 A 
ATOM      9  C   UNK d   1       0.472 -17.317 -38.012  0.00  0.00     0.032 A 
ENDROOT
BRANCH   1  10
ATOM     10  C   UNK d   1       1.874 -19.250 -39.884  0.00  0.00     0.236 C 
BRANCH  10  11
ATOM     11  C   UNK d   1       2.648 -18.568 -41.033  0.00  0.00     0.264 C 
ATOM     12  N   UNK d   1       2.515 -17.219 -40.976  0.00  0.00    -0.202 N 
ATOM     13  H   UNK d   1       3.350 -17.134 -42.104  0.00  0.00     0.205 HD
ATOM     14  O   UNK d   1       3.222 -19.374 -41.763  0.00  0.00    -0.269 OA
BRANCH  12  15
ATOM     15  N   UNK d   1       2.397 -15.993 -40.926  0.00  0.00    -0.335 NA
BRANCH  15  16
ATOM     16  C   UNK d   1       2.207 -14.831 -40.834  0.00  0.00     0.220 C 
BRANCH  16  17
ATOM     17  C   UNK d   1       2.613 -13.821 -39.918  0.00  0.00    -0.001 A 
ATOM     18  C   UNK d   1       2.102 -13.808 -38.612  0.00  0.00     0.053 A 
ATOM     19  C   UNK d   1       2.433 -12.901 -37.648  0.00  0.00     0.107 A 
ATOM     20  C   UNK d   1       3.365 -11.892 -37.992  0.00  0.00     0.157 A 
ATOM     21  C   UNK d   1       3.890 -11.866 -39.265  0.00  0.00     0.051 A 
ATOM     22  O   UNK d   1       3.696 -10.990 -37.022  0.00  0.00    -0.188 OA
ATOM     23 Br   UNK d   1       5.164 -10.544 -39.748  0.00  0.00    -0.048 Br
ATOM     24  C   UNK d   1       3.513 -12.816 -40.194  0.00  0.00     0.036 A 
BRANCH  19  25
ATOM     25  O   UNK d   1       1.924 -12.903 -36.363  0.00  0.00    -0.348 OA
BRANCH  25  26
ATOM     26  C   UNK d   1       0.571 -12.777 -36.085  0.00  0.00     0.171 C 
ATOM     27  C   UNK d   1      -0.090 -11.516 -36.565  0.00  0.00     0.034 C 
ENDBRANCH  25  26
ENDBRANCH  19  25
ENDBRANCH  16  17
ENDBRANCH  15  16
ENDBRANCH  12  15
ENDBRANCH  10  11
ENDBRANCH   1  10
BRANCH   5  28
ATOM     28  C   UNK d   1       4.622 -20.102 -38.263  0.00  0.00     0.187 A 
ATOM     29  N   UNK d   1       4.493 -21.411 -38.723  0.00  0.00    -0.097 NA
ATOM     30  O   UNK d   1       5.637 -21.942 -38.884  0.00  0.00    -0.104 OA
ATOM     31  N   UNK d   1       6.558 -21.120 -38.576  0.00  0.00    -0.077 NA
ATOM     32  C   UNK d   1       5.958 -19.945 -38.179  0.00  0.00     0.285 A 
BRANCH  32  33
ATOM     33  N   UNK d   1       6.712 -18.817 -37.793  0.00  0.00    -0.028 N 
ATOM     34  H   UNK d   1       6.030 -18.086 -37.362  0.00  0.00     0.283 HD
ATOM     35  H   UNK d   1       7.079 -18.336 -38.624  0.00  0.00     0.283 HD
ATOM     36  H   UNK d   1       7.331 -19.024 -37.014  0.00  0.00     0.283 HD
ENDBRANCH  32  33
ENDBRANCH   5  28
TORSDOF 9
ENDMDL
