/Users/jonathanwahrer/Desktop/Msc/3_Semester/Drug_Design_Praktikum/waehrer_HTS_screening/HTS_experiment/out/docking_results/vina_output/6y4q/0011_docked.pdbqt
 OpenBabel03232217123D

 36 39  0  0  0  0  0  0  0  0999 V2000
    2.3740  -18.8890  -38.6220 N   0  0  0  0  0  0  0  0  0  0  0  0
    1.6720  -17.9890  -37.8350 C   0  0  0  0  0  0  0  0  0  0  0  0
    2.3840  -17.8090  -36.7090 C   0  0  0  0  0  0  0  0  0  0  0  0
    3.4680  -18.5610  -36.8110 N   0  0  0  0  0  0  0  0  0  0  0  0
    3.4730  -19.2500  -38.0160 C   0  0  0  0  0  0  0  0  0  0  0  0
    1.9750  -16.9620  -35.6900 C   0  0  0  0  0  3  0  0  0  0  0  0
    0.7850  -16.3030  -35.8840 C   0  0  0  0  0  3  0  0  0  0  0  0
    0.0110  -16.4540  -37.0190 C   0  0  0  0  0  3  0  0  0  0  0  0
    0.4720  -17.3170  -38.0120 C   0  0  0  0  0  3  0  0  0  0  0  0
    1.8740  -19.2500  -39.8840 C   0  0  0  0  0  2  0  0  0  0  0  0
    2.6480  -18.5680  -41.0330 C   0  0  0  0  0  0  0  0  0  0  0  0
    2.5150  -17.2190  -40.9760 N   0  0  0  0  0  0  0  0  0  0  0  0
    3.3500  -17.1340  -42.1040 H   0  0  0  0  0  0  0  0  0  0  0  0
    3.2220  -19.3740  -41.7630 O   0  0  0  0  0  0  0  0  0  0  0  0
    2.3970  -15.9930  -40.9260 N   0  0  0  0  0  2  0  0  0  0  0  0
    2.2070  -14.8310  -40.8340 C   0  0  0  0  0  2  0  0  0  0  0  0
    2.6130  -13.8210  -39.9180 C   0  0  0  0  0  0  0  0  0  0  0  0
    2.1020  -13.8080  -38.6120 C   0  0  0  0  0  3  0  0  0  0  0  0
    2.4330  -12.9010  -37.6480 C   0  0  0  0  0  0  0  0  0  0  0  0
    3.3650  -11.8920  -37.9920 C   0  0  0  0  0  0  0  0  0  0  0  0
    3.8900  -11.8660  -39.2650 C   0  0  0  0  0  0  0  0  0  0  0  0
    3.6960  -10.9900  -37.0220 O   0  0  0  0  0  1  0  0  0  0  0  0
    5.1640  -10.5440  -39.7480 Br  0  0  0  0  0  0  0  0  0  0  0  0
    3.5130  -12.8160  -40.1940 C   0  0  0  0  0  3  0  0  0  0  0  0
    1.9240  -12.9030  -36.3630 O   0  0  0  0  0  0  0  0  0  0  0  0
    0.5710  -12.7770  -36.0850 C   0  0  0  0  0  2  0  0  0  0  0  0
   -0.0900  -11.5160  -36.5650 C   0  0  0  0  0  1  0  0  0  0  0  0
    4.6220  -20.1020  -38.2630 C   0  0  0  0  0  0  0  0  0  0  0  0
    4.4930  -21.4110  -38.7230 N   0  0  0  0  0  0  0  0  0  0  0  0
    5.6370  -21.9420  -38.8840 O   0  0  0  0  0  0  0  0  0  0  0  0
    6.5580  -21.1200  -38.5760 N   0  0  0  0  0  0  0  0  0  0  0  0
    5.9580  -19.9450  -38.1790 C   0  0  0  0  0  0  0  0  0  0  0  0
    6.7120  -18.8170  -37.7930 N   0  0  0  0  0  4  0  0  0  0  0  0
    6.0300  -18.0860  -37.3620 H   0  0  0  0  0  0  0  0  0  0  0  0
    7.0790  -18.3360  -38.6240 H   0  0  0  0  0  0  0  0  0  0  0  0
    7.3310  -19.0240  -37.0140 H   0  0  0  0  0  0  0  0  0  0  0  0
  1  5  1  0  0  0  0
  1  2  1  0  0  0  0
  2  3  1  0  0  0  0
  3  6  2  0  0  0  0
  4  3  1  0  0  0  0
  5  4  2  0  0  0  0
  7  6  1  0  0  0  0
  8  7  2  0  0  0  0
  9  2  2  0  0  0  0
  9  8  1  0  0  0  0
 10  1  1  0  0  0  0
 11 12  1  0  0  0  0
 11 10  1  0  0  0  0
 12 15  1  0  0  0  0
 13 12  1  0  0  0  0
 14 11  2  0  0  0  0
 15 16  1  0  0  0  0
 16 17  1  0  0  0  0
 17 18  1  0  0  0  0
 18 19  2  0  0  0  0
 19 25  1  0  0  0  0
 20 19  1  0  0  0  0
 20 22  1  0  0  0  0
 21 20  2  0  0  0  0
 23 21  1  0  0  0  0
 24 17  2  0  0  0  0
 24 21  1  0  0  0  0
 25 26  1  0  0  0  0
 27 26  1  0  0  0  0
 28 32  1  0  0  0  0
 28  5  1  0  0  0  0
 29 28  2  0  0  0  0
 30 29  1  0  0  0  0
 30 31  1  0  0  0  0
 31 32  2  0  0  0  0
 32 33  1  0  0  0  0
 33 34  1  0  0  0  0
 33 36  1  0  0  0  0
 35 33  1  0  0  0  0
M  END
>  <Pose>
1

>  <Score>
-7.127

$$$$
