/Users/jonathanwahrer/Desktop/Msc/3_Semester/Drug_Design_Praktikum/waehrer_HTS_screening/HTS_experiment/out/docking_results/vina_output/6y4q/0017_docked.pdbqt
 OpenBabel03232217133D

 38 41  0  0  0  0  0  0  0  0999 V2000
    2.3730  -17.5310  -36.2040 C   0  0  0  0  0  0  0  0  0  0  0  0
    3.1480  -18.0120  -35.2240 N   0  0  0  0  0  0  0  0  0  0  0  0
    3.9600  -18.9190  -35.7100 N   0  0  0  0  0  0  0  0  0  0  0  0
    3.7590  -19.0770  -37.0310 N   0  0  0  0  0  0  0  0  0  0  0  0
    2.7800  -18.2280  -37.3580 C   0  0  0  0  0  0  0  0  0  0  0  0
    1.3300  -16.5170  -36.1310 C   0  0  0  0  0  0  0  0  0  0  0  0
    1.5890  -15.1600  -36.4300 N   0  0  0  0  0  0  0  0  0  0  0  0
    2.5740  -14.8890  -36.7130 H   0  0  0  0  0  0  0  0  0  0  0  0
    0.1780  -16.8550  -35.7950 O   0  0  0  0  0  0  0  0  0  0  0  0
    0.6540  -14.1550  -36.3810 N   0  0  0  0  0  0  0  0  0  0  0  0
    0.8660  -12.9550  -35.9840 C   0  0  0  0  0  3  0  0  0  0  0  0
   -0.1900  -11.9550  -35.9670 C   0  0  0  0  0  0  0  0  0  0  0  0
   -1.0370  -11.7590  -34.8870 C   0  0  0  0  0  3  0  0  0  0  0  0
   -2.0270  -10.8070  -34.8990 C   0  0  0  0  0  0  0  0  0  0  0  0
   -2.1570  -10.0380  -36.0330 C   0  0  0  0  0  0  0  0  0  0  0  0
   -1.3250  -10.2060  -37.1340 C   0  0  0  0  0  0  0  0  0  0  0  0
   -1.5120   -9.1360  -38.7000 Br  0  0  0  0  0  0  0  0  0  0  0  0
   -0.3550  -11.1630  -37.0820 C   0  0  0  0  0  3  0  0  0  0  0  0
   -2.8840  -10.5840  -33.8480 O   0  0  0  0  0  0  0  0  0  0  0  0
   -3.8520  -11.4540  -33.3590 C   0  0  0  0  0  2  0  0  0  0  0  0
   -3.5970  -11.9730  -31.9810 C   0  0  0  0  0  1  0  0  0  0  0  0
   -3.1410   -9.0560  -36.1020 O   0  0  0  0  0  0  0  0  0  0  0  0
   -4.0450   -9.2770  -36.5030 H   0  0  0  0  0  0  0  0  0  0  0  0
    2.1460  -18.0080  -38.6590 C   0  0  0  0  0  2  0  0  0  0  0  0
    0.7740  -18.4270  -38.7960 N   0  0  0  0  0  0  0  0  0  0  0  0
    0.4250  -18.0980  -40.1840 C   0  0  0  0  0  2  0  0  0  0  0  0
    1.2300  -18.7900  -41.2110 C   0  0  0  0  0  2  0  0  0  0  0  0
    1.6130  -20.0540  -40.7890 O   0  0  0  0  0  0  0  0  0  0  0  0
    0.6170  -20.5630  -39.9840 C   0  0  0  0  0  2  0  0  0  0  0  0
    0.6890  -19.8800  -38.6330 C   0  0  0  0  0  2  0  0  0  0  0  0
    4.4880  -20.0170  -37.8260 C   0  0  0  0  0  0  0  0  0  0  0  0
    4.0560  -21.1480  -38.4060 N   0  0  0  0  0  0  0  0  0  0  0  0
    5.0510  -21.7090  -39.0500 O   0  0  0  0  0  0  0  0  0  0  0  0
    6.1410  -20.9910  -38.9230 N   0  0  0  0  0  0  0  0  0  0  0  0
    5.8170  -19.9290  -38.1640 C   0  0  0  0  0  0  0  0  0  0  0  0
    6.7410  -18.9130  -37.8070 N   0  0  0  0  0  0  0  0  0  0  0  0
    6.8170  -18.5040  -36.8530 H   0  0  0  0  0  0  0  0  0  0  0  0
    7.4100  -18.5200  -38.5180 H   0  0  0  0  0  0  0  0  0  0  0  0
  1  6  1  0  0  0  0
  1  2  1  0  0  0  0
  3  2  2  0  0  0  0
  4  3  1  0  0  0  0
  5  4  1  0  0  0  0
  5  1  2  0  0  0  0
  6  9  2  0  0  0  0
  7 10  1  0  0  0  0
  7  6  1  0  0  0  0
  8  7  1  0  0  0  0
 10 11  2  0  0  0  0
 11 12  1  0  0  0  0
 12 13  1  0  0  0  0
 14 13  2  0  0  0  0
 14 19  1  0  0  0  0
 15 14  1  0  0  0  0
 16 18  1  0  0  0  0
 16 15  2  0  0  0  0
 17 16  1  0  0  0  0
 18 12  2  0  0  0  0
 19 20  1  0  0  0  0
 20 21  1  0  0  0  0
 22 15  1  0  0  0  0
 23 22  1  0  0  0  0
 24  5  1  0  0  0  0
 25 24  1  0  0  0  0
 25 30  1  0  0  0  0
 26 25  1  0  0  0  0
 27 28  1  0  0  0  0
 27 26  1  0  0  0  0
 28 29  1  0  0  0  0
 29 30  1  0  0  0  0
 31  4  1  0  0  0  0
 32 31  2  0  0  0  0
 33 34  1  0  0  0  0
 33 32  1  0  0  0  0
 34 35  2  0  0  0  0
 35 31  1  0  0  0  0
 35 36  1  0  0  0  0
 36 37  1  0  0  0  0
 38 36  1  0  0  0  0
M  END
>  <Pose>
1

>  <Score>
-6.586

$$$$
