MODEL 1
REMARK VINA RESULT:    -6.586      0.000      0.000
REMARK INTER + INTRA:         -11.476
REMARK INTER:                 -10.050
REMARK INTRA:                  -1.426
REMARK UNBOUND:                -1.426
REMARK  10 active torsions:
REMARK  status: ('A' for Active; 'I' for Inactive)
REMARK    1  A    between atoms: C_3  and  O_34 
REMARK    2  A    between atoms: C_4  and  O_31 
REMARK    3  A    between atoms: C_6  and  C_8 
REMARK    4  A    between atoms: N_9  and  N_10 
REMARK       I    between atoms: N_10  and  C_11 
REMARK    5  A    between atoms: C_11  and  C_13 
REMARK    6  A    between atoms: N_16  and  C_25 
REMARK    7  A    between atoms: C_17  and  C_18 
REMARK    8  A    between atoms: C_18  and  N_19 
REMARK    9  A    between atoms: C_29  and  N_30 
REMARK   10  A    between atoms: O_31  and  C_32 
ROOT
ATOM      1  C   UNK d   1       2.373 -17.531 -36.204  0.00  0.00     0.176 A 
ATOM      2  N   UNK d   1       3.148 -18.012 -35.224  0.00  0.00    -0.124 NA
ATOM      3  N   UNK d   1       3.960 -18.919 -35.710  0.00  0.00    -0.058 NA
ATOM      4  N   UNK d   1       3.759 -19.077 -37.031  0.00  0.00    -0.191 N 
ATOM      5  C   UNK d   1       2.780 -18.228 -37.358  0.00  0.00     0.104 A 
ENDROOT
BRANCH   1   6
ATOM      6  C   UNK d   1       1.330 -16.517 -36.131  0.00  0.00     0.294 C 
ATOM      7  N   UNK d   1       1.589 -15.160 -36.430  0.00  0.00    -0.242 N 
ATOM      8  H   UNK d   1       2.574 -14.889 -36.713  0.00  0.00     0.192 HD
ATOM      9  O   UNK d   1       0.178 -16.855 -35.795  0.00  0.00    -0.264 OA
BRANCH   7  10
ATOM     10  N   UNK d   1       0.654 -14.155 -36.381  0.00  0.00    -0.183 NA
ATOM     11  C   UNK d   1       0.866 -12.955 -35.984  0.00  0.00     0.150 C 
BRANCH  11  12
ATOM     12  C   UNK d   1      -0.190 -11.955 -35.967  0.00  0.00    -0.013 A 
ATOM     13  C   UNK d   1      -1.037 -11.759 -34.887  0.00  0.00     0.052 A 
ATOM     14  C   UNK d   1      -2.027 -10.807 -34.899  0.00  0.00     0.104 A 
ATOM     15  C   UNK d   1      -2.157 -10.038 -36.033  0.00  0.00     0.116 A 
ATOM     16  C   UNK d   1      -1.325 -10.206 -37.134  0.00  0.00     0.047 A 
ATOM     17 Br   UNK d   1      -1.512  -9.136 -38.700  0.00  0.00    -0.048 Br
ATOM     18  C   UNK d   1      -0.355 -11.163 -37.082  0.00  0.00     0.035 A 
BRANCH  14  19
ATOM     19  O   UNK d   1      -2.884 -10.584 -33.848  0.00  0.00    -0.349 OA
BRANCH  19  20
ATOM     20  C   UNK d   1      -3.852 -11.454 -33.359  0.00  0.00     0.171 C 
ATOM     21  C   UNK d   1      -3.597 -11.973 -31.981  0.00  0.00     0.034 C 
ENDBRANCH  19  20
ENDBRANCH  14  19
BRANCH  15  22
ATOM     22  O   UNK d   1      -3.141  -9.056 -36.102  0.00  0.00    -0.357 OA
ATOM     23  H   UNK d   1      -4.045  -9.277 -36.503  0.00  0.00     0.218 HD
ENDBRANCH  15  22
ENDBRANCH  11  12
ENDBRANCH   7  10
ENDBRANCH   1   6
BRANCH   5  24
ATOM     24  C   UNK d   1       2.146 -18.008 -38.659  0.00  0.00     0.334 C 
BRANCH  24  25
ATOM     25  N   UNK d   1       0.774 -18.427 -38.796  0.00  0.00     0.098 N 
ATOM     26  C   UNK d   1       0.425 -18.098 -40.184  0.00  0.00     0.299 C 
ATOM     27  C   UNK d   1       1.230 -18.790 -41.211  0.00  0.00     0.198 C 
ATOM     28  O   UNK d   1       1.613 -20.054 -40.789  0.00  0.00    -0.388 OA
ATOM     29  C   UNK d   1       0.617 -20.563 -39.984  0.00  0.00     0.198 C 
ATOM     30  C   UNK d   1       0.689 -19.880 -38.633  0.00  0.00     0.299 C 
ENDBRANCH  24  25
ENDBRANCH   5  24
BRANCH   4  31
ATOM     31  C   UNK d   1       4.488 -20.017 -37.826  0.00  0.00     0.229 A 
ATOM     32  N   UNK d   1       4.056 -21.148 -38.406  0.00  0.00    -0.081 NA
ATOM     33  O   UNK d   1       5.051 -21.709 -39.050  0.00  0.00    -0.103 OA
ATOM     34  N   UNK d   1       6.141 -20.991 -38.923  0.00  0.00    -0.083 NA
ATOM     35  C   UNK d   1       5.817 -19.929 -38.164  0.00  0.00     0.201 A 
BRANCH  35  36
ATOM     36  N   UNK d   1       6.741 -18.913 -37.807  0.00  0.00    -0.379 N 
ATOM     37  H   UNK d   1       6.817 -18.504 -36.853  0.00  0.00     0.158 HD
ATOM     38  H   UNK d   1       7.410 -18.520 -38.518  0.00  0.00     0.158 HD
ENDBRANCH  35  36
ENDBRANCH   4  31
TORSDOF 10
ENDMDL
