MODEL 1
REMARK VINA RESULT:    -6.071      0.000      0.000
REMARK INTER + INTRA:         -10.108
REMARK INTER:                  -8.911
REMARK INTRA:                  -1.197
REMARK UNBOUND:                -1.197
REMARK  9 active torsions:
REMARK  status: ('A' for Active; 'I' for Inactive)
REMARK    1  A    between atoms: C_3  and  O_33 
REMARK    2  A    between atoms: C_4  and  O_31 
REMARK    3  A    between atoms: C_6  and  C_8 
REMARK    4  A    between atoms: N_9  and  N_10 
REMARK       I    between atoms: N_10  and  C_11 
REMARK    5  A    between atoms: C_11  and  C_13 
REMARK    6  A    between atoms: N_16  and  C_25 
REMARK    7  A    between atoms: C_17  and  C_18 
REMARK    8  A    between atoms: C_18  and  N_19 
REMARK    9  A    between atoms: C_29  and  N_30 
ROOT
ATOM      1  C   UNK d   1       2.698 -18.095 -36.885  0.00  0.00     0.170 A 
ATOM      2  N   UNK d   1       3.797 -18.427 -36.306  0.00  0.00    -0.152 NA
ATOM      3  N   UNK d   1       4.535 -19.160 -37.122  0.00  0.00     0.012 NA
ATOM      4  N   UNK d   1       3.881 -19.312 -38.265  0.00  0.00    -0.215 N 
ATOM      5  C   UNK d   1       2.703 -18.705 -38.245  0.00  0.00     0.098 A 
ENDROOT
BRANCH   1   6
ATOM      6  C   UNK d   1       1.728 -17.033 -36.735  0.00  0.00     0.293 C 
ATOM      7  N   UNK d   1       1.995 -15.719 -37.275  0.00  0.00    -0.242 N 
ATOM      8  H   UNK d   1       2.652 -15.120 -37.553  0.00  0.00     0.192 HD
ATOM      9  O   UNK d   1       0.641 -17.278 -36.214  0.00  0.00    -0.264 OA
BRANCH   7  10
ATOM     10  N   UNK d   1       0.525 -15.128 -37.465  0.00  0.00    -0.183 NA
ATOM     11  C   UNK d   1       0.791 -13.943 -36.885  0.00  0.00     0.150 C 
BRANCH  11  12
ATOM     12  C   UNK d   1       0.285 -12.725 -36.528  0.00  0.00    -0.013 A 
ATOM     13  C   UNK d   1      -0.526 -12.398 -35.456  0.00  0.00     0.052 A 
ATOM     14  C   UNK d   1      -0.982 -11.129 -35.186  0.00  0.00     0.103 A 
ATOM     15  C   UNK d   1      -0.606 -10.120 -36.029  0.00  0.00     0.116 A 
ATOM     16  C   UNK d   1       0.201 -10.393 -37.113  0.00  0.00     0.047 A 
ATOM     17 Br   UNK d   1       0.686  -8.947 -38.297  0.00  0.00    -0.048 Br
ATOM     18  C   UNK d   1       0.643 -11.617 -37.381  0.00  0.00     0.035 A 
BRANCH  14  19
ATOM     19  O   UNK d   1      -1.814 -10.894 -34.084  0.00  0.00    -0.353 OA
ATOM     20  C   UNK d   1      -3.106 -11.532 -34.045  0.00  0.00     0.210 C 
ENDBRANCH  14  19
BRANCH  15  21
ATOM     21  O   UNK d   1      -1.033  -8.809 -35.800  0.00  0.00    -0.357 OA
ATOM     22  H   UNK d   1      -1.447  -8.586 -34.870  0.00  0.00     0.218 HD
ENDBRANCH  15  21
ENDBRANCH  11  12
ENDBRANCH   7  10
ENDBRANCH   1   6
BRANCH   5  23
ATOM     23  C   UNK d   1       1.684 -18.429 -39.215  0.00  0.00     0.334 C 
BRANCH  23  24
ATOM     24  N   UNK d   1       0.822 -19.533 -39.641  0.00  0.00     0.098 N 
ATOM     25  C   UNK d   1      -0.454 -19.085 -40.095  0.00  0.00     0.299 C 
ATOM     26  C   UNK d   1      -1.337 -18.508 -39.026  0.00  0.00     0.198 C 
ATOM     27  O   UNK d   1      -1.826 -19.528 -38.228  0.00  0.00    -0.388 OA
ATOM     28  C   UNK d   1      -0.977 -20.640 -38.272  0.00  0.00     0.198 C 
ATOM     29  C   UNK d   1       0.443 -20.184 -38.313  0.00  0.00     0.299 C 
ENDBRANCH  23  24
ENDBRANCH   5  23
BRANCH   4  30
ATOM     30  C   UNK d   1       4.597 -19.692 -39.466  0.00  0.00     0.225 A 
ATOM     31  N   UNK d   1       4.858 -19.110 -40.561  0.00  0.00    -0.081 NA
ATOM     32  O   UNK d   1       5.518 -19.897 -41.412  0.00  0.00    -0.103 OA
ATOM     33  N   UNK d   1       5.676 -21.022 -40.814  0.00  0.00    -0.083 NA
ATOM     34  C   UNK d   1       5.139 -21.008 -39.594  0.00  0.00     0.201 A 
BRANCH  34  35
ATOM     35  N   UNK d   1       5.094 -22.047 -38.650  0.00  0.00    -0.379 N 
ATOM     36  H   UNK d   1       5.645 -22.919 -38.746  0.00  0.00     0.158 HD
ATOM     37  H   UNK d   1       4.490 -21.987 -37.762  0.00  0.00     0.158 HD
ENDBRANCH  34  35
ENDBRANCH   4  30
TORSDOF 9
ENDMDL
