/Users/jonathanwahrer/Desktop/Msc/3_Semester/Drug_Design_Praktikum/waehrer_HTS_screening/HTS_experiment/out/docking_results/vina_output/6y4q/0018_docked.pdbqt
 OpenBabel03232217143D

 37 40  0  0  0  0  0  0  0  0999 V2000
    2.6980  -18.0950  -36.8850 C   0  0  0  0  0  0  0  0  0  0  0  0
    3.7970  -18.4270  -36.3060 N   0  0  0  0  0  0  0  0  0  0  0  0
    4.5350  -19.1600  -37.1220 N   0  0  0  0  0  0  0  0  0  0  0  0
    3.8810  -19.3120  -38.2650 N   0  0  0  0  0  0  0  0  0  0  0  0
    2.7030  -18.7050  -38.2450 C   0  0  0  0  0  0  0  0  0  0  0  0
    1.7280  -17.0330  -36.7350 C   0  0  0  0  0  0  0  0  0  0  0  0
    1.9950  -15.7190  -37.2750 N   0  0  0  0  0  0  0  0  0  0  0  0
    2.6520  -15.1200  -37.5530 H   0  0  0  0  0  0  0  0  0  0  0  0
    0.6410  -17.2780  -36.2140 O   0  0  0  0  0  0  0  0  0  0  0  0
    0.5250  -15.1280  -37.4650 N   0  0  0  0  0  2  0  0  0  0  0  0
    0.7910  -13.9430  -36.8850 C   0  0  0  0  0  2  0  0  0  0  0  0
    0.2850  -12.7250  -36.5280 C   0  0  0  0  0  0  0  0  0  0  0  0
   -0.5260  -12.3980  -35.4560 C   0  0  0  0  0  3  0  0  0  0  0  0
   -0.9820  -11.1290  -35.1860 C   0  0  0  0  0  0  0  0  0  0  0  0
   -0.6060  -10.1200  -36.0290 C   0  0  0  0  0  0  0  0  0  0  0  0
    0.2010  -10.3930  -37.1130 C   0  0  0  0  0  0  0  0  0  0  0  0
    0.6860   -8.9470  -38.2970 Br  0  0  0  0  0  0  0  0  0  0  0  0
    0.6430  -11.6170  -37.3810 C   0  0  0  0  0  3  0  0  0  0  0  0
   -1.8140  -10.8940  -34.0840 O   0  0  0  0  0  0  0  0  0  0  0  0
   -3.1060  -11.5320  -34.0450 C   0  0  0  0  0  1  0  0  0  0  0  0
   -1.0330   -8.8090  -35.8000 O   0  0  0  0  0  0  0  0  0  0  0  0
   -1.4470   -8.5860  -34.8700 H   0  0  0  0  0  0  0  0  0  0  0  0
    1.6840  -18.4290  -39.2150 C   0  0  0  0  0  2  0  0  0  0  0  0
    0.8220  -19.5330  -39.6410 N   0  0  0  0  0  0  0  0  0  0  0  0
   -0.4540  -19.0850  -40.0950 C   0  0  0  0  0  2  0  0  0  0  0  0
   -1.3370  -18.5080  -39.0260 C   0  0  0  0  0  2  0  0  0  0  0  0
   -1.8260  -19.5280  -38.2280 O   0  0  0  0  0  0  0  0  0  0  0  0
   -0.9770  -20.6400  -38.2720 C   0  0  0  0  0  2  0  0  0  0  0  0
    0.4430  -20.1840  -38.3130 C   0  0  0  0  0  2  0  0  0  0  0  0
    4.5970  -19.6920  -39.4660 C   0  0  0  0  0  0  0  0  0  0  0  0
    4.8580  -19.1100  -40.5610 N   0  0  0  0  0  0  0  0  0  0  0  0
    5.5180  -19.8970  -41.4120 O   0  0  0  0  0  0  0  0  0  0  0  0
    5.6760  -21.0220  -40.8140 N   0  0  0  0  0  0  0  0  0  0  0  0
    5.1390  -21.0080  -39.5940 C   0  0  0  0  0  0  0  0  0  0  0  0
    5.0940  -22.0470  -38.6500 N   0  0  0  0  0  0  0  0  0  0  0  0
    5.6450  -22.9190  -38.7460 H   0  0  0  0  0  0  0  0  0  0  0  0
    4.4900  -21.9870  -37.7620 H   0  0  0  0  0  0  0  0  0  0  0  0
  1  6  1  0  0  0  0
  1  2  1  0  0  0  0
  3  2  2  0  0  0  0
  4  5  1  0  0  0  0
  4  3  1  0  0  0  0
  5  1  2  0  0  0  0
  6  9  2  0  0  0  0
  7  6  1  0  0  0  0
  8  7  1  0  0  0  0
 10  7  1  0  0  0  0
 10 11  1  0  0  0  0
 11 12  1  0  0  0  0
 12 13  1  0  0  0  0
 13 14  2  0  0  0  0
 14 19  1  0  0  0  0
 15 21  1  0  0  0  0
 15 14  1  0  0  0  0
 16 15  2  0  0  0  0
 17 16  1  0  0  0  0
 18 16  1  0  0  0  0
 18 12  2  0  0  0  0
 19 20  1  0  0  0  0
 21 22  1  0  0  0  0
 23  5  1  0  0  0  0
 24 23  1  0  0  0  0
 24 29  1  0  0  0  0
 25 24  1  0  0  0  0
 25 26  1  0  0  0  0
 26 27  1  0  0  0  0
 28 27  1  0  0  0  0
 29 28  1  0  0  0  0
 30  4  1  0  0  0  0
 31 30  2  0  0  0  0
 32 33  1  0  0  0  0
 32 31  1  0  0  0  0
 33 34  2  0  0  0  0
 34 30  1  0  0  0  0
 34 35  1  0  0  0  0
 35 37  1  0  0  0  0
 36 35  1  0  0  0  0
M  END
>  <Pose>
1

>  <Score>
-6.071

$$$$
