MODEL 1
REMARK VINA RESULT:    -5.795      0.000      0.000
REMARK INTER + INTRA:         -10.562
REMARK INTER:                  -8.674
REMARK INTRA:                  -1.888
REMARK UNBOUND:                -1.888
REMARK  9 active torsions:
REMARK  status: ('A' for Active; 'I' for Inactive)
REMARK    1  A    between atoms: C_3  and  O_32 
REMARK    2  A    between atoms: C_4  and  O_29 
REMARK    3  A    between atoms: C_6  and  C_8 
REMARK    4  A    between atoms: C_8  and  N_9 
REMARK    5  A    between atoms: N_9  and  N_10 
REMARK    6  A    between atoms: N_10  and  C_11 
REMARK    7  A    between atoms: C_13  and  N_23 
REMARK    8  A    between atoms: C_15  and  N_17 
REMARK    9  A    between atoms: O_29  and  C_30 
ROOT
ATOM      1  C   UNK d   1       2.479 -18.085 -40.942  0.00  0.00     0.783 A 
ATOM      2  N   UNK d   1       1.223 -18.247 -40.570  0.00  0.00     0.133 NA
ATOM      3  C   UNK d   1       0.906 -19.012 -39.487  0.00  0.00     0.756 A 
ATOM      4  N   UNK d   1       1.951 -19.578 -38.838  0.00  0.00     0.131 NA
ATOM      5  C   UNK d   1       3.249 -19.451 -39.172  0.00  0.00     0.756 A 
ATOM      6  N   UNK d   1       3.492 -18.682 -40.257  0.00  0.00     0.133 NA
ENDROOT
BRANCH   1   7
ATOM      7  N   UNK d   1       2.928 -17.112 -41.964  0.00  0.00    -0.061 N 
ATOM      8  H   UNK d   1       3.290 -17.511 -42.808  0.00  0.00     0.221 HD
BRANCH   7   9
ATOM      9  N   UNK d   1       2.735 -15.890 -41.535  0.00  0.00    -0.323 NA
BRANCH   9  10
ATOM     10  C   UNK d   1       2.547 -14.806 -41.166  0.00  0.00     0.221 C 
BRANCH  10  11
ATOM     11  C   UNK d   1       2.148 -14.309 -39.833  0.00  0.00    -0.001 A 
ATOM     12  C   UNK d   1       1.298 -14.954 -38.982  0.00  0.00     0.053 A 
ATOM     13  C   UNK d   1       1.146 -14.533 -37.669  0.00  0.00     0.104 A 
ATOM     14  C   UNK d   1       1.861 -13.433 -37.199  0.00  0.00     0.116 A 
ATOM     15  C   UNK d   1       2.708 -12.773 -38.045  0.00  0.00     0.047 A 
ATOM     16 Br   UNK d   1       3.711 -11.272 -37.395  0.00  0.00    -0.048 Br
ATOM     17  C   UNK d   1       2.836 -13.223 -39.341  0.00  0.00     0.036 A 
BRANCH  13  18
ATOM     18  O   UNK d   1       0.321 -15.125 -36.763  0.00  0.00    -0.349 OA
BRANCH  18  19
ATOM     19  C   UNK d   1       0.345 -16.411 -36.254  0.00  0.00     0.171 C 
ATOM     20  C   UNK d   1       1.749 -16.994 -36.185  0.00  0.00     0.034 C 
ENDBRANCH  18  19
ENDBRANCH  13  18
BRANCH  14  21
ATOM     21  O   UNK d   1       1.747 -12.982 -35.901  0.00  0.00    -0.357 OA
ATOM     22  H   UNK d   1       2.406 -13.170 -35.185  0.00  0.00     0.218 HD
ENDBRANCH  14  21
ENDBRANCH  10  11
ENDBRANCH   9  10
ENDBRANCH   7   9
ENDBRANCH   1   7
BRANCH   3  23
ATOM     23  N   UNK d   1      -0.418 -19.140 -39.004  0.00  0.00    -0.209 N 
ATOM     24  C   UNK d   1      -1.520 -18.483 -39.725  0.00  0.00     0.167 C 
ATOM     25  C   UNK d   1      -2.353 -17.781 -38.622  0.00  0.00     0.188 C 
ATOM     26  O   UNK d   1      -2.905 -18.806 -37.907  0.00  0.00    -0.388 OA
ATOM     27  C   UNK d   1      -2.003 -19.513 -37.163  0.00  0.00     0.188 C 
ATOM     28  C   UNK d   1      -0.707 -19.856 -37.821  0.00  0.00     0.167 C 
ENDBRANCH   3  23
BRANCH   5  29
ATOM     29  N   UNK d   1       4.270 -19.936 -38.374  0.00  0.00    -0.209 N 
ATOM     30  C   UNK d   1       5.048 -19.279 -37.397  0.00  0.00     0.167 C 
ATOM     31  C   UNK d   1       6.499 -19.332 -37.884  0.00  0.00     0.188 C 
ATOM     32  O   UNK d   1       6.815 -20.654 -38.108  0.00  0.00    -0.388 OA
ATOM     33  C   UNK d   1       6.066 -21.291 -39.070  0.00  0.00     0.188 C 
ATOM     34  C   UNK d   1       4.593 -21.380 -38.577  0.00  0.00     0.167 C 
ENDBRANCH   5  29
TORSDOF 9
ENDMDL
