/Users/jonathanwahrer/Desktop/Msc/3_Semester/Drug_Design_Praktikum/waehrer_HTS_screening/HTS_experiment/out/docking_results/vina_output/6y4q/0020_docked.pdbqt
 OpenBabel03232217143D

 34 37  0  0  0  0  0  0  0  0999 V2000
    2.4790  -18.0850  -40.9420 C   0  0  0  0  0  0  0  0  0  0  0  0
    1.2230  -18.2470  -40.5700 N   0  0  0  0  0  4  0  0  0  0  0  0
    0.9060  -19.0120  -39.4870 C   0  0  0  0  0  0  0  0  0  0  0  0
    1.9510  -19.5780  -38.8380 N   0  0  0  0  0  0  0  0  0  0  0  0
    3.2490  -19.4510  -39.1720 C   0  0  0  0  0  0  0  0  0  0  0  0
    3.4920  -18.6820  -40.2570 N   0  0  0  0  0  2  0  0  0  0  0  0
    2.9280  -17.1120  -41.9640 N   0  0  0  0  0  0  0  0  0  0  0  0
    3.2900  -17.5110  -42.8080 H   0  0  0  0  0  0  0  0  0  0  0  0
    2.7350  -15.8900  -41.5350 N   0  0  0  0  0  2  0  0  0  0  0  0
    2.5470  -14.8060  -41.1660 C   0  0  0  0  0  2  0  0  0  0  0  0
    2.1480  -14.3090  -39.8330 C   0  0  0  0  0  0  0  0  0  0  0  0
    1.2980  -14.9540  -38.9820 C   0  0  0  0  0  3  0  0  0  0  0  0
    1.1460  -14.5330  -37.6690 C   0  0  0  0  0  0  0  0  0  0  0  0
    1.8610  -13.4330  -37.1990 C   0  0  0  0  0  0  0  0  0  0  0  0
    2.7080  -12.7730  -38.0450 C   0  0  0  0  0  0  0  0  0  0  0  0
    3.7110  -11.2720  -37.3950 Br  0  0  0  0  0  0  0  0  0  0  0  0
    2.8360  -13.2230  -39.3410 C   0  0  0  0  0  3  0  0  0  0  0  0
    0.3210  -15.1250  -36.7630 O   0  0  0  0  0  0  0  0  0  0  0  0
    0.3450  -16.4110  -36.2540 C   0  0  0  0  0  2  0  0  0  0  0  0
    1.7490  -16.9940  -36.1850 C   0  0  0  0  0  1  0  0  0  0  0  0
    1.7470  -12.9820  -35.9010 O   0  0  0  0  0  0  0  0  0  0  0  0
    2.4060  -13.1700  -35.1850 H   0  0  0  0  0  0  0  0  0  0  0  0
   -0.4180  -19.1400  -39.0040 N   0  0  0  0  0  0  0  0  0  0  0  0
   -1.5200  -18.4830  -39.7250 C   0  0  0  0  0  2  0  0  0  0  0  0
   -2.3530  -17.7810  -38.6220 C   0  0  0  0  0  2  0  0  0  0  0  0
   -2.9050  -18.8060  -37.9070 O   0  0  0  0  0  0  0  0  0  0  0  0
   -2.0030  -19.5130  -37.1630 C   0  0  0  0  0  2  0  0  0  0  0  0
   -0.7070  -19.8560  -37.8210 C   0  0  0  0  0  2  0  0  0  0  0  0
    4.2700  -19.9360  -38.3740 N   0  0  0  0  0  0  0  0  0  0  0  0
    5.0480  -19.2790  -37.3970 C   0  0  0  0  0  2  0  0  0  0  0  0
    6.4990  -19.3320  -37.8840 C   0  0  0  0  0  2  0  0  0  0  0  0
    6.8150  -20.6540  -38.1080 O   0  0  0  0  0  0  0  0  0  0  0  0
    6.0660  -21.2910  -39.0700 C   0  0  0  0  0  2  0  0  0  0  0  0
    4.5930  -21.3800  -38.5770 C   0  0  0  0  0  2  0  0  0  0  0  0
  1  2  2  0  0  0  0
  1  6  1  0  0  0  0
  2  3  2  0  0  0  0
  3 23  1  0  0  0  0
  3  4  1  0  0  0  0
  5  4  2  0  0  0  0
  5 29  1  0  0  0  0
  6  5  1  0  0  0  0
  7  9  1  0  0  0  0
  7  1  1  0  0  0  0
  8  7  1  0  0  0  0
  9 10  1  0  0  0  0
 10 11  1  0  0  0  0
 11 17  2  0  0  0  0
 11 12  1  0  0  0  0
 12 13  2  0  0  0  0
 13 14  1  0  0  0  0
 13 18  1  0  0  0  0
 14 21  1  0  0  0  0
 15 16  1  0  0  0  0
 15 14  2  0  0  0  0
 17 15  1  0  0  0  0
 18 19  1  0  0  0  0
 19 20  1  0  0  0  0
 21 22  1  0  0  0  0
 23 28  1  0  0  0  0
 24 23  1  0  0  0  0
 24 25  1  0  0  0  0
 25 26  1  0  0  0  0
 26 27  1  0  0  0  0
 28 27  1  0  0  0  0
 29 30  1  0  0  0  0
 31 30  1  0  0  0  0
 32 31  1  0  0  0  0
 33 34  1  0  0  0  0
 33 32  1  0  0  0  0
 34 29  1  0  0  0  0
M  END
>  <Pose>
1

>  <Score>
-5.795

$$$$
