MODEL 1
REMARK VINA RESULT:    -6.680      0.000      0.000
REMARK INTER + INTRA:         -11.467
REMARK INTER:                  -9.999
REMARK INTRA:                  -1.468
REMARK UNBOUND:                -1.468
REMARK  9 active torsions:
REMARK  status: ('A' for Active; 'I' for Inactive)
REMARK    1  A    between atoms: C_3  and  O_35 
REMARK    2  A    between atoms: C_4  and  O_33 
REMARK    3  A    between atoms: C_6  and  C_8 
REMARK    4  A    between atoms: N_9  and  C_27 
REMARK    5  A    between atoms: C_14  and  C_15 
REMARK    6  A    between atoms: C_15  and  C_17 
REMARK    7  A    between atoms: C_27  and  C_28 
REMARK    8  A    between atoms: C_28  and  C_29 
REMARK    9  A    between atoms: C_29  and  N_30 
ROOT
ATOM      1  C   UNK d   1       0.982 -14.119 -36.336  0.00  0.00     0.161 C 
ATOM      2  N   UNK d   1      -0.328 -13.521 -36.481  0.00  0.00    -0.332 N 
ATOM      3  C   UNK d   1      -1.252 -14.425 -37.015  0.00  0.00     0.295 C 
ATOM      4  O   UNK d   1      -2.412 -14.166 -37.368  0.00  0.00    -0.264 OA
ATOM      5  C   UNK d   1      -0.601 -15.734 -37.085  0.00  0.00     0.250 C 
ATOM      6  O   UNK d   1      -1.180 -16.758 -37.529  0.00  0.00    -0.282 OA
ATOM      7  C   UNK d   1       0.745 -15.591 -36.571  0.00  0.00     0.062 C 
ENDROOT
BRANCH   7   8
ATOM      8  C   UNK d   1       1.595 -16.567 -36.400  0.00  0.00     0.130 C 
ATOM      9  O   UNK d   1       2.038 -16.875 -35.124  0.00  0.00    -0.190 OA
BRANCH   8  10
ATOM     10  C   UNK d   1       2.090 -17.354 -37.503  0.00  0.00     0.002 A 
ATOM     11  C   UNK d   1       2.744 -18.536 -37.132  0.00  0.00     0.024 A 
ATOM     12  C   UNK d   1       3.236 -19.401 -38.078  0.00  0.00    -0.021 A 
ATOM     13  C   UNK d   1       3.094 -19.115 -39.416  0.00  0.00     0.075 A 
ATOM     14  C   UNK d   1       3.965 -20.698 -37.896  0.00  0.00     0.073 C 
ATOM     15  C   UNK d   1       2.446 -17.943 -39.757  0.00  0.00     0.038 A 
ATOM     16  O   UNK d   1       3.685 -20.162 -40.153  0.00  0.00    -0.345 OA
ATOM     17  C   UNK d   1       1.944 -17.063 -38.822  0.00  0.00     0.017 A 
ATOM     18  C   UNK d   1       4.534 -20.902 -39.281  0.00  0.00     0.129 C 
ATOM     19  C   UNK d   1       5.953 -20.366 -39.278  0.00  0.00     0.040 C 
ENDBRANCH   8  10
ENDBRANCH   7   8
BRANCH   1  20
ATOM     20  C   UNK d   1       1.847 -13.545 -37.399  0.00  0.00    -0.026 A 
ATOM     21  C   UNK d   1       2.705 -12.529 -37.009  0.00  0.00     0.049 A 
ATOM     22  C   UNK d   1       3.552 -11.924 -37.875  0.00  0.00     0.103 A 
ATOM     23  C   UNK d   1       3.559 -12.337 -39.201  0.00  0.00     0.116 A 
ATOM     24  C   UNK d   1       2.690 -13.365 -39.594  0.00  0.00     0.047 A 
ATOM     25 Br   UNK d   1       2.700 -13.929 -41.404  0.00  0.00    -0.048 Br
ATOM     26  C   UNK d   1       1.830 -13.975 -38.703  0.00  0.00     0.031 A 
BRANCH  22  27
ATOM     27  O   UNK d   1       4.416 -10.900 -37.478  0.00  0.00    -0.353 OA
ATOM     28  C   UNK d   1       4.018  -9.561 -37.359  0.00  0.00     0.210 C 
ENDBRANCH  22  27
BRANCH  23  29
ATOM     29  O   UNK d   1       4.412 -11.732 -40.089  0.00  0.00    -0.357 OA
ATOM     30  H   UNK d   1       4.136 -10.914 -40.573  0.00  0.00     0.218 HD
ENDBRANCH  23  29
ENDBRANCH   1  20
BRANCH   2  31
ATOM     31  C   UNK d   1      -0.572 -12.144 -36.103  0.00  0.00     0.129 C 
BRANCH  31  32
ATOM     32  C   UNK d   1      -1.265 -11.924 -34.825  0.00  0.00     0.048 C 
BRANCH  32  33
ATOM     33  C   UNK d   1      -2.585 -11.246 -34.853  0.00  0.00     0.235 C 
BRANCH  33  34
ATOM     34  N   UNK d   1      -3.634 -12.016 -35.475  0.00  0.00    -0.079 N 
ATOM     35  C   UNK d   1      -4.209 -11.234 -36.578  0.00  0.00     0.269 C 
ATOM     36  C   UNK d   1      -4.683 -12.190 -34.486  0.00  0.00     0.269 C 
ATOM     37  H   UNK d   1      -3.359 -12.947 -35.799  0.00  0.00     0.278 HD
ENDBRANCH  33  34
ENDBRANCH  32  33
ENDBRANCH  31  32
ENDBRANCH   2  31
TORSDOF 9
ENDMDL
