MODEL 1
REMARK VINA RESULT:    -6.101      0.000      0.000
REMARK INTER + INTRA:          -7.707
REMARK INTER:                  -6.992
REMARK INTRA:                  -0.715
REMARK UNBOUND:                -0.715
REMARK  3 active torsions:
REMARK  status: ('A' for Active; 'I' for Inactive)
REMARK    1  A    between atoms: C_3  and  O_25 
REMARK    2  A    between atoms: C_6  and  C_8 
REMARK    3  A    between atoms: C_10  and  C_21 
ROOT
ATOM      1  C   UNK d   1       1.461 -19.061 -37.745  0.00  0.00     0.270 C 
ATOM      2  N   UNK d   1       0.410 -19.755 -38.364  0.00  0.00    -0.047 N 
ATOM      3  C   UNK d   1      -0.898 -19.221 -38.327  0.00  0.00     0.291 C 
ATOM      4  C   UNK d   1      -1.154 -18.212 -37.241  0.00  0.00     0.086 C 
ATOM      5  C   UNK d   1      -0.055 -17.223 -37.130  0.00  0.00    -0.018 A 
ATOM      6  C   UNK d   1      -0.038 -15.892 -36.813  0.00  0.00    -0.001 A 
ATOM      7  C   UNK d   1       1.295 -15.525 -36.880  0.00  0.00     0.043 A 
ATOM      8  N   UNK d   1       2.037 -16.611 -37.226  0.00  0.00    -0.356 N 
ATOM      9  C   UNK d   1       1.212 -17.655 -37.380  0.00  0.00     0.052 A 
ATOM     10  C   UNK d   1       1.592 -14.209 -36.599  0.00  0.00     0.030 A 
ATOM     11  C   UNK d   1       0.611 -13.299 -36.267  0.00  0.00     0.002 A 
ATOM     12  C   UNK d   1      -0.718 -13.667 -36.201  0.00  0.00     0.001 A 
ATOM     13  C   UNK d   1      -1.034 -14.986 -36.480  0.00  0.00     0.014 A 
ATOM     14  H   UNK d   1       0.636 -19.995 -39.372  0.00  0.00     0.279 HD
ATOM     15  H   UNK d   1       0.366 -20.731 -37.926  0.00  0.00     0.279 HD
ATOM     16  H   UNK d   1       3.073 -16.544 -37.329  0.00  0.00     0.166 HD
ENDROOT
BRANCH   1  17
ATOM     17  C   UNK d   1       2.650 -19.062 -38.643  0.00  0.00    -0.019 A 
ATOM     18  C   UNK d   1       2.621 -18.508 -39.904  0.00  0.00     0.031 A 
ATOM     19  C   UNK d   1       3.780 -18.572 -40.647  0.00  0.00     0.046 A 
ATOM     20  C   UNK d   1       4.947 -19.151 -40.198  0.00  0.00     0.100 A 
ATOM     21 Br   UNK d   1       3.773 -17.814 -42.396  0.00  0.00    -0.048 Br
ATOM     22  C   UNK d   1       4.969 -19.701 -38.939  0.00  0.00     0.046 A 
ATOM     23 Br   UNK d   1       6.560 -20.511 -38.283  0.00  0.00    -0.048 Br
ATOM     24  C   UNK d   1       3.804 -19.648 -38.169  0.00  0.00     0.031 A 
BRANCH  20  25
ATOM     25  O   UNK d   1       6.092 -19.176 -41.020  0.00  0.00    -0.358 OA
ATOM     26  H   UNK d   1       6.949 -19.534 -40.622  0.00  0.00     0.217 HD
ENDBRANCH  20  25
ENDBRANCH   1  17
BRANCH   3  27
ATOM     27  C   UNK d   1      -1.302 -18.593 -39.615  0.00  0.00     0.205 C 
ATOM     28  O   UNK d   1      -0.674 -18.901 -40.685  0.00  0.00    -0.646 OA
ATOM     29  O   UNK d   1      -2.347 -17.684 -39.638  0.00  0.00    -0.646 OA
ENDBRANCH   3  27
TORSDOF 3
ENDMDL
