/Users/jonathanwahrer/Desktop/Msc/3_Semester/Drug_Design_Praktikum/waehrer_HTS_screening/HTS_experiment/out/docking_results/vina_output/6y4q/0031_docked.pdbqt
 OpenBabel03232217153D

 24 27  0  0  1  0  0  0  0  0999 V2000
   -1.8830  -16.4540  -36.9840 Br  0  0  0  0  0  0  0  0  0  0  0  0
   -1.1490  -18.1660  -37.4530 C   0  0  0  0  0  0  0  0  0  0  0  0
    0.0270  -18.2700  -38.1080 C   0  0  0  0  0  0  0  0  0  0  0  0
    0.5290  -19.5430  -38.5060 C   0  0  0  0  0  0  0  0  0  0  0  0
   -0.2150  -20.6320  -38.2120 C   0  0  0  0  0  3  0  0  0  0  0  0
   -1.4220  -20.5040  -37.5520 C   0  0  0  0  0  3  0  0  0  0  0  0
   -1.8970  -19.2880  -37.1670 C   0  0  0  0  0  3  0  0  0  0  0  0
    1.5810  -19.4530  -39.5370 C   0  0  0  0  0  2  0  0  0  0  0  0
    2.9200  -19.7720  -39.2540 N   0  0  2  0  0  4  0  0  0  0  0  0
    3.3740  -19.9590  -37.9680 C   0  0  0  0  0  2  0  0  0  0  0  0
    4.7620  -20.4140  -37.9340 N   0  0  2  0  0  0  0  0  0  0  0  0
    5.5670  -19.4120  -38.6130 C   0  0  0  0  0  2  0  0  0  0  0  0
    4.9730  -21.6630  -38.6240 C   0  0  0  0  0  2  0  0  0  0  0  0
    5.1010  -19.1570  -39.9600 N   0  0  2  0  0  0  0  0  0  0  0  0
    3.7440  -18.7820  -40.0290 C   0  0  0  0  0  2  0  0  0  0  0  0
    5.3280  -20.3530  -40.7450 C   0  0  0  0  0  2  0  0  0  0  0  0
    4.5460  -21.4540  -40.0750 C   0  0  2  0  0  3  0  0  0  0  0  0
    3.1220  -21.0400  -40.0390 C   0  0  0  0  0  2  0  0  0  0  0  0
    0.7620  -17.1780  -38.4060 O   0  0  0  0  0  0  0  0  0  0  0  0
    1.6890  -16.5610  -37.4900 C   0  0  0  0  0  2  0  0  0  0  0  0
    1.6480  -15.1060  -37.3740 C   0  0  0  0  0  0  0  0  0  0  0  0
    2.0520  -14.3190  -38.2170 O   0  0  0  0  0  0  0  0  0  0  0  0
    1.0680  -14.5730  -36.2170 O   0  0  0  0  0  0  0  0  0  0  0  0
    1.0000  -13.1950  -35.9600 C   0  0  0  0  0  1  0  0  0  0  0  0
  2  7  1  0  0  0  0
  2  1  1  0  0  0  0
  3  2  2  0  0  0  0
  4  5  2  0  0  0  0
  4  3  1  0  0  0  0
  5  6  1  0  0  0  0
  6  7  2  0  0  0  0
  8  4  1  0  0  0  0
  9  8  1  1  0  0  0
  9 10  1  0  0  0  0
 10 11  1  0  0  0  0
 11 13  1  6  0  0  0
 12 11  1  0  0  0  0
 14 16  1  6  0  0  0
 14 12  1  0  0  0  0
 15 14  1  0  0  0  0
 15  9  1  0  0  0  0
 17 16  1  1  0  0  0
 17 18  1  0  0  0  0
 17 13  1  0  0  0  0
 18  9  1  0  0  0  0
 19  3  1  0  0  0  0
 19 20  1  0  0  0  0
 20 21  1  0  0  0  0
 21 23  1  0  0  0  0
 22 21  2  0  0  0  0
 23 24  1  0  0  0  0
M  END
>  <Pose>
1

>  <Score>
-5.209

$$$$
