MODEL 1
REMARK VINA RESULT:    -6.727      0.000      0.000
REMARK INTER + INTRA:         -10.153
REMARK INTER:                  -9.086
REMARK INTRA:                  -1.067
REMARK UNBOUND:                -1.067
REMARK  7 active torsions:
REMARK  status: ('A' for Active; 'I' for Inactive)
REMARK    1  A    between atoms: C_3  and  O_30 
REMARK    2  A    between atoms: C_5  and  O_29 
REMARK    3  A    between atoms: C_6  and  C_8 
REMARK    4  A    between atoms: N_9  and  N_10 
REMARK    5  A    between atoms: N_10  and  C_11 
REMARK    6  A    between atoms: C_13  and  N_23 
REMARK    7  A    between atoms: C_15  and  N_17 
ROOT
ATOM      1  C   UNK d   1       0.840 -17.964 -37.748  0.00  0.00     0.774 A 
ATOM      2  N   UNK d   1       2.070 -18.452 -37.765  0.00  0.00     0.133 NA
ATOM      3  C   UNK d   1       2.416 -19.615 -38.344  0.00  0.00     0.756 A 
ATOM      4  N   UNK d   1       1.424 -20.313 -38.940  0.00  0.00     0.131 NA
ATOM      5  C   UNK d   1       0.141 -19.864 -38.956  0.00  0.00     0.756 A 
ATOM      6  N   UNK d   1      -0.132 -18.680 -38.352  0.00  0.00     0.133 NA
ENDROOT
BRANCH   1   7
ATOM      7  N   UNK d   1       0.563 -16.738 -37.082  0.00  0.00    -0.105 N 
ATOM      8  H   UNK d   1      -0.282 -16.658 -36.504  0.00  0.00     0.208 HD
BRANCH   7   9
ATOM      9  N   UNK d   1       1.421 -15.659 -37.209  0.00  0.00    -0.171 NA
ATOM     10  C   UNK d   1       1.255 -14.698 -38.052  0.00  0.00     0.153 C 
BRANCH  10  11
ATOM     11  C   UNK d   1       2.184 -13.591 -38.150  0.00  0.00     0.018 A 
ATOM     12  C   UNK d   1       2.447 -12.801 -37.031  0.00  0.00     0.080 A 
ATOM     13  C   UNK d   1       3.299 -11.728 -37.065  0.00  0.00     0.075 A 
ATOM     14  C   UNK d   1       3.954 -11.371 -38.228  0.00  0.00     0.085 A 
ATOM     15  C   UNK d   1       3.710 -12.143 -39.353  0.00  0.00     0.045 A 
ATOM     16 Br   UNK d   1       4.601 -11.684 -40.968  0.00  0.00    -0.048 Br
ATOM     17  C   UNK d   1       2.846 -13.220 -39.300  0.00  0.00     0.037 A 
BRANCH  12  18
ATOM     18  O   UNK d   1       1.788 -13.158 -35.850  0.00  0.00    -0.360 OA
ATOM     19  H   UNK d   1       1.405 -14.096 -35.777  0.00  0.00     0.217 HD
ENDBRANCH  12  18
BRANCH  14  20
ATOM     20  O   UNK d   1       4.819 -10.279 -38.251  0.00  0.00    -0.359 OA
ATOM     21  H   UNK d   1       5.824 -10.359 -38.215  0.00  0.00     0.217 HD
ENDBRANCH  14  20
ENDBRANCH  10  11
ENDBRANCH   7   9
ENDBRANCH   1   7
BRANCH   3  22
ATOM     22  N   UNK d   1       3.766 -20.107 -38.333  0.00  0.00    -0.209 N 
ATOM     23  C   UNK d   1       4.141 -21.278 -39.073  0.00  0.00     0.167 C 
ATOM     24  C   UNK d   1       5.589 -21.550 -39.199  0.00  0.00     0.188 C 
ATOM     25  O   UNK d   1       6.387 -20.860 -38.297  0.00  0.00    -0.388 OA
ATOM     26  C   UNK d   1       6.076 -19.508 -38.253  0.00  0.00     0.188 C 
ATOM     27  C   UNK d   1       4.740 -19.392 -37.562  0.00  0.00     0.167 C 
ENDBRANCH   3  22
BRANCH   5  28
ATOM     28  N   UNK d   1      -0.886 -20.610 -39.568  0.00  0.00    -0.209 N 
ATOM     29  C   UNK d   1      -0.801 -21.011 -40.949  0.00  0.00     0.167 C 
ATOM     30  C   UNK d   1      -1.036 -22.529 -40.944  0.00  0.00     0.188 C 
ATOM     31  O   UNK d   1      -2.210 -22.799 -40.272  0.00  0.00    -0.388 OA
ATOM     32  C   UNK d   1      -2.063 -22.548 -38.909  0.00  0.00     0.188 C 
ATOM     33  C   UNK d   1      -2.042 -21.008 -38.806  0.00  0.00     0.167 C 
ENDBRANCH   5  28
TORSDOF 7
ENDMDL
