MODEL 1
REMARK VINA RESULT:    -6.647      0.000      0.000
REMARK INTER + INTRA:          -9.833
REMARK INTER:                  -8.979
REMARK INTRA:                  -0.854
REMARK UNBOUND:                -0.854
REMARK  7 active torsions:
REMARK  status: ('A' for Active; 'I' for Inactive)
REMARK    1  A    between atoms: C_3  and  O_30 
REMARK    2  A    between atoms: C_5  and  O_29 
REMARK    3  A    between atoms: C_7  and  C_8 
REMARK    4  A    between atoms: N_9  and  N_10 
REMARK    5  A    between atoms: N_10  and  C_11 
REMARK    6  A    between atoms: C_13  and  N_23 
REMARK    7  A    between atoms: C_15  and  N_17 
ROOT
ATOM      1  C   UNK d   1       0.823 -16.195 -36.536  0.00  0.00     0.774 A 
ATOM      2  N   UNK d   1      -0.312 -16.900 -36.494  0.00  0.00     0.133 NA
ATOM      3  C   UNK d   1      -0.413 -18.143 -37.035  0.00  0.00     0.756 A 
ATOM      4  N   UNK d   1       0.664 -18.678 -37.632  0.00  0.00     0.131 NA
ATOM      5  C   UNK d   1       1.817 -17.997 -37.690  0.00  0.00     0.756 A 
ATOM      6  N   UNK d   1       1.881 -16.750 -37.136  0.00  0.00     0.133 NA
ENDROOT
BRANCH   1   7
ATOM      7  N   UNK d   1       0.863 -14.914 -35.949  0.00  0.00    -0.105 N 
ATOM      8  H   UNK d   1       0.148 -14.683 -35.228  0.00  0.00     0.208 HD
BRANCH   7   9
ATOM      9  N   UNK d   1       1.845 -13.951 -36.313  0.00  0.00    -0.172 NA
ATOM     10  C   UNK d   1       1.817 -13.394 -37.479  0.00  0.00     0.152 C 
BRANCH  10  11
ATOM     11  C   UNK d   1       2.766 -12.410 -37.939  0.00  0.00     0.006 A 
ATOM     12  C   UNK d   1       3.310 -12.446 -39.201  0.00  0.00     0.056 A 
ATOM     13 Br   UNK d   1       2.756 -13.860 -40.353  0.00  0.00    -0.047 Br
ATOM     14  C   UNK d   1       4.225 -11.504 -39.635  0.00  0.00     0.086 A 
ATOM     15  C   UNK d   1       4.611 -10.486 -38.777  0.00  0.00     0.074 A 
ATOM     16  C   UNK d   1       4.081 -10.427 -37.508  0.00  0.00     0.069 A 
ATOM     17  C   UNK d   1       3.166 -11.390 -37.109  0.00  0.00     0.051 A 
BRANCH  14  18
ATOM     18  O   UNK d   1       4.755 -11.567 -40.911  0.00  0.00    -0.359 OA
ATOM     19  H   UNK d   1       5.715 -11.280 -41.045  0.00  0.00     0.217 HD
ENDBRANCH  14  18
BRANCH  16  20
ATOM     20  O   UNK d   1       4.495  -9.394 -36.682  0.00  0.00    -0.361 OA
ATOM     21  H   UNK d   1       5.444  -9.272 -36.356  0.00  0.00     0.217 HD
ENDBRANCH  16  20
ENDBRANCH  10  11
ENDBRANCH   7   9
ENDBRANCH   1   7
BRANCH   3  22
ATOM     22  N   UNK d   1      -1.658 -18.798 -36.939  0.00  0.00    -0.209 N 
ATOM     23  C   UNK d   1      -2.720 -18.186 -36.188  0.00  0.00     0.167 C 
ATOM     24  C   UNK d   1      -3.895 -18.071 -37.173  0.00  0.00     0.188 C 
ATOM     25  O   UNK d   1      -4.217 -19.383 -37.520  0.00  0.00    -0.388 OA
ATOM     26  C   UNK d   1      -3.228 -19.976 -38.299  0.00  0.00     0.188 C 
ATOM     27  C   UNK d   1      -1.904 -20.073 -37.568  0.00  0.00     0.167 C 
ENDBRANCH   3  22
BRANCH   5  28
ATOM     28  N   UNK d   1       2.967 -18.557 -38.325  0.00  0.00    -0.209 N 
ATOM     29  C   UNK d   1       3.159 -18.574 -39.755  0.00  0.00     0.167 C 
ATOM     30  C   UNK d   1       3.635 -19.935 -40.217  0.00  0.00     0.188 C 
ATOM     31  O   UNK d   1       3.751 -20.841 -39.173  0.00  0.00    -0.388 OA
ATOM     32  C   UNK d   1       4.641 -20.319 -38.214  0.00  0.00     0.188 C 
ATOM     33  C   UNK d   1       3.998 -19.148 -37.496  0.00  0.00     0.167 C 
ENDBRANCH   5  28
TORSDOF 7
ENDMDL
