/Users/jonathanwahrer/Desktop/Msc/3_Semester/Drug_Design_Praktikum/waehrer_HTS_screening/HTS_experiment/out/docking_results/vina_output/6y4q/0035_docked.pdbqt
 OpenBabel03232217163D

 33 36  0  0  0  0  0  0  0  0999 V2000
    0.8230  -16.1950  -36.5360 C   0  0  0  0  0  0  0  0  0  0  0  0
   -0.3120  -16.9000  -36.4940 N   0  0  0  0  0  4  0  0  0  0  0  0
   -0.4130  -18.1430  -37.0350 C   0  0  0  0  0  0  0  0  0  0  0  0
    0.6640  -18.6780  -37.6320 N   0  0  0  0  0  0  0  0  0  0  0  0
    1.8170  -17.9970  -37.6900 C   0  0  0  0  0  0  0  0  0  0  0  0
    1.8810  -16.7500  -37.1360 N   0  0  0  0  0  2  0  0  0  0  0  0
    0.8630  -14.9140  -35.9490 N   0  0  0  0  0  0  0  0  0  0  0  0
    0.1480  -14.6830  -35.2280 H   0  0  0  0  0  0  0  0  0  0  0  0
    1.8450  -13.9510  -36.3130 N   0  0  0  0  0  0  0  0  0  0  0  0
    1.8170  -13.3940  -37.4790 C   0  0  0  0  0  3  0  0  0  0  0  0
    2.7660  -12.4100  -37.9390 C   0  0  0  0  0  0  0  0  0  0  0  0
    3.3100  -12.4460  -39.2010 C   0  0  0  0  0  0  0  0  0  0  0  0
    2.7560  -13.8600  -40.3530 Br  0  0  0  0  0  0  0  0  0  0  0  0
    4.2250  -11.5040  -39.6350 C   0  0  0  0  0  0  0  0  0  0  0  0
    4.6110  -10.4860  -38.7770 C   0  0  0  0  0  3  0  0  0  0  0  0
    4.0810  -10.4270  -37.5080 C   0  0  0  0  0  0  0  0  0  0  0  0
    3.1660  -11.3900  -37.1090 C   0  0  0  0  0  3  0  0  0  0  0  0
    4.7550  -11.5670  -40.9110 O   0  0  0  0  0  0  0  0  0  0  0  0
    5.7150  -11.2800  -41.0450 H   0  0  0  0  0  0  0  0  0  0  0  0
    4.4950   -9.3940  -36.6820 O   0  0  0  0  0  0  0  0  0  0  0  0
    5.4440   -9.2720  -36.3560 H   0  0  0  0  0  0  0  0  0  0  0  0
   -1.6580  -18.7980  -36.9390 N   0  0  0  0  0  0  0  0  0  0  0  0
   -2.7200  -18.1860  -36.1880 C   0  0  0  0  0  2  0  0  0  0  0  0
   -3.8950  -18.0710  -37.1730 C   0  0  0  0  0  2  0  0  0  0  0  0
   -4.2170  -19.3830  -37.5200 O   0  0  0  0  0  0  0  0  0  0  0  0
   -3.2280  -19.9760  -38.2990 C   0  0  0  0  0  2  0  0  0  0  0  0
   -1.9040  -20.0730  -37.5680 C   0  0  0  0  0  2  0  0  0  0  0  0
    2.9670  -18.5570  -38.3250 N   0  0  0  0  0  0  0  0  0  0  0  0
    3.1590  -18.5740  -39.7550 C   0  0  0  0  0  2  0  0  0  0  0  0
    3.6350  -19.9350  -40.2170 C   0  0  0  0  0  2  0  0  0  0  0  0
    3.7510  -20.8410  -39.1730 O   0  0  0  0  0  0  0  0  0  0  0  0
    4.6410  -20.3190  -38.2140 C   0  0  0  0  0  2  0  0  0  0  0  0
    3.9980  -19.1480  -37.4960 C   0  0  0  0  0  2  0  0  0  0  0  0
  1  2  2  0  0  0  0
  1  7  1  0  0  0  0
  3 22  1  0  0  0  0
  3  2  2  0  0  0  0
  4  3  1  0  0  0  0
  5  4  2  0  0  0  0
  5  6  1  0  0  0  0
  6  1  1  0  0  0  0
  7  8  1  0  0  0  0
  9  7  1  0  0  0  0
 10  9  2  0  0  0  0
 11 10  1  0  0  0  0
 11 17  1  0  0  0  0
 12 11  2  0  0  0  0
 13 12  1  0  0  0  0
 14 12  1  0  0  0  0
 14 15  2  0  0  0  0
 15 16  1  0  0  0  0
 16 17  2  0  0  0  0
 16 20  1  0  0  0  0
 18 14  1  0  0  0  0
 19 18  1  0  0  0  0
 20 21  1  0  0  0  0
 22 23  1  0  0  0  0
 24 23  1  0  0  0  0
 25 24  1  0  0  0  0
 26 27  1  0  0  0  0
 26 25  1  0  0  0  0
 27 22  1  0  0  0  0
 28  5  1  0  0  0  0
 28 33  1  0  0  0  0
 29 28  1  0  0  0  0
 30 29  1  0  0  0  0
 30 31  1  0  0  0  0
 31 32  1  0  0  0  0
 32 33  1  0  0  0  0
M  END
>  <Pose>
1

>  <Score>
-6.647

$$$$
