/Users/jonathanwahrer/Desktop/Msc/3_Semester/Drug_Design_Praktikum/waehrer_HTS_screening/HTS_experiment/out/docking_results/vina_output/6y4q/0037_docked.pdbqt
 OpenBabel03232217163D

 27 30  0  0  1  0  0  0  0  0999 V2000
    1.8700  -13.9890  -37.5180 N   0  0  0  0  0  0  0  0  0  0  0  0
    1.7190  -15.2960  -38.1130 C   0  0  0  0  0  2  0  0  0  0  0  0
    1.5470  -16.1740  -36.8930 C   0  0  1  0  0  3  0  0  0  0  0  0
    0.5540  -15.3600  -36.0830 C   0  0  0  0  0  2  0  0  0  0  0  0
    1.0950  -13.9980  -36.3330 C   0  0  0  0  0  0  0  0  0  0  0  0
    0.8870  -13.0110  -35.5960 O   0  0  0  0  0  0  0  0  0  0  0  0
    1.0150  -17.5090  -37.2380 C   0  0  0  0  0  0  0  0  0  0  0  0
   -0.1860  -17.8050  -37.0290 O   0  0  0  0  0  0  0  0  0  0  0  0
    1.8810  -18.4630  -37.8130 N   0  0  0  0  0  0  0  0  0  0  0  0
    2.8740  -18.2280  -37.9870 H   0  0  0  0  0  0  0  0  0  0  0  0
    1.4030  -19.7770  -38.1670 C   0  0  0  0  0  2  0  0  0  0  0  0
    2.2130  -20.3650  -39.2700 C   0  0  0  0  0  0  0  0  0  0  0  0
    3.4690  -20.8730  -39.2000 N   0  0  0  0  0  0  0  0  0  0  0  0
    3.8440  -21.3080  -40.4150 C   0  0  0  0  0  0  0  0  0  0  0  0
    4.5140  -21.0810  -38.2140 C   0  0  0  0  0  2  0  0  0  0  0  0
    2.7870  -21.0540  -41.2270 N   0  0  0  0  0  0  0  0  0  0  0  0
    5.2310  -21.8770  -40.3740 C   0  0  0  0  0  2  0  0  0  0  0  0
    1.8110  -20.4890  -40.5450 N   0  0  0  0  0  0  0  0  0  0  0  0
    5.7460  -21.3650  -39.0470 C   0  0  0  0  0  2  0  0  0  0  0  0
    2.6580  -12.9470  -38.0790 C   0  0  0  0  0  0  0  0  0  0  0  0
    3.0600  -11.8240  -37.3890 C   0  0  0  0  0  3  0  0  0  0  0  0
    3.8190  -10.8140  -37.9130 C   0  0  0  0  0  0  0  0  0  0  0  0
    4.2120  -10.9300  -39.2410 C   0  0  0  0  0  0  0  0  0  0  0  0
    4.2370   -9.6150  -37.1370 C   0  0  0  0  0  1  0  0  0  0  0  0
    5.2690   -9.5390  -40.0020 Br  0  0  0  0  0  0  0  0  0  0  0  0
    3.8410  -12.0310  -39.9850 C   0  0  0  0  0  3  0  0  0  0  0  0
    3.0740  -13.0260  -39.4110 C   0  0  0  0  0  3  0  0  0  0  0  0
  1  5  1  0  0  0  0
  2  1  1  0  0  0  0
  2  3  1  0  0  0  0
  3  7  1  6  0  0  0
  3  4  1  0  0  0  0
  5  4  1  0  0  0  0
  5  6  2  0  0  0  0
  7  8  2  0  0  0  0
  9  7  1  0  0  0  0
 10  9  1  0  0  0  0
 11  9  1  0  0  0  0
 12 13  1  0  0  0  0
 12 11  1  0  0  0  0
 13 15  1  0  0  0  0
 14 17  1  0  0  0  0
 14 13  1  0  0  0  0
 16 18  1  0  0  0  0
 16 14  2  0  0  0  0
 17 19  1  0  0  0  0
 18 12  2  0  0  0  0
 19 15  1  0  0  0  0
 20  1  1  0  0  0  0
 20 21  1  0  0  0  0
 22 21  2  0  0  0  0
 22 24  1  0  0  0  0
 23 22  1  0  0  0  0
 25 23  1  0  0  0  0
 26 27  1  0  0  0  0
 26 23  2  0  0  0  0
 27 20  2  0  0  0  0
M  END
>  <Pose>
1

>  <Score>
-7.335

$$$$
