MODEL 1
REMARK VINA RESULT:    -7.335      0.000      0.000
REMARK INTER + INTRA:          -9.451
REMARK INTER:                  -9.050
REMARK INTRA:                  -0.400
REMARK UNBOUND:                -0.400
REMARK  4 active torsions:
REMARK  status: ('A' for Active; 'I' for Inactive)
REMARK    1  A    between atoms: C_5  and  N_8 
REMARK    2  A    between atoms: C_10  and  C_14 
REMARK       I    between atoms: C_14  and  N_16 
REMARK    3  A    between atoms: N_16  and  C_17 
REMARK    4  A    between atoms: C_17  and  C_18 
ROOT
ATOM      1  N   UNK d   1       1.870 -13.989 -37.518  0.00  0.00    -0.317 N 
ATOM      2  C   UNK d   1       1.719 -15.296 -38.113  0.00  0.00     0.146 C 
ATOM      3  C   UNK d   1       1.547 -16.174 -36.893  0.00  0.00     0.105 C 
ATOM      4  C   UNK d   1       0.554 -15.360 -36.083  0.00  0.00     0.119 C 
ATOM      5  C   UNK d   1       1.095 -13.998 -36.333  0.00  0.00     0.225 C 
ATOM      6  O   UNK d   1       0.887 -13.011 -35.596  0.00  0.00    -0.273 OA
ENDROOT
BRANCH   3   7
ATOM      7  C   UNK d   1       1.015 -17.509 -37.238  0.00  0.00     0.224 C 
ATOM      8  O   UNK d   1      -0.186 -17.805 -37.029  0.00  0.00    -0.273 OA
ATOM      9  N   UNK d   1       1.881 -18.463 -37.813  0.00  0.00    -0.353 N 
ATOM     10  H   UNK d   1       2.874 -18.228 -37.987  0.00  0.00     0.162 HD
BRANCH   9  11
ATOM     11  C   UNK d   1       1.403 -19.777 -38.167  0.00  0.00     0.203 C 
BRANCH  11  12
ATOM     12  C   UNK d   1       2.213 -20.365 -39.270  0.00  0.00     0.148 A 
ATOM     13  N   UNK d   1       3.469 -20.873 -39.200  0.00  0.00    -0.319 N 
ATOM     14  C   UNK d   1       3.844 -21.308 -40.415  0.00  0.00     0.130 A 
ATOM     15  C   UNK d   1       4.514 -21.081 -38.214  0.00  0.00     0.132 C 
ATOM     16  N   UNK d   1       2.787 -21.054 -41.227  0.00  0.00    -0.135 NA
ATOM     17  C   UNK d   1       5.231 -21.877 -40.374  0.00  0.00     0.082 C 
ATOM     18  N   UNK d   1       1.811 -20.489 -40.545  0.00  0.00    -0.133 NA
ATOM     19  C   UNK d   1       5.746 -21.365 -39.047  0.00  0.00     0.028 C 
ENDBRANCH  11  12
ENDBRANCH   9  11
ENDBRANCH   3   7
BRANCH   1  20
ATOM     20  C   UNK d   1       2.658 -12.947 -38.079  0.00  0.00     0.037 A 
ATOM     21  C   UNK d   1       3.060 -11.824 -37.389  0.00  0.00     0.037 A 
ATOM     22  C   UNK d   1       3.819 -10.814 -37.913  0.00  0.00    -0.043 A 
ATOM     23  C   UNK d   1       4.212 -10.930 -39.241  0.00  0.00     0.017 A 
ATOM     24  C   UNK d   1       4.237  -9.615 -37.137  0.00  0.00     0.049 C 
ATOM     25 Br   UNK d   1       5.269  -9.539 -40.002  0.00  0.00    -0.051 Br
ATOM     26  C   UNK d   1       3.841 -12.031 -39.985  0.00  0.00     0.022 A 
ATOM     27  C   UNK d   1       3.074 -13.026 -39.411  0.00  0.00     0.031 A 
ENDBRANCH   1  20
TORSDOF 4
ENDMDL
