MODEL 1
REMARK VINA RESULT:    -5.420      0.000      0.000
REMARK INTER + INTRA:          -6.469
REMARK INTER:                  -6.371
REMARK INTRA:                  -0.098
REMARK UNBOUND:                -0.098
REMARK  3 active torsions:
REMARK  status: ('A' for Active; 'I' for Inactive)
REMARK    1  A    between atoms: C_3  and  N_9 
REMARK       I    between atoms: N_9  and  C_10 
REMARK    2  A    between atoms: C_10  and  C_12 
REMARK    3  A    between atoms: C_12  and  N_13 
ROOT
ATOM      1  N   UNK d   1       2.203 -18.586 -37.942  0.00  0.00    -0.325 N 
ATOM      2  C   UNK d   1       3.309 -19.295 -37.472  0.00  0.00     0.248 C 
ATOM      3  O   UNK d   1       4.054 -18.828 -36.598  0.00  0.00    -0.271 OA
ATOM      4  H   UNK d   1       1.625 -19.071 -38.692  0.00  0.00     0.169 HD
ENDROOT
BRANCH   2   5
ATOM      5  C   UNK d   1       3.593 -20.630 -38.033  0.00  0.00     0.340 C 
BRANCH   5   6
ATOM      6  N   UNK d   1       4.271 -20.649 -39.288  0.00  0.00    -0.054 N 
ATOM      7  C   UNK d   1       3.326 -21.159 -40.294  0.00  0.00     0.268 C 
ATOM      8  C   UNK d   1       3.785 -20.643 -41.635  0.00  0.00     0.300 C 
ATOM      9  N   UNK d   1       5.245 -20.717 -41.617  0.00  0.00     0.093 N 
ATOM     10  C   UNK d   1       5.686 -19.531 -40.889  0.00  0.00     0.300 C 
ATOM     11  C   UNK d   1       5.654 -21.868 -40.828  0.00  0.00     0.300 C 
ATOM     12  C   UNK d   1       4.752 -19.335 -39.704  0.00  0.00     0.268 C 
ATOM     13  C   UNK d   1       5.405 -21.549 -39.344  0.00  0.00     0.268 C 
ENDBRANCH   5   6
ENDBRANCH   2   5
BRANCH   1  14
ATOM     14  C   UNK d   1       1.746 -17.306 -37.553  0.00  0.00     0.052 A 
ATOM     15  C   UNK d   1       1.620 -16.278 -38.499  0.00  0.00     0.038 A 
ATOM     16 Br   UNK d   1       2.100 -16.729 -40.304  0.00  0.00    -0.049 Br
ATOM     17  C   UNK d   1       1.182 -15.015 -38.181  0.00  0.00     0.028 A 
ATOM     18  C   UNK d   1       0.835 -14.678 -36.895  0.00  0.00    -0.061 A 
ATOM     19  C   UNK d   1       0.950 -15.668 -35.950  0.00  0.00     0.009 A 
ATOM     20  C   UNK d   1       0.357 -13.307 -36.537  0.00  0.00     0.048 C 
ATOM     21  C   UNK d   1       1.395 -16.954 -36.266  0.00  0.00     0.031 A 
ENDBRANCH   1  14
TORSDOF 3
ENDMDL
