/Users/jonathanwahrer/Desktop/Msc/3_Semester/Drug_Design_Praktikum/waehrer_HTS_screening/HTS_experiment/out/docking_results/vina_output/6y4q/0039_docked.pdbqt
 OpenBabel03232217163D

 21 23  0  0  1  0  0  0  0  0999 V2000
    2.2030  -18.5860  -37.9420 N   0  0  0  0  0  0  0  0  0  0  0  0
    3.3090  -19.2950  -37.4720 C   0  0  0  0  0  0  0  0  0  0  0  0
    4.0540  -18.8280  -36.5980 O   0  0  0  0  0  0  0  0  0  0  0  0
    1.6250  -19.0710  -38.6920 H   0  0  0  0  0  0  0  0  0  0  0  0
    3.5930  -20.6300  -38.0330 C   0  0  0  0  0  2  0  0  0  0  0  0
    4.2710  -20.6490  -39.2880 N   0  0  1  0  0  4  0  0  0  0  0  0
    3.3260  -21.1590  -40.2940 C   0  0  0  0  0  2  0  0  0  0  0  0
    3.7850  -20.6430  -41.6350 C   0  0  0  0  0  2  0  0  0  0  0  0
    5.2450  -20.7170  -41.6170 N   0  0  1  0  0  0  0  0  0  0  0  0
    5.6860  -19.5310  -40.8890 C   0  0  0  0  0  2  0  0  0  0  0  0
    5.6540  -21.8680  -40.8280 C   0  0  0  0  0  2  0  0  0  0  0  0
    4.7520  -19.3350  -39.7040 C   0  0  0  0  0  2  0  0  0  0  0  0
    5.4050  -21.5490  -39.3440 C   0  0  0  0  0  2  0  0  0  0  0  0
    1.7460  -17.3060  -37.5530 C   0  0  0  0  0  0  0  0  0  0  0  0
    1.6200  -16.2780  -38.4990 C   0  0  0  0  0  0  0  0  0  0  0  0
    2.1000  -16.7290  -40.3040 Br  0  0  0  0  0  0  0  0  0  0  0  0
    1.1820  -15.0150  -38.1810 C   0  0  0  0  0  3  0  0  0  0  0  0
    0.8350  -14.6780  -36.8950 C   0  0  0  0  0  0  0  0  0  0  0  0
    0.9500  -15.6680  -35.9500 C   0  0  0  0  0  3  0  0  0  0  0  0
    0.3570  -13.3070  -36.5370 C   0  0  0  0  0  1  0  0  0  0  0  0
    1.3950  -16.9540  -36.2660 C   0  0  0  0  0  3  0  0  0  0  0  0
  1 14  1  0  0  0  0
  1  2  1  0  0  0  0
  2  3  2  0  0  0  0
  4  1  1  0  0  0  0
  5  2  1  0  0  0  0
  6  5  1  1  0  0  0
  7  6  1  0  0  0  0
  8  7  1  0  0  0  0
  9  8  1  1  0  0  0
  9 10  1  0  0  0  0
  9 11  1  0  0  0  0
 10 12  1  0  0  0  0
 11 13  1  0  0  0  0
 12  6  1  0  0  0  0
 13  6  1  0  0  0  0
 14 21  1  0  0  0  0
 15 17  1  0  0  0  0
 15 14  2  0  0  0  0
 16 15  1  0  0  0  0
 17 18  2  0  0  0  0
 18 20  1  0  0  0  0
 18 19  1  0  0  0  0
 21 19  2  0  0  0  0
M  END
>  <Pose>
1

>  <Score>
-5.420

$$$$
