/Users/jonathanwahrer/Desktop/Msc/3_Semester/Drug_Design_Praktikum/waehrer_HTS_screening/HTS_experiment/out/docking_results/vina_output/6y4q/0056_docked.pdbqt
 OpenBabel03232217163D

 24 27  0  0  1  0  0  0  0  0999 V2000
    1.6160  -19.9610  -38.9100 C   0  0  1  0  0  3  0  0  0  0  0  0
    0.8480  -19.0950  -38.1290 C   0  0  1  0  0  0  0  0  0  0  0  0
    0.6070  -17.6290  -38.0290 C   0  0  0  0  0  0  0  0  0  0  0  0
   -0.6110  -17.6570  -38.8780 N   0  0  0  0  0  2  0  0  0  0  0  0
   -0.3960  -18.4850  -39.8510 C   0  0  1  0  0  3  0  0  0  0  0  0
    0.9260  -19.0030  -39.6840 C   0  0  2  0  0  0  0  0  0  0  0  0
    1.8740  -18.0040  -40.2640 C   0  0  0  0  0  0  0  0  0  0  0  0
    2.6360  -17.2330  -40.7370 N   0  0  0  0  0  0  0  0  0  0  0  0
    0.2370  -17.3390  -36.7110 O   0  0  0  0  0  0  0  0  0  0  0  0
    1.0330  -16.2920  -36.2890 C   0  0  0  0  0  2  0  0  0  0  0  0
    1.4040  -15.6180  -37.6000 C   0  0  0  0  0  2  0  0  0  0  0  0
    1.5580  -16.7710  -38.4090 O   0  0  0  0  0  0  0  0  0  0  0  0
   -0.3970  -19.7570  -37.5980 C   0  0  0  0  0  0  0  0  0  0  0  0
   -1.3690  -20.2930  -37.1930 N   0  0  0  0  0  0  0  0  0  0  0  0
    3.0890  -19.9210  -38.7160 C   0  0  0  0  0  0  0  0  0  0  0  0
    3.9550  -20.5460  -39.5760 C   0  0  0  0  0  0  0  0  0  0  0  0
    3.3360  -21.5070  -41.1050 Br  0  0  0  0  0  0  0  0  0  0  0  0
    5.3180  -20.4670  -39.3210 C   0  0  0  0  0  3  0  0  0  0  0  0
    5.8190  -19.7680  -38.2170 C   0  0  0  0  0  3  0  0  0  0  0  0
    4.9330  -19.1490  -37.3680 C   0  0  0  0  0  3  0  0  0  0  0  0
    3.5720  -19.2320  -37.6290 C   0  0  0  0  0  3  0  0  0  0  0  0
   -1.3330  -18.8130  -40.9020 N   0  0  0  0  0  0  0  0  0  0  0  0
   -1.8190  -19.7300  -40.9210 H   0  0  0  0  0  0  0  0  0  0  0  0
   -1.5380  -18.1340  -41.6590 H   0  0  0  0  0  0  0  0  0  0  0  0
  1 15  1  1  0  0  0
  1  2  1  0  0  0  0
  2  3  1  0  0  0  0
  2 13  1  1  0  0  0
  3  9  1  0  0  0  0
  4  3  1  0  0  0  0
  5 22  1  1  0  0  0
  5  6  1  0  0  0  0
  5  4  1  0  0  0  0
  6  7  1  6  0  0  0
  6  1  1  0  0  0  0
  6  2  1  0  0  0  0
  8  7  3  0  0  0  0
  9 10  1  0  0  0  0
 11 10  1  0  0  0  0
 12  3  1  0  0  0  0
 12 11  1  0  0  0  0
 13 14  3  0  0  0  0
 15 21  1  0  0  0  0
 16 18  1  0  0  0  0
 16 15  2  0  0  0  0
 17 16  1  0  0  0  0
 18 19  2  0  0  0  0
 19 20  1  0  0  0  0
 21 20  2  0  0  0  0
 23 22  1  0  0  0  0
 24 22  1  0  0  0  0
M  END
>  <Pose>
1

>  <Score>
-5.567

$$$$
