MODEL 1
REMARK VINA RESULT:    -5.954      0.000      0.000
REMARK INTER + INTRA:          -7.544
REMARK INTER:                  -6.824
REMARK INTRA:                  -0.720
REMARK UNBOUND:                -0.720
REMARK  3 active torsions:
REMARK  status: ('A' for Active; 'I' for Inactive)
REMARK    1  A    between atoms: C_3  and  N_8 
REMARK    2  A    between atoms: C_12  and  C_20 
REMARK    3  A    between atoms: C_20  and  O_21 
ROOT
ATOM      1  N   UNK d   1       1.576 -17.680 -37.886  0.00  0.00    -0.250 N 
ATOM      2  C   UNK d   1       2.580 -18.596 -37.479  0.00  0.00     0.239 C 
ATOM      3  O   UNK d   1       3.524 -18.310 -36.722  0.00  0.00    -0.272 OA
ATOM      4  C   UNK d   1       2.353 -19.934 -38.072  0.00  0.00     0.135 C 
ATOM      5  C   UNK d   1       3.426 -20.347 -39.019  0.00  0.00     0.113 C 
ATOM      6  O   UNK d   1       2.752 -20.712 -40.214  0.00  0.00    -0.363 OA
ATOM      7  C   UNK d   1       2.003 -19.514 -40.342  0.00  0.00     0.159 C 
ATOM      8  C   UNK d   1       1.194 -19.663 -39.048  0.00  0.00     0.128 C 
ATOM      9  C   UNK d   1       0.586 -18.388 -38.638  0.00  0.00     0.239 C 
ATOM     10  O   UNK d   1      -0.567 -17.968 -38.877  0.00  0.00    -0.272 OA
ATOM     11  C   UNK d   1       3.077 -18.507 -40.207  0.00  0.00     0.005 C 
ATOM     12  C   UNK d   1       4.063 -19.094 -39.528  0.00  0.00     0.012 C 
ENDROOT
BRANCH   1  13
ATOM     13  C   UNK d   1       1.486 -16.282 -37.648  0.00  0.00     0.062 A 
ATOM     14  C   UNK d   1       0.896 -15.733 -36.533  0.00  0.00     0.038 A 
ATOM     15 Br   UNK d   1       0.160 -16.957 -35.240  0.00  0.00    -0.049 Br
ATOM     16  C   UNK d   1       0.820 -14.373 -36.326  0.00  0.00     0.021 A 
ATOM     17  C   UNK d   1       1.336 -13.489 -37.235  0.00  0.00     0.002 A 
ATOM     18  C   UNK d   1       1.939 -14.009 -38.374  0.00  0.00     0.002 A 
ATOM     19  C   UNK d   1       2.007 -15.376 -38.565  0.00  0.00     0.031 A 
ENDBRANCH   1  13
BRANCH   5  20
ATOM     20  C   UNK d   1       4.381 -21.368 -38.563  0.00  0.00     0.207 C 
BRANCH  20  21
ATOM     21  O   UNK d   1       4.728 -22.167 -39.669  0.00  0.00    -0.398 OA
ATOM     22  H   UNK d   1       3.905 -22.364 -40.205  0.00  0.00     0.209 HD
ENDBRANCH  20  21
ENDBRANCH   5  20
TORSDOF 3
ENDMDL
