MODEL 1
REMARK VINA RESULT:    -5.087      0.000      0.000
REMARK INTER + INTRA:          -5.557
REMARK INTER:                  -5.979
REMARK INTRA:                   0.422
REMARK UNBOUND:                 0.422
REMARK  3 active torsions:
REMARK  status: ('A' for Active; 'I' for Inactive)
REMARK    1  A    between atoms: C_3  and  N_8 
REMARK    2  A    between atoms: C_13  and  C_17 
REMARK    3  A    between atoms: C_17  and  O_19 
ROOT
ATOM      1  N   UNK d   1       1.913 -17.635 -37.730  0.00  0.00    -0.313 N 
ATOM      2  C   UNK d   1       3.038 -18.332 -37.077  0.00  0.00     0.175 C 
ATOM      3  C   UNK d   1       3.319 -19.395 -38.033  0.00  0.00     0.109 C 
ATOM      4  O   UNK d   1       4.168 -19.058 -39.100  0.00  0.00    -0.364 OA
ATOM      5  C   UNK d   1       3.983 -20.268 -39.821  0.00  0.00     0.160 C 
ATOM      6  C   UNK d   1       2.481 -20.106 -40.094  0.00  0.00     0.134 C 
ATOM      7  C   UNK d   1       1.996 -19.786 -38.715  0.00  0.00     0.135 C 
ATOM      8  C   UNK d   1       1.224 -18.564 -38.558  0.00  0.00     0.233 C 
ATOM      9  O   UNK d   1       0.107 -18.338 -39.069  0.00  0.00    -0.272 OA
ATOM     10  C   UNK d   1       4.248 -21.268 -38.745  0.00  0.00     0.005 C 
ATOM     11  C   UNK d   1       3.934 -20.642 -37.589  0.00  0.00     0.012 C 
ENDROOT
BRANCH   1  12
ATOM     12  C   UNK d   1       1.549 -16.271 -37.587  0.00  0.00     0.054 A 
ATOM     13  C   UNK d   1       0.704 -15.828 -36.584  0.00  0.00     0.037 A 
ATOM     14 Br   UNK d   1      -0.037 -17.011 -35.316  0.00  0.00    -0.049 Br
ATOM     15  C   UNK d   1       0.366 -14.478 -36.472  0.00  0.00     0.021 A 
ATOM     16  C   UNK d   1       0.858 -13.547 -37.347  0.00  0.00     0.002 A 
ATOM     17  C   UNK d   1       1.689 -13.962 -38.339  0.00  0.00     0.002 A 
ATOM     18  C   UNK d   1       2.021 -15.289 -38.448  0.00  0.00     0.031 A 
ENDBRANCH   1  12
BRANCH   6  19
ATOM     19  C   UNK d   1       2.380 -18.899 -40.974  0.00  0.00     0.266 C 
ATOM     20  O   UNK d   1       3.178 -17.952 -40.912  0.00  0.00    -0.265 OA
BRANCH  19  21
ATOM     21  O   UNK d   1       1.344 -18.839 -41.898  0.00  0.00    -0.326 OA
ATOM     22  C   UNK d   1       0.632 -20.044 -42.206  0.00  0.00     0.213 C 
ENDBRANCH  19  21
ENDBRANCH   6  19
TORSDOF 3
ENDMDL
