MODEL 1
REMARK VINA RESULT:    -6.059      0.000      0.000
REMARK INTER + INTRA:          -7.048
REMARK INTER:                  -6.767
REMARK INTRA:                  -0.281
REMARK UNBOUND:                -0.281
REMARK  2 active torsions:
REMARK  status: ('A' for Active; 'I' for Inactive)
REMARK    1  A    between atoms: N_4  and  C_8 
REMARK    2  A    between atoms: C_8  and  C_9 
ROOT
ATOM      1  C   UNK d   1       1.202 -17.225 -36.747  0.00  0.00     0.168 A 
ATOM      2  N   UNK d   1       0.667 -18.003 -37.706  0.00  0.00    -0.148 NA
ATOM      3  N   UNK d   1       1.619 -18.774 -38.234  0.00  0.00    -0.206 N 
ATOM      4  C   UNK d   1       2.789 -18.504 -37.620  0.00  0.00     0.169 A 
ATOM      5  N   UNK d   1       2.506 -17.551 -36.713  0.00  0.00    -0.209 NA
ATOM      6  C   UNK d   1       3.926 -19.188 -38.006  0.00  0.00     0.079 A 
ATOM      7  C   UNK d   1       3.910 -20.143 -39.002  0.00  0.00     0.162 A 
ATOM      8  N   UNK d   1       5.147 -20.652 -39.176  0.00  0.00    -0.256 N 
ATOM      9  N   UNK d   1       5.942 -20.044 -38.318  0.00  0.00    -0.182 NA
ATOM     10  C   UNK d   1       5.237 -19.137 -37.579  0.00  0.00     0.158 A 
ATOM     11  C   UNK d   1       5.571 -21.676 -40.116  0.00  0.00     0.182 C 
ATOM     12  N   UNK d   1       2.723 -20.382 -39.589  0.00  0.00    -0.222 NA
ATOM     13  C   UNK d   1       1.609 -19.705 -39.204  0.00  0.00     0.239 A 
ENDROOT
BRANCH   1  14
ATOM     14  C   UNK d   1       0.490 -16.209 -35.896  0.00  0.00     0.233 C 
BRANCH  14  15
ATOM     15  N   UNK d   1       0.758 -14.863 -36.347  0.00  0.00    -0.265 N 
ATOM     16  C   UNK d   1      -0.184 -13.975 -36.694  0.00  0.00     0.046 A 
ATOM     17  C   UNK d   1       0.477 -12.830 -37.058  0.00  0.00     0.060 A 
ATOM     18  C   UNK d   1      -1.671 -14.151 -36.697  0.00  0.00     0.071 C 
ATOM     19 Br   UNK d   1      -0.308 -11.206 -37.651  0.00  0.00    -0.047 Br
ATOM     20  C   UNK d   1       1.824 -13.043 -36.927  0.00  0.00     0.070 A 
ATOM     21  N   UNK d   1       1.950 -14.315 -36.484  0.00  0.00    -0.176 NA
ATOM     22  C   UNK d   1       2.948 -12.078 -37.209  0.00  0.00     0.074 C 
ENDBRANCH  14  15
ENDBRANCH   1  14
TORSDOF 2
ENDMDL
