MODEL 1
REMARK VINA RESULT:    -5.483      0.000      0.000
REMARK INTER + INTRA:          -7.186
REMARK INTER:                  -6.444
REMARK INTRA:                  -0.742
REMARK UNBOUND:                -0.742
REMARK  3 active torsions:
REMARK  status: ('A' for Active; 'I' for Inactive)
REMARK    1  A    between atoms: C_3  and  C_8 
REMARK       I    between atoms: C_8  and  N_10 
REMARK    2  A    between atoms: N_10  and  C_11 
REMARK    3  A    between atoms: C_17  and  N_20 
ROOT
ATOM      1  C   UNK d   1       1.710 -20.064 -38.928  0.00  0.00     0.069 A 
ATOM      2  C   UNK d   1       2.956 -19.708 -38.373  0.00  0.00     0.146 A 
ATOM      3  N   UNK d   1       3.267 -19.179 -37.159  0.00  0.00    -0.101 NA
ATOM      4  O   UNK d   1       4.557 -19.032 -37.126  0.00  0.00    -0.106 OA
ATOM      5  N   UNK d   1       5.090 -19.433 -38.238  0.00  0.00    -0.101 NA
ATOM      6  C   UNK d   1       4.129 -19.869 -39.061  0.00  0.00     0.146 A 
ATOM      7  C   UNK d   1       4.171 -20.389 -40.339  0.00  0.00     0.064 A 
ATOM      8  C   UNK d   1       2.947 -20.737 -40.880  0.00  0.00     0.034 A 
ATOM      9  C   UNK d   1       1.748 -20.577 -40.189  0.00  0.00     0.034 A 
ENDROOT
BRANCH   1  10
ATOM     10  N   UNK d   1       0.563 -19.853 -38.122  0.00  0.00    -0.319 N 
ATOM     11  C   UNK d   1      -0.269 -18.738 -38.179  0.00  0.00     0.275 C 
ATOM     12  O   UNK d   1      -0.022 -17.795 -39.020  0.00  0.00    -0.266 OA
ATOM     13  H   UNK d   1       0.280 -20.595 -37.414  0.00  0.00     0.169 HD
BRANCH  11  14
ATOM     14  C   UNK d   1      -1.455 -18.551 -37.317  0.00  0.00     0.139 A 
ATOM     15  C   UNK d   1      -2.696 -19.085 -37.441  0.00  0.00     0.064 A 
ATOM     16 Br   UNK d   1      -3.354 -20.315 -38.745  0.00  0.00    -0.047 Br
ATOM     17  C   UNK d   1      -3.467 -18.572 -36.379  0.00  0.00     0.160 A 
ATOM     18  N   UNK d   1      -2.648 -17.777 -35.700  0.00  0.00    -0.183 NA
ATOM     19  N   UNK d   1      -1.446 -17.729 -36.212  0.00  0.00    -0.268 N 
ATOM     20  C   UNK d   1      -0.328 -16.966 -35.721  0.00  0.00     0.180 C 
ENDBRANCH  11  14
ENDBRANCH   1  10
BRANCH   7  21
ATOM     21  N   UNK d   1       5.367 -20.559 -41.059  0.00  0.00    -0.375 N 
ATOM     22  C   UNK d   1       5.880 -19.431 -41.832  0.00  0.00     0.149 C 
ATOM     23  C   UNK d   1       7.060 -19.826 -42.676  0.00  0.00     0.187 C 
ATOM     24  O   UNK d   1       6.992 -21.047 -43.262  0.00  0.00    -0.388 OA
ATOM     25  C   UNK d   1       6.300 -22.038 -42.628  0.00  0.00     0.187 C 
ATOM     26  C   UNK d   1       6.194 -21.725 -41.150  0.00  0.00     0.149 C 
ENDBRANCH   7  21
TORSDOF 3
ENDMDL
