MODEL 1
REMARK VINA RESULT:    -6.443      0.000      0.000
REMARK INTER + INTRA:          -8.349
REMARK INTER:                  -7.949
REMARK INTRA:                  -0.400
REMARK UNBOUND:                -0.400
REMARK  4 active torsions:
REMARK  status: ('A' for Active; 'I' for Inactive)
REMARK    1  A    between atoms: C_4  and  C_13 
REMARK    2  A    between atoms: C_5  and  N_8 
REMARK       I    between atoms: C_13  and  N_15 
REMARK    3  A    between atoms: N_15  and  C_16 
REMARK    4  A    between atoms: C_16  and  C_17 
ROOT
ATOM      1  C   UNK d   1       0.881 -16.530 -35.928  0.00  0.00     0.254 C 
ATOM      2  O   UNK d   1       0.557 -17.018 -34.797  0.00  0.00    -0.268 OA
ATOM      3  N   UNK d   1       1.038 -15.196 -36.220  0.00  0.00    -0.350 N 
ATOM      4  H   UNK d   1       0.713 -14.864 -34.940  0.00  0.00     0.163 HD
ENDROOT
BRANCH   1   5
ATOM      5  C   UNK d   1       1.105 -17.541 -37.028  0.00  0.00     0.062 A 
ATOM      6  C   UNK d   1       2.369 -17.889 -37.431  0.00  0.00     0.038 A 
ATOM      7  C   UNK d   1       2.513 -18.823 -38.463  0.00  0.00     0.012 A 
ATOM      8 Br   UNK d   1       4.248 -19.319 -39.038  0.00  0.00    -0.051 Br
ATOM      9  C   UNK d   1       1.410 -19.381 -39.061  0.00  0.00     0.021 A 
ATOM     10  C   UNK d   1       0.138 -19.031 -38.655  0.00  0.00     0.034 A 
ATOM     11  C   UNK d   1      -0.002 -18.093 -37.617  0.00  0.00     0.077 A 
BRANCH  11  12
ATOM     12  N   UNK d   1      -1.276 -17.693 -37.145  0.00  0.00    -0.205 N 
ATOM     13  N   UNK d   1      -1.986 -18.387 -36.277  0.00  0.00    -0.040 NA
ATOM     14  N   UNK d   1      -3.126 -17.783 -36.016  0.00  0.00    -0.023 NA
ATOM     15  N   UNK d   1      -3.172 -16.667 -36.725  0.00  0.00    -0.122 NA
ATOM     16  C   UNK d   1      -2.030 -16.618 -37.418  0.00  0.00     0.262 A 
ENDBRANCH  11  12
ENDBRANCH   1   5
BRANCH   3  17
ATOM     17  C   UNK d   1       1.194 -13.870 -36.510  0.00  0.00     0.203 C 
BRANCH  17  18
ATOM     18  C   UNK d   1       1.926 -13.605 -37.815  0.00  0.00     0.152 A 
ATOM     19  N   UNK d   1       2.856 -12.643 -37.999  0.00  0.00    -0.290 N 
ATOM     20  C   UNK d   1       3.308 -12.673 -39.260  0.00  0.00     0.157 A 
ATOM     21  C   UNK d   1       3.355 -11.718 -37.132  0.00  0.00     0.100 A 
ATOM     22  N   UNK d   1       2.645 -13.672 -39.861  0.00  0.00    -0.130 NA
ATOM     23  C   UNK d   1       4.285 -11.765 -39.689  0.00  0.00     0.053 A 
ATOM     24  N   UNK d   1       1.803 -14.240 -38.985  0.00  0.00    -0.132 NA
ATOM     25  C   UNK d   1       4.790 -10.835 -38.823  0.00  0.00     0.005 A 
ATOM     26  C   UNK d   1       4.323 -10.805 -37.524  0.00  0.00     0.018 A 
ENDBRANCH  17  18
ENDBRANCH   3  17
TORSDOF 4
ENDMDL
