MODEL 1
REMARK VINA RESULT:    -6.298      0.000      0.000
REMARK INTER + INTRA:          -9.083
REMARK INTER:                  -7.771
REMARK INTRA:                  -1.312
REMARK UNBOUND:                -1.312
REMARK  4 active torsions:
REMARK  status: ('A' for Active; 'I' for Inactive)
REMARK    1  A    between atoms: C_4  and  C_10 
REMARK    2  A    between atoms: C_5  and  O_8 
REMARK    3  A    between atoms: C_18  and  C_19 
REMARK    4  A    between atoms: C_19  and  N_20 
ROOT
ATOM      1  C   UNK d   1       1.971 -16.759 -35.965  0.00  0.00     0.055 C 
ATOM      2  C   UNK d   1       2.414 -17.719 -36.728  0.00  0.00     0.128 A 
ATOM      3  O   UNK d   1       1.997 -17.944 -38.030  0.00  0.00    -0.305 OA
ATOM      4  C   UNK d   1       2.636 -19.032 -38.595  0.00  0.00     0.101 A 
ATOM      5  C   UNK d   1       3.515 -19.595 -37.699  0.00  0.00     0.051 A 
ATOM      6  C   UNK d   1       4.260 -20.699 -38.059  0.00  0.00     0.021 A 
ATOM      7  C   UNK d   1       4.114 -21.231 -39.323  0.00  0.00     0.041 A 
ATOM      8  C   UNK d   1       3.207 -20.636 -40.221  0.00  0.00     0.118 A 
ATOM      9  C   UNK d   1       2.463 -19.546 -39.888  0.00  0.00     0.039 A 
ATOM     10  O   UNK d   1       3.164 -21.284 -41.466  0.00  0.00    -0.191 OA
ATOM     11  C   UNK d   1       3.400 -18.777 -36.487  0.00  0.00     0.218 A 
ATOM     12  O   UNK d   1       4.030 -18.942 -35.419  0.00  0.00    -0.284 OA
ENDROOT
BRANCH   1  13
ATOM     13  C   UNK d   1       0.975 -15.763 -36.324  0.00  0.00     0.001 A 
ATOM     14  C   UNK d   1       1.297 -14.462 -36.641  0.00  0.00     0.033 A 
ATOM     15  C   UNK d   1       0.377 -13.508 -36.967  0.00  0.00     0.011 A 
ATOM     16 Br   UNK d   1       0.788 -11.702 -37.410  0.00  0.00    -0.051 Br
ATOM     17  C   UNK d   1      -0.962 -13.888 -36.973  0.00  0.00     0.022 A 
ATOM     18  C   UNK d   1      -1.348 -15.186 -36.661  0.00  0.00     0.039 A 
ATOM     19  C   UNK d   1      -0.382 -16.101 -36.342  0.00  0.00     0.078 A 
BRANCH  19  20
ATOM     20  O   UNK d   1      -0.733 -17.398 -36.022  0.00  0.00    -0.355 OA
ATOM     21  C   UNK d   1      -2.082 -17.787 -36.015  0.00  0.00     0.210 C 
ENDBRANCH  19  20
ENDBRANCH   1  13
BRANCH   9  22
ATOM     22  C   UNK d   1       1.538 -18.886 -40.769  0.00  0.00     0.279 C 
BRANCH  22  23
ATOM     23  N   UNK d   1       0.337 -19.477 -41.196  0.00  0.00    -0.063 N 
ATOM     24  C   UNK d   1      -0.355 -20.269 -40.215  0.00  0.00     0.261 C 
ATOM     25  C   UNK d   1      -1.205 -19.465 -39.262  0.00  0.00     0.195 C 
ATOM     26  O   UNK d   1      -1.073 -18.093 -39.423  0.00  0.00    -0.388 OA
ATOM     27  C   UNK d   1      -1.442 -17.815 -40.734  0.00  0.00     0.195 C 
ATOM     28  C   UNK d   1      -0.602 -18.494 -41.766  0.00  0.00     0.261 C 
ATOM     29  H   UNK d   1       0.531 -20.094 -42.011  0.00  0.00     0.280 HD
ENDBRANCH  22  23
ENDBRANCH   9  22
TORSDOF 4
ENDMDL
