MODEL 1
REMARK VINA RESULT:    -6.535      0.000      0.000
REMARK INTER + INTRA:          -9.789
REMARK INTER:                  -8.827
REMARK INTRA:                  -0.962
REMARK UNBOUND:                -0.962
REMARK  6 active torsions:
REMARK  status: ('A' for Active; 'I' for Inactive)
REMARK    1  A    between atoms: C_4  and  C_10 
REMARK    2  A    between atoms: C_5  and  O_8 
REMARK    3  A    between atoms: N_11  and  N_12 
REMARK    4  A    between atoms: N_12  and  C_13 
REMARK    5  A    between atoms: C_15  and  N_25 
REMARK    6  A    between atoms: C_17  and  N_19 
ROOT
ATOM      1  C   UNK d   1       1.410 -17.610 -39.623  0.00  0.00     0.774 A 
ATOM      2  N   UNK d   1       2.600 -18.154 -39.290  0.00  0.00     0.133 NA
ATOM      3  C   UNK d   1       2.682 -19.310 -38.621  0.00  0.00     0.756 A 
ATOM      4  N   UNK d   1       1.543 -19.932 -38.279  0.00  0.00     0.131 NA
ATOM      5  C   UNK d   1       0.311 -19.443 -38.582  0.00  0.00     0.756 A 
ATOM      6  N   UNK d   1       0.305 -18.264 -39.262  0.00  0.00     0.133 NA
ENDROOT
BRANCH   1   7
ATOM      7  N   UNK d   1       1.287 -16.384 -40.333  0.00  0.00    -0.105 N 
ATOM      8  H   UNK d   1       0.622 -16.293 -41.148  0.00  0.00     0.208 HD
BRANCH   7   9
ATOM      9  N   UNK d   1       2.025 -15.245 -40.006  0.00  0.00    -0.171 NA
ATOM     10  C   UNK d   1       1.810 -14.528 -38.968  0.00  0.00     0.153 C 
BRANCH  10  11
ATOM     11  C   UNK d   1       2.591 -13.341 -38.642  0.00  0.00     0.018 A 
ATOM     12  C   UNK d   1       3.385 -12.722 -39.577  0.00  0.00     0.034 A 
ATOM     13  C   UNK d   1       4.118 -11.601 -39.257  0.00  0.00     0.011 A 
ATOM     14 Br   UNK d   1       5.221 -10.745 -40.555  0.00  0.00    -0.051 Br
ATOM     15  C   UNK d   1       4.086 -11.051 -37.982  0.00  0.00     0.022 A 
ATOM     16  C   UNK d   1       3.286 -11.670 -37.035  0.00  0.00     0.039 A 
ATOM     17  C   UNK d   1       2.548 -12.807 -37.372  0.00  0.00     0.080 A 
BRANCH  17  18
ATOM     18  O   UNK d   1       1.736 -13.451 -36.446  0.00  0.00    -0.355 OA
ATOM     19  C   UNK d   1       0.530 -12.916 -35.954  0.00  0.00     0.210 C 
ENDBRANCH  17  18
ENDBRANCH  10  11
ENDBRANCH   7   9
ENDBRANCH   1   7
BRANCH   3  20
ATOM     20  N   UNK d   1       3.934 -19.882 -38.269  0.00  0.00    -0.209 N 
ATOM     21  C   UNK d   1       4.875 -19.211 -37.400  0.00  0.00     0.167 C 
ATOM     22  C   UNK d   1       6.299 -19.352 -37.916  0.00  0.00     0.188 C 
ATOM     23  O   UNK d   1       6.550 -20.672 -38.309  0.00  0.00    -0.388 OA
ATOM     24  C   UNK d   1       5.719 -21.065 -39.331  0.00  0.00     0.188 C 
ATOM     25  C   UNK d   1       4.313 -21.179 -38.783  0.00  0.00     0.167 C 
ENDBRANCH   3  20
BRANCH   5  26
ATOM     26  N   UNK d   1      -0.879 -20.100 -38.220  0.00  0.00    -0.209 N 
ATOM     27  C   UNK d   1      -1.287 -21.313 -38.865  0.00  0.00     0.167 C 
ATOM     28  C   UNK d   1      -2.716 -21.097 -39.358  0.00  0.00     0.188 C 
ATOM     29  O   UNK d   1      -3.473 -20.733 -38.258  0.00  0.00    -0.388 OA
ATOM     30  C   UNK d   1      -3.133 -19.499 -37.755  0.00  0.00     0.188 C 
ATOM     31  C   UNK d   1      -1.714 -19.556 -37.189  0.00  0.00     0.167 C 
ENDBRANCH   5  26
TORSDOF 6
ENDMDL
