MODEL 1
REMARK VINA RESULT:    -5.865      0.000      0.000
REMARK INTER + INTRA:          -8.630
REMARK INTER:                  -7.579
REMARK INTRA:                  -1.051
REMARK UNBOUND:                -1.051
REMARK  5 active torsions:
REMARK  status: ('A' for Active; 'I' for Inactive)
REMARK    1  A    between atoms: C_4  and  C_10 
REMARK    2  A    between atoms: C_5  and  O_8 
REMARK    3  A    between atoms: N_15  and  C_25 
REMARK    4  A    between atoms: C_25  and  C_26 
REMARK    5  A    between atoms: C_26  and  O_27 
ROOT
ATOM      1  C   UNK d   1       2.142 -17.687 -37.199  0.00  0.00     0.188 A 
ATOM      2  N   UNK d   1       2.317 -18.650 -38.078  0.00  0.00    -0.106 N 
ATOM      3  C   UNK d   1       3.331 -19.483 -37.681  0.00  0.00     0.736 A 
ATOM      4  N   UNK d   1       3.792 -18.991 -36.509  0.00  0.00     0.045 NA
ATOM      5  N   UNK d   1       3.107 -17.939 -36.214  0.00  0.00    -0.114 NA
ATOM      6  N   UNK d   1       3.496 -20.453 -38.584  0.00  0.00    -0.168 N 
ATOM      7  C   UNK d   1       2.595 -20.240 -39.557  0.00  0.00     0.165 A 
ATOM      8  C   UNK d   1       1.843 -19.108 -39.264  0.00  0.00     0.170 A 
ATOM      9  N   UNK d   1       0.898 -18.653 -40.064  0.00  0.00    -0.287 N 
ATOM     10  C   UNK d   1       0.674 -19.357 -41.217  0.00  0.00     0.330 A 
ATOM     11  O   UNK d   1      -0.203 -19.014 -42.049  0.00  0.00    -0.246 OA
ATOM     12  N   UNK d   1       1.381 -20.463 -41.533  0.00  0.00    -0.273 N 
ATOM     13  C   UNK d   1       2.336 -20.921 -40.732  0.00  0.00     0.280 A 
ATOM     14  O   UNK d   1       3.029 -21.943 -40.969  0.00  0.00    -0.265 OA
ATOM     15  C   UNK d   1       0.103 -17.469 -39.937  0.00  0.00     0.163 C 
ATOM     16  H   UNK d   1       1.198 -20.988 -42.413  0.00  0.00     0.173 HD
ENDROOT
BRANCH   1  17
ATOM     17  C   UNK d   1       1.301 -16.542 -36.993  0.00  0.00     0.047 A 
ATOM     18  C   UNK d   1       1.610 -15.220 -37.103  0.00  0.00     0.037 A 
ATOM     19  C   UNK d   1       0.767 -14.171 -36.879  0.00  0.00     0.012 A 
ATOM     20 Br   UNK d   1       1.404 -12.385 -37.090  0.00  0.00    -0.051 Br
ATOM     21  C   UNK d   1      -0.520 -14.418 -36.505  0.00  0.00     0.022 A 
ATOM     22  C   UNK d   1      -0.923 -15.737 -36.368  0.00  0.00     0.039 A 
ATOM     23  C   UNK d   1      -0.040 -16.764 -36.605  0.00  0.00     0.082 A 
BRANCH  23  24
ATOM     24  O   UNK d   1      -0.483 -18.066 -36.456  0.00  0.00    -0.355 OA
ATOM     25  C   UNK d   1      -1.791 -18.486 -36.689  0.00  0.00     0.210 C 
ENDBRANCH  23  24
ENDBRANCH   1  17
BRANCH   6  26
ATOM     26  C   UNK d   1       4.443 -21.528 -38.547  0.00  0.00     0.174 C 
BRANCH  26  27
ATOM     27  C   UNK d   1       5.811 -21.008 -38.935  0.00  0.00     0.187 C 
BRANCH  27  28
ATOM     28  O   UNK d   1       6.077 -21.412 -40.228  0.00  0.00    -0.394 OA
ATOM     29  C   UNK d   1       6.072 -20.326 -41.122  0.00  0.00     0.201 C 
ENDBRANCH  27  28
ENDBRANCH  26  27
ENDBRANCH   6  26
TORSDOF 5
ENDMDL
