/Users/jonathanwahrer/Desktop/Msc/3_Semester/Drug_Design_Praktikum/waehrer_HTS_screening/HTS_experiment/out/docking_results/vina_output/6y4q/0127_docked.pdbqt
 OpenBabel03232217183D

 29 32  0  0  0  0  0  0  0  0999 V2000
    2.1130  -17.3730  -37.8820 N   0  0  0  0  0  0  0  0  0  0  0  0
    1.8490  -17.5110  -39.2660 C   0  0  0  0  0  2  0  0  0  0  0  0
    2.8710  -18.2340  -40.0560 C   0  0  0  0  0  2  0  0  0  0  0  0
    3.1790  -19.4980  -39.4690 N   0  0  0  0  0  0  0  0  0  0  0  0
    2.8920  -19.6950  -38.0770 C   0  0  0  0  0  2  0  0  0  0  0  0
    2.8600  -18.4170  -37.2710 C   0  0  0  0  0  2  0  0  0  0  0  0
    3.7810  -20.5520  -40.2060 C   0  0  0  0  0  0  0  0  0  0  0  0
    2.9860  -21.3590  -40.9050 C   0  0  0  0  0  0  0  0  0  0  0  0
    1.5890  -21.4530  -41.1210 N   0  0  0  0  0  0  0  0  0  0  0  0
    3.6540  -22.4420  -41.6600 C   0  0  0  0  0  0  0  0  0  0  0  0
    1.4220  -22.5600  -41.9830 N   0  0  0  0  0  0  0  0  0  0  0  0
    0.5630  -20.5980  -40.5760 C   0  0  0  0  0  1  0  0  0  0  0  0
    2.6910  -23.1140  -42.2720 C   0  0  0  0  0  0  0  0  0  0  0  0
    0.4810  -22.8620  -42.3120 H   0  0  0  0  0  0  0  0  0  0  0  0
    2.9720  -24.2900  -43.1390 C   0  0  0  0  0  1  0  0  0  0  0  0
    5.0700  -22.5740  -41.6120 N   0  0  0  0  0  0  0  0  0  0  0  0
    5.7940  -21.7640  -40.9210 C   0  0  0  0  0  3  0  0  0  0  0  0
    5.2140  -20.7150  -40.1820 N   0  0  0  0  0  0  0  0  0  0  0  0
    5.7540  -20.0410  -39.6130 H   0  0  0  0  0  0  0  0  0  0  0  0
    1.1010  -16.7820  -37.0980 C   0  0  0  0  0  2  0  0  0  0  0  0
    0.5750  -15.5290  -37.6440 C   0  0  0  0  0  0  0  0  0  0  0  0
   -0.6200  -15.4870  -38.0340 O   0  0  0  0  0  0  0  0  0  0  0  0
    1.4510  -14.3650  -37.7190 C   0  0  0  0  0  0  0  0  0  0  0  0
    2.0460  -14.0140  -38.9020 C   0  0  0  0  0  3  0  0  0  0  0  0
    2.8860  -12.9130  -39.0090 C   0  0  0  0  0  0  0  0  0  0  0  0
    3.7100  -12.4270  -40.6540 Br  0  0  0  0  0  0  0  0  0  0  0  0
    3.1330  -12.1470  -37.8910 C   0  0  0  0  0  3  0  0  0  0  0  0
    2.5230  -12.5150  -36.6980 C   0  0  0  0  0  3  0  0  0  0  0  0
    1.6940  -13.6040  -36.5990 C   0  0  0  0  0  3  0  0  0  0  0  0
  1  6  1  0  0  0  0
  1 20  1  0  0  0  0
  2  1  1  0  0  0  0
  3  4  1  0  0  0  0
  3  2  1  0  0  0  0
  4  5  1  0  0  0  0
  5  6  1  0  0  0  0
  7 18  1  0  0  0  0
  7  4  1  0  0  0  0
  8  7  2  0  0  0  0
  9  8  1  0  0  0  0
  9 12  1  0  0  0  0
 10 16  1  0  0  0  0
 10  8  1  0  0  0  0
 11  9  1  0  0  0  0
 13 11  1  0  0  0  0
 13 10  2  0  0  0  0
 14 11  1  0  0  0  0
 15 13  1  0  0  0  0
 16 17  2  0  0  0  0
 17 18  1  0  0  0  0
 18 19  1  0  0  0  0
 21 20  1  0  0  0  0
 22 21  2  0  0  0  0
 23 21  1  0  0  0  0
 23 29  1  0  0  0  0
 24 23  2  0  0  0  0
 25 24  1  0  0  0  0
 25 27  2  0  0  0  0
 26 25  1  0  0  0  0
 27 28  1  0  0  0  0
 28 29  2  0  0  0  0
M  END
>  <Pose>
1

>  <Score>
-6.182

$$$$
