MODEL 1
REMARK VINA RESULT:    -6.182      0.000      0.000
REMARK INTER + INTRA:          -7.974
REMARK INTER:                  -7.628
REMARK INTRA:                  -0.346
REMARK UNBOUND:                -0.346
REMARK  4 active torsions:
REMARK  status: ('A' for Active; 'I' for Inactive)
REMARK    1  A    between atoms: C_4  and  C_8 
REMARK    2  A    between atoms: C_8  and  C_10 
REMARK    3  A    between atoms: C_10  and  N_11 
REMARK    4  A    between atoms: N_14  and  C_17 
ROOT
ATOM      1  N   UNK d   1       2.113 -17.373 -37.882  0.00  0.00    -0.402 N 
ATOM      2  C   UNK d   1       1.849 -17.511 -39.266  0.00  0.00     0.137 C 
ATOM      3  C   UNK d   1       2.871 -18.234 -40.056  0.00  0.00     0.143 C 
ATOM      4  N   UNK d   1       3.179 -19.498 -39.469  0.00  0.00    -0.362 N 
ATOM      5  C   UNK d   1       2.892 -19.695 -38.077  0.00  0.00     0.143 C 
ATOM      6  C   UNK d   1       2.860 -18.417 -37.271  0.00  0.00     0.137 C 
ENDROOT
BRANCH   4   7
ATOM      7  C   UNK d   1       3.781 -20.552 -40.206  0.00  0.00     0.135 A 
ATOM      8  C   UNK d   1       2.986 -21.359 -40.905  0.00  0.00     0.125 A 
ATOM      9  N   UNK d   1       1.589 -21.453 -41.121  0.00  0.00    -0.291 N 
ATOM     10  C   UNK d   1       3.654 -22.442 -41.660  0.00  0.00     0.113 A 
ATOM     11  N   UNK d   1       1.422 -22.560 -41.983  0.00  0.00    -0.300 N 
ATOM     12  C   UNK d   1       0.563 -20.598 -40.576  0.00  0.00     0.178 C 
ATOM     13  C   UNK d   1       2.691 -23.114 -42.272  0.00  0.00     0.053 A 
ATOM     14  H   UNK d   1       0.481 -22.862 -42.312  0.00  0.00     0.187 HD
ATOM     15  C   UNK d   1       2.972 -24.290 -43.139  0.00  0.00     0.072 C 
ATOM     16  N   UNK d   1       5.070 -22.574 -41.612  0.00  0.00    -0.240 NA
ATOM     17  C   UNK d   1       5.794 -21.764 -40.921  0.00  0.00     0.209 A 
ATOM     18  N   UNK d   1       5.214 -20.715 -40.182  0.00  0.00    -0.335 N 
ATOM     19  H   UNK d   1       5.754 -20.041 -39.613  0.00  0.00     0.168 HD
ENDBRANCH   4   7
BRANCH   1  20
ATOM     20  C   UNK d   1       1.101 -16.782 -37.098  0.00  0.00     0.200 C 
BRANCH  20  21
ATOM     21  C   UNK d   1       0.575 -15.529 -37.644  0.00  0.00     0.176 C 
ATOM     22  O   UNK d   1      -0.620 -15.487 -38.034  0.00  0.00    -0.291 OA
BRANCH  21  23
ATOM     23  C   UNK d   1       1.451 -14.365 -37.719  0.00  0.00     0.013 A 
ATOM     24  C   UNK d   1       2.046 -14.014 -38.902  0.00  0.00     0.034 A 
ATOM     25  C   UNK d   1       2.886 -12.913 -39.009  0.00  0.00     0.011 A 
ATOM     26 Br   UNK d   1       3.710 -12.427 -40.654  0.00  0.00    -0.051 Br
ATOM     27  C   UNK d   1       3.133 -12.147 -37.891  0.00  0.00     0.019 A 
ATOM     28  C   UNK d   1       2.523 -12.515 -36.698  0.00  0.00     0.002 A 
ATOM     29  C   UNK d   1       1.694 -13.604 -36.599  0.00  0.00     0.015 A 
ENDBRANCH  21  23
ENDBRANCH  20  21
ENDBRANCH   1  20
TORSDOF 4
ENDMDL
