/Users/jonathanwahrer/Desktop/Msc/3_Semester/Drug_Design_Praktikum/waehrer_HTS_screening/HTS_experiment/out/docking_results/vina_output/6y4q/0130_docked.pdbqt
 OpenBabel03232217183D

 30 33  0  0  1  0  0  0  0  0999 V2000
    1.9460  -17.8820  -37.4610 C   0  0  0  0  0  0  0  0  0  0  0  0
    2.7340  -17.3770  -36.5860 O   0  0  0  0  0  0  0  0  0  0  0  0
    2.0690  -19.2160  -37.8720 N   0  0  0  0  0  0  0  0  0  0  0  0
    1.2120  -19.8110  -38.8460 C   0  0  0  0  0  2  0  0  0  0  0  0
    1.9280  -20.7970  -39.7250 C   0  0  0  0  0  2  0  0  0  0  0  0
    3.4290  -20.6150  -39.7920 C   0  0  1  0  0  0  0  0  0  0  0  0
    3.8960  -21.8340  -40.4390 N   0  0  0  0  0  0  0  0  0  0  0  0
    5.2550  -21.8520  -40.8250 C   0  0  0  0  0  2  0  0  0  0  0  0
    5.9680  -20.5540  -40.9250 C   0  0  0  0  0  2  0  0  0  0  0  0
    5.0300  -19.4300  -41.2360 C   0  0  0  0  0  0  0  0  0  0  0  0
    5.1690  -18.3380  -41.9870 N   0  0  0  0  0  0  0  0  0  0  0  0
    3.9940  -17.6810  -41.9010 C   0  0  0  0  0  3  0  0  0  0  0  0
    3.1360  -18.3560  -41.1050 N   0  0  0  0  0  0  0  0  0  0  0  0
    3.7820  -19.4770  -40.6700 C   0  0  0  0  0  0  0  0  0  0  0  0
    4.0850  -20.4500  -38.4460 C   0  0  0  0  0  2  0  0  0  0  0  0
    3.1110  -20.0870  -37.3400 C   0  0  0  0  0  2  0  0  0  0  0  0
    3.6790  -22.5940  -39.7320 H   0  0  0  0  0  0  0  0  0  0  0  0
    2.1710  -18.0670  -40.8750 H   0  0  0  0  0  0  0  0  0  0  0  0
    0.9040  -16.9290  -37.9880 C   0  0  0  0  0  2  0  0  0  0  0  0
    1.0920  -15.6460  -37.4970 N   0  0  0  0  0  0  0  0  0  0  0  0
    1.2720  -14.4230  -37.0270 C   0  0  0  0  0  0  0  0  0  0  0  0
    0.7720  -13.8890  -35.9750 O   0  0  0  0  0  0  0  0  0  0  0  0
    0.2390  -15.9380  -36.4470 H   0  0  0  0  0  0  0  0  0  0  0  0
    2.1740  -13.4920  -37.7940 C   0  0  0  0  0  0  0  0  0  0  0  0
    2.4490  -13.6950  -39.1200 C   0  0  0  0  0  3  0  0  0  0  0  0
    3.3070  -12.8500  -39.8070 C   0  0  0  0  0  0  0  0  0  0  0  0
    3.6530  -13.1620  -41.6360 Br  0  0  0  0  0  0  0  0  0  0  0  0
    3.8690  -11.8100  -39.1090 C   0  0  0  0  0  3  0  0  0  0  0  0
    3.5880  -11.6080  -37.7710 C   0  0  0  0  0  3  0  0  0  0  0  0
    2.7200  -12.4640  -37.0860 C   0  0  0  0  0  3  0  0  0  0  0  0
  1  2  2  0  0  0  0
  3  1  1  0  0  0  0
  3 16  1  0  0  0  0
  4  3  1  0  0  0  0
  5  4  1  0  0  0  0
  6  5  1  1  0  0  0
  6 15  1  0  0  0  0
  7  6  1  0  0  0  0
  7 17  1  0  0  0  0
  8  7  1  0  0  0  0
  9  8  1  0  0  0  0
 10  9  1  0  0  0  0
 10 14  2  0  0  0  0
 11 12  2  0  0  0  0
 11 10  1  0  0  0  0
 12 13  1  0  0  0  0
 13 18  1  0  0  0  0
 13 14  1  0  0  0  0
 14  6  1  0  0  0  0
 15 16  1  0  0  0  0
 19 20  1  0  0  0  0
 19  1  1  0  0  0  0
 20 21  1  0  0  0  0
 20 23  1  0  0  0  0
 21 22  2  0  0  0  0
 24 30  1  0  0  0  0
 24 21  1  0  0  0  0
 25 24  2  0  0  0  0
 26 25  1  0  0  0  0
 26 28  2  0  0  0  0
 27 26  1  0  0  0  0
 28 29  1  0  0  0  0
 29 30  2  0  0  0  0
M  END
>  <Pose>
1

>  <Score>
-7.074

$$$$
