/Users/jonathanwahrer/Desktop/Msc/3_Semester/Drug_Design_Praktikum/waehrer_HTS_screening/HTS_experiment/out/docking_results/vina_output/6y4q/0136_docked.pdbqt
 OpenBabel03232217183D

 30 33  0  0  1  0  0  0  0  0999 V2000
    3.2080  -20.9460  -39.6150 C   0  0  2  0  0  3  0  0  0  0  0  0
    3.0850  -19.5250  -40.1320 C   0  0  0  0  0  2  0  0  0  0  0  0
    2.6770  -18.7860  -38.9530 N   0  0  0  0  0  0  0  0  0  0  0  0
    2.7540  -19.6160  -37.7680 C   0  0  1  0  0  3  0  0  0  0  0  0
    3.7190  -20.7190  -38.2210 C   0  0  0  0  0  2  0  0  0  0  0  0
    3.3130  -18.8200  -36.6770 C   0  0  0  0  0  0  0  0  0  0  0  0
    4.2930  -19.2110  -36.0250 O   0  0  0  0  0  0  0  0  0  0  0  0
    2.6980  -17.5760  -36.3800 N   0  0  0  0  0  0  0  0  0  0  0  0
    1.9940  -16.8640  -37.4230 C   0  0  1  0  0  3  0  0  0  0  0  0
    2.2300  -17.4350  -38.7680 C   0  0  0  0  0  0  0  0  0  0  0  0
    2.0370  -16.7250  -39.7900 O   0  0  0  0  0  0  0  0  0  0  0  0
    2.7330  -17.1440  -35.4300 H   0  0  0  0  0  0  0  0  0  0  0  0
    4.1190  -21.7310  -40.4280 N   0  0  0  0  0  0  0  0  0  0  0  0
    3.5620  -22.4990  -41.4710 C   0  0  0  0  0  0  0  0  0  0  0  0
    2.2910  -22.4800  -41.6610 O   0  0  0  0  0  0  0  0  0  0  0  0
    5.1350  -21.7460  -40.2670 H   0  0  0  0  0  0  0  0  0  0  0  0
    4.3790  -23.3220  -42.3470 C   0  0  0  0  0  0  0  0  0  0  0  0
    5.6600  -22.9170  -42.6990 C   0  0  0  0  0  3  0  0  0  0  0  0
    6.4340  -23.6900  -43.5200 C   0  0  0  0  0  0  0  0  0  0  0  0
    8.1980  -23.1210  -43.9980 Br  0  0  0  0  0  0  0  0  0  0  0  0
    5.9810  -24.8780  -44.0190 C   0  0  0  0  0  3  0  0  0  0  0  0
    4.7150  -25.2810  -43.6710 C   0  0  0  0  0  3  0  0  0  0  0  0
    3.9230  -24.5040  -42.8400 C   0  0  0  0  0  3  0  0  0  0  0  0
    0.5190  -16.7060  -37.1230 C   0  0  0  0  0  2  0  0  0  0  0  0
    0.1500  -15.3360  -36.7310 C   0  0  0  0  0  0  0  0  0  0  0  0
    1.1320  -14.4450  -36.3370 C   0  0  0  0  0  3  0  0  0  0  0  0
    0.7950  -13.1620  -35.9690 C   0  0  0  0  0  3  0  0  0  0  0  0
   -0.5090  -12.7040  -35.9720 C   0  0  0  0  0  3  0  0  0  0  0  0
   -1.4900  -13.5900  -36.3630 C   0  0  0  0  0  3  0  0  0  0  0  0
   -1.1710  -14.8810  -36.7360 C   0  0  0  0  0  3  0  0  0  0  0  0
  1 13  1  6  0  0  0
  1  5  1  0  0  0  0
  2  1  1  0  0  0  0
  2  3  1  0  0  0  0
  3 10  1  0  0  0  0
  3  4  1  0  0  0  0
  4  5  1  6  0  0  0
  4  6  1  0  0  0  0
  6  8  1  0  0  0  0
  6  7  2  0  0  0  0
  8 12  1  0  0  0  0
  9 24  1  1  0  0  0
  9  8  1  0  0  0  0
 10  9  1  0  0  0  0
 11 10  2  0  0  0  0
 13 16  1  0  0  0  0
 14 13  1  0  0  0  0
 15 14  2  0  0  0  0
 17 14  1  0  0  0  0
 18 17  1  0  0  0  0
 19 18  2  0  0  0  0
 20 19  1  0  0  0  0
 21 22  2  0  0  0  0
 21 19  1  0  0  0  0
 22 23  1  0  0  0  0
 23 17  2  0  0  0  0
 24 25  1  0  0  0  0
 25 26  1  0  0  0  0
 26 27  2  0  0  0  0
 28 27  1  0  0  0  0
 29 28  2  0  0  0  0
 30 25  2  0  0  0  0
 30 29  1  0  0  0  0
M  END
>  <Pose>
1

>  <Score>
-6.810

$$$$
