/Users/jonathanwahrer/Desktop/Msc/3_Semester/Drug_Design_Praktikum/waehrer_HTS_screening/HTS_experiment/out/docking_results/vina_output/6y4q/0137_docked.pdbqt
 OpenBabel03232217193D

 25 28  0  0  1  0  0  0  0  0999 V2000
    1.8390  -18.3910  -38.3060 C   0  0  2  0  0  3  0  0  0  0  0  0
    3.1450  -19.0580  -37.7360 C   0  0  0  0  0  2  0  0  0  0  0  0
    3.7110  -19.7060  -38.8690 N   0  0  0  0  0  0  0  0  0  0  0  0
    3.1780  -19.1000  -40.0810 C   0  0  1  0  0  3  0  0  0  0  0  0
    2.5000  -17.8760  -39.6210 C   0  0  0  0  0  2  0  0  0  0  0  0
    4.2430  -18.9490  -41.0860 C   0  0  0  0  0  0  0  0  0  0  0  0
    4.2860  -17.9190  -41.7810 O   0  0  0  0  0  0  0  0  0  0  0  0
    5.2080  -19.9660  -41.2610 N   0  0  0  0  0  0  0  0  0  0  0  0
    5.6190  -20.7650  -40.1280 C   0  0  2  0  0  3  0  0  0  0  0  0
    5.9320  -22.1370  -40.6900 C   0  0  0  0  0  2  0  0  0  0  0  0
    5.7830  -21.9920  -42.1640 C   0  0  0  0  0  2  0  0  0  0  0  0
    5.9760  -20.4850  -42.3880 C   0  0  0  0  0  2  0  0  0  0  0  0
    4.6450  -20.7660  -39.0420 C   0  0  0  0  0  0  0  0  0  0  0  0
    4.6150  -21.7400  -38.2110 O   0  0  0  0  0  0  0  0  0  0  0  0
    1.3120  -17.4880  -37.4880 N   0  0  0  0  0  0  0  0  0  0  0  0
    0.7630  -16.5580  -36.6400 C   0  0  0  0  0  0  0  0  0  0  0  0
   -0.0300  -16.7150  -35.6610 O   0  0  0  0  0  0  0  0  0  0  0  0
    0.6430  -18.4780  -36.8030 H   0  0  0  0  0  0  0  0  0  0  0  0
    1.1010  -15.0960  -36.8320 C   0  0  0  0  0  0  0  0  0  0  0  0
    1.8740  -14.6790  -37.8880 C   0  0  0  0  0  3  0  0  0  0  0  0
    2.1960  -13.3590  -38.0900 C   0  0  0  0  0  0  0  0  0  0  0  0
    3.2420  -12.7780  -39.5670 Br  0  0  0  0  0  0  0  0  0  0  0  0
    1.7040  -12.4380  -37.1710 C   0  0  0  0  0  3  0  0  0  0  0  0
    0.9310  -12.8190  -36.1100 C   0  0  0  0  0  3  0  0  0  0  0  0
    0.6300  -14.1650  -35.9420 C   0  0  0  0  0  3  0  0  0  0  0  0
  1  2  1  0  0  0  0
  1 15  1  1  0  0  0
  3  2  1  0  0  0  0
  4  5  1  1  0  0  0
  4  3  1  0  0  0  0
  5  1  1  0  0  0  0
  6  4  1  0  0  0  0
  7  6  2  0  0  0  0
  8  6  1  0  0  0  0
  8  9  1  0  0  0  0
  9 10  1  6  0  0  0
  9 13  1  0  0  0  0
 11 10  1  0  0  0  0
 12 11  1  0  0  0  0
 12  8  1  0  0  0  0
 13  3  1  0  0  0  0
 13 14  2  0  0  0  0
 15 18  1  0  0  0  0
 15 16  1  0  0  0  0
 16 17  2  0  0  0  0
 19 16  1  0  0  0  0
 19 25  1  0  0  0  0
 20 19  2  0  0  0  0
 21 20  1  0  0  0  0
 21 23  2  0  0  0  0
 22 21  1  0  0  0  0
 23 24  1  0  0  0  0
 24 25  2  0  0  0  0
M  END
>  <Pose>
1

>  <Score>
-6.700

$$$$
