MODEL 1
REMARK VINA RESULT:    -6.700      0.000      0.000
REMARK INTER + INTRA:          -7.977
REMARK INTER:                  -7.483
REMARK INTRA:                  -0.494
REMARK UNBOUND:                -0.494
REMARK  2 active torsions:
REMARK  status: ('A' for Active; 'I' for Inactive)
REMARK    1  A    between atoms: C_4  and  C_8 
REMARK       I    between atoms: C_8  and  N_10 
REMARK    2  A    between atoms: N_10  and  C_11 
ROOT
ATOM      1  C   UNK d   1       1.839 -18.391 -38.306  0.00  0.00     0.105 C 
ATOM      2  C   UNK d   1       3.145 -19.058 -37.736  0.00  0.00     0.152 C 
ATOM      3  N   UNK d   1       3.711 -19.706 -38.869  0.00  0.00    -0.335 N 
ATOM      4  C   UNK d   1       3.178 -19.100 -40.081  0.00  0.00     0.181 C 
ATOM      5  C   UNK d   1       2.500 -17.876 -39.621  0.00  0.00     0.061 C 
ATOM      6  C   UNK d   1       4.243 -18.949 -41.086  0.00  0.00     0.243 C 
ATOM      7  O   UNK d   1       4.286 -17.919 -41.781  0.00  0.00    -0.271 OA
ATOM      8  N   UNK d   1       5.208 -19.966 -41.261  0.00  0.00    -0.337 N 
ATOM      9  C   UNK d   1       5.619 -20.765 -40.128  0.00  0.00     0.179 C 
ATOM     10  C   UNK d   1       5.932 -22.137 -40.690  0.00  0.00     0.037 C 
ATOM     11  C   UNK d   1       5.783 -21.992 -42.164  0.00  0.00     0.022 C 
ATOM     12  C   UNK d   1       5.976 -20.485 -42.388  0.00  0.00     0.127 C 
ATOM     13  C   UNK d   1       4.645 -20.766 -39.042  0.00  0.00     0.243 C 
ATOM     14  O   UNK d   1       4.615 -21.740 -38.211  0.00  0.00    -0.271 OA
ENDROOT
BRANCH   1  15
ATOM     15  N   UNK d   1       1.312 -17.488 -37.488  0.00  0.00    -0.351 N 
ATOM     16  C   UNK d   1       0.763 -16.558 -36.640  0.00  0.00     0.252 C 
ATOM     17  O   UNK d   1      -0.030 -16.715 -35.661  0.00  0.00    -0.268 OA
ATOM     18  H   UNK d   1       0.643 -18.478 -36.803  0.00  0.00     0.163 HD
BRANCH  16  19
ATOM     19  C   UNK d   1       1.101 -15.096 -36.832  0.00  0.00     0.033 A 
ATOM     20  C   UNK d   1       1.874 -14.679 -37.888  0.00  0.00     0.036 A 
ATOM     21  C   UNK d   1       2.196 -13.359 -38.090  0.00  0.00     0.011 A 
ATOM     22 Br   UNK d   1       3.242 -12.778 -39.567  0.00  0.00    -0.051 Br
ATOM     23  C   UNK d   1       1.704 -12.438 -37.171  0.00  0.00     0.019 A 
ATOM     24  C   UNK d   1       0.931 -12.819 -36.110  0.00  0.00     0.002 A 
ATOM     25  C   UNK d   1       0.630 -14.165 -35.942  0.00  0.00     0.017 A 
ENDBRANCH  16  19
ENDBRANCH   1  15
TORSDOF 2
ENDMDL
