MODEL 1
REMARK VINA RESULT:    -6.204      0.000      0.000
REMARK INTER + INTRA:          -7.236
REMARK INTER:                  -6.930
REMARK INTRA:                  -0.306
REMARK UNBOUND:                -0.306
REMARK  2 active torsions:
REMARK  status: ('A' for Active; 'I' for Inactive)
REMARK    1  A    between atoms: C_4  and  C_8 
REMARK       I    between atoms: C_8  and  N_10 
REMARK    2  A    between atoms: N_10  and  C_11 
ROOT
ATOM      1  C   UNK d   1       3.581 -19.612 -39.463  0.00  0.00     0.105 C 
ATOM      2  C   UNK d   1       4.509 -19.188 -40.553  0.00  0.00     0.152 C 
ATOM      3  N   UNK d   1       5.052 -20.469 -41.037  0.00  0.00    -0.335 N 
ATOM      4  C   UNK d   1       4.251 -21.561 -40.502  0.00  0.00     0.181 C 
ATOM      5  C   UNK d   1       2.983 -20.887 -40.077  0.00  0.00     0.061 C 
ATOM      6  C   UNK d   1       4.082 -22.554 -41.559  0.00  0.00     0.243 C 
ATOM      7  O   UNK d   1       3.028 -23.191 -41.675  0.00  0.00    -0.271 OA
ATOM      8  N   UNK d   1       5.154 -22.798 -42.480  0.00  0.00    -0.337 N 
ATOM      9  C   UNK d   1       6.431 -22.221 -42.136  0.00  0.00     0.179 C 
ATOM     10  C   UNK d   1       7.411 -22.462 -43.209  0.00  0.00     0.037 C 
ATOM     11  C   UNK d   1       6.760 -23.581 -43.998  0.00  0.00     0.022 C 
ATOM     12  C   UNK d   1       5.297 -23.502 -43.718  0.00  0.00     0.127 C 
ATOM     13  C   UNK d   1       6.158 -20.764 -41.886  0.00  0.00     0.243 C 
ATOM     14  O   UNK d   1       6.862 -19.864 -42.396  0.00  0.00    -0.271 OA
ENDROOT
BRANCH   1  15
ATOM     15  N   UNK d   1       2.594 -18.663 -39.103  0.00  0.00    -0.351 N 
ATOM     16  C   UNK d   1       2.451 -18.259 -37.758  0.00  0.00     0.252 C 
ATOM     17  O   UNK d   1       3.223 -18.760 -36.867  0.00  0.00    -0.268 OA
ATOM     18  H   UNK d   1       1.968 -18.255 -39.821  0.00  0.00     0.163 HD
BRANCH  16  19
ATOM     19  C   UNK d   1       1.480 -17.296 -37.270  0.00  0.00     0.033 A 
ATOM     20  C   UNK d   1       1.788 -15.981 -37.027  0.00  0.00     0.036 A 
ATOM     21  C   UNK d   1       0.882 -15.061 -36.566  0.00  0.00     0.011 A 
ATOM     22 Br   UNK d   1       1.346 -13.247 -36.241  0.00  0.00    -0.051 Br
ATOM     23  C   UNK d   1      -0.416 -15.457 -36.327  0.00  0.00     0.019 A 
ATOM     24  C   UNK d   1      -0.775 -16.775 -36.558  0.00  0.00     0.002 A 
ATOM     25  C   UNK d   1       0.184 -17.684 -37.030  0.00  0.00     0.017 A 
ENDBRANCH  16  19
ENDBRANCH   1  15
TORSDOF 2
ENDMDL
