/Users/jonathanwahrer/Desktop/Msc/3_Semester/Drug_Design_Praktikum/waehrer_HTS_screening/HTS_experiment/out/docking_results/vina_output/6y4q/0141_docked.pdbqt
 OpenBabel03232217193D

 23 26  0  0  1  0  0  0  0  0999 V2000
    2.7290  -18.2260  -37.7680 N   0  0  0  0  0  0  0  0  0  0  0  0
    3.5110  -19.0100  -36.8470 C   0  0  0  0  0  0  0  0  0  0  0  0
    3.8570  -18.7080  -35.6610 O   0  0  0  0  0  0  0  0  0  0  0  0
    3.8670  -20.2570  -37.4960 C   0  0  1  0  0  3  0  0  0  0  0  0
    2.8860  -20.4260  -38.6730 C   0  0  2  0  0  3  0  0  0  0  0  0
    3.6940  -20.9780  -39.8020 C   0  0  2  0  0  3  0  0  0  0  0  0
    4.9320  -21.5290  -39.0660 C   0  0  0  0  0  2  0  0  0  0  0  0
    5.1620  -20.2120  -38.2940 C   0  0  1  0  0  3  0  0  0  0  0  0
    5.0470  -19.2530  -39.4290 C   0  0  0  0  0  2  0  0  0  0  0  0
    4.3840  -19.8060  -40.4530 C   0  0  0  0  0  2  0  0  0  0  0  0
    2.6070  -18.9620  -38.9540 C   0  0  0  0  0  0  0  0  0  0  0  0
    2.3180  -18.5110  -40.0840 O   0  0  0  0  0  0  0  0  0  0  0  0
    2.2400  -16.9550  -37.4070 N   0  0  0  0  0  0  0  0  0  0  0  0
    0.9140  -16.6600  -37.0490 C   0  0  0  0  0  0  0  0  0  0  0  0
    0.0410  -17.5460  -37.0260 O   0  0  0  0  0  0  0  0  0  0  0  0
    2.9100  -16.1210  -37.3960 H   0  0  0  0  0  0  0  0  0  0  0  0
    0.5090  -15.3140  -36.6950 C   0  0  0  0  0  0  0  0  0  0  0  0
   -0.8380  -14.9700  -36.7840 C   0  0  0  0  0  3  0  0  0  0  0  0
   -1.2660  -13.7080  -36.4550 C   0  0  0  0  0  0  0  0  0  0  0  0
   -3.1210  -13.3050  -36.6050 Br  0  0  0  0  0  0  0  0  0  0  0  0
   -0.3700  -12.7380  -36.0220 C   0  0  0  0  0  3  0  0  0  0  0  0
    0.9520  -13.1010  -35.9430 C   0  0  0  0  0  3  0  0  0  0  0  0
    1.3880  -14.3650  -36.2720 C   0  0  0  0  0  3  0  0  0  0  0  0
  1 13  1  0  0  0  0
  1  2  1  0  0  0  0
  2  3  2  0  0  0  0
  4  2  1  6  0  0  0
  5 11  1  6  0  0  0
  5  4  1  0  0  0  0
  6 10  1  6  0  0  0
  6  7  1  0  0  0  0
  6  5  1  0  0  0  0
  7  8  1  0  0  0  0
  8  9  1  6  0  0  0
  8  4  1  0  0  0  0
 10  9  1  0  0  0  0
 11  1  1  0  0  0  0
 12 11  2  0  0  0  0
 13 16  1  0  0  0  0
 13 14  1  0  0  0  0
 14 15  2  0  0  0  0
 14 17  1  0  0  0  0
 17 23  1  0  0  0  0
 18 17  2  0  0  0  0
 18 19  1  0  0  0  0
 19 21  2  0  0  0  0
 20 19  1  0  0  0  0
 21 22  1  0  0  0  0
 23 22  2  0  0  0  0
M  END
>  <Pose>
1

>  <Score>
-6.957

$$$$
