MODEL 1
REMARK VINA RESULT:    -6.957      0.000      0.000
REMARK INTER + INTRA:          -8.213
REMARK INTER:                  -7.771
REMARK INTRA:                  -0.442
REMARK UNBOUND:                -0.442
REMARK  2 active torsions:
REMARK  status: ('A' for Active; 'I' for Inactive)
REMARK    1  A    between atoms: C_4  and  C_8 
REMARK       I    between atoms: C_8  and  N_10 
REMARK    2  A    between atoms: N_10  and  N_11 
ROOT
ATOM      1  N   UNK d   1       2.729 -18.226 -37.768  0.00  0.00    -0.187 N 
ATOM      2  C   UNK d   1       3.511 -19.010 -36.847  0.00  0.00     0.251 C 
ATOM      3  O   UNK d   1       3.857 -18.708 -35.661  0.00  0.00    -0.271 OA
ATOM      4  C   UNK d   1       3.867 -20.257 -37.496  0.00  0.00     0.101 C 
ATOM      5  C   UNK d   1       2.886 -20.426 -38.673  0.00  0.00     0.101 C 
ATOM      6  C   UNK d   1       3.694 -20.978 -39.802  0.00  0.00     0.022 C 
ATOM      7  C   UNK d   1       4.932 -21.529 -39.066  0.00  0.00     0.018 C 
ATOM      8  C   UNK d   1       5.162 -20.212 -38.294  0.00  0.00     0.022 C 
ATOM      9  C   UNK d   1       5.047 -19.253 -39.429  0.00  0.00    -0.025 C 
ATOM     10  C   UNK d   1       4.384 -19.806 -40.453  0.00  0.00    -0.025 C 
ATOM     11  C   UNK d   1       2.607 -18.962 -38.954  0.00  0.00     0.251 C 
ATOM     12  O   UNK d   1       2.318 -18.511 -40.084  0.00  0.00    -0.271 OA
ENDROOT
BRANCH   1  13
ATOM     13  N   UNK d   1       2.240 -16.955 -37.407  0.00  0.00    -0.254 N 
ATOM     14  C   UNK d   1       0.914 -16.660 -37.049  0.00  0.00     0.270 C 
ATOM     15  O   UNK d   1       0.041 -17.546 -37.026  0.00  0.00    -0.266 OA
ATOM     16  H   UNK d   1       2.910 -16.121 -37.396  0.00  0.00     0.191 HD
BRANCH  14  17
ATOM     17  C   UNK d   1       0.509 -15.314 -36.695  0.00  0.00     0.035 A 
ATOM     18  C   UNK d   1      -0.838 -14.970 -36.784  0.00  0.00     0.036 A 
ATOM     19  C   UNK d   1      -1.266 -13.708 -36.455  0.00  0.00     0.011 A 
ATOM     20 Br   UNK d   1      -3.121 -13.305 -36.605  0.00  0.00    -0.051 Br
ATOM     21  C   UNK d   1      -0.370 -12.738 -36.022  0.00  0.00     0.019 A 
ATOM     22  C   UNK d   1       0.952 -13.101 -35.943  0.00  0.00     0.002 A 
ATOM     23  C   UNK d   1       1.388 -14.365 -36.272  0.00  0.00     0.017 A 
ENDBRANCH  14  17
ENDBRANCH   1  13
TORSDOF 2
ENDMDL
