MODEL 1
REMARK VINA RESULT:    -6.647      0.000      0.000
REMARK INTER + INTRA:          -8.746
REMARK INTER:                  -7.813
REMARK INTRA:                  -0.933
REMARK UNBOUND:                -0.933
REMARK  3 active torsions:
REMARK  status: ('A' for Active; 'I' for Inactive)
REMARK    1  A    between atoms: C_4  and  C_8 
REMARK    2  A    between atoms: C_16  and  C_17 
REMARK    3  A    between atoms: C_17  and  N_18 
ROOT
ATOM      1  C   UNK d   1       2.031 -16.966 -36.147  0.00  0.00     0.053 C 
ATOM      2  C   UNK d   1       2.430 -17.989 -36.911  0.00  0.00     0.127 A 
ATOM      3  O   UNK d   1       1.898 -18.360 -38.075  0.00  0.00    -0.305 OA
ATOM      4  C   UNK d   1       2.611 -19.467 -38.601  0.00  0.00     0.101 A 
ATOM      5  C   UNK d   1       3.624 -19.826 -37.777  0.00  0.00     0.051 A 
ATOM      6  C   UNK d   1       4.470 -20.853 -38.188  0.00  0.00     0.021 A 
ATOM      7  C   UNK d   1       4.262 -21.487 -39.374  0.00  0.00     0.041 A 
ATOM      8  C   UNK d   1       3.202 -21.117 -40.177  0.00  0.00     0.118 A 
ATOM      9  C   UNK d   1       2.332 -20.109 -39.839  0.00  0.00     0.039 A 
ATOM     10  O   UNK d   1       3.023 -21.805 -41.380  0.00  0.00    -0.191 OA
ATOM     11  C   UNK d   1       3.554 -18.893 -36.628  0.00  0.00     0.218 A 
ATOM     12  O   UNK d   1       4.295 -18.883 -35.628  0.00  0.00    -0.284 OA
ENDROOT
BRANCH   1  13
ATOM     13  C   UNK d   1       0.896 -16.110 -36.585  0.00  0.00    -0.032 A 
ATOM     14  C   UNK d   1       1.067 -14.718 -36.619  0.00  0.00     0.030 A 
ATOM     15  C   UNK d   1      -0.027 -13.843 -36.664  0.00  0.00     0.011 A 
ATOM     16 Br   UNK d   1       0.332 -11.969 -36.682  0.00  0.00    -0.051 Br
ATOM     17  C   UNK d   1      -1.288 -14.316 -36.680  0.00  0.00     0.019 A 
ATOM     18  C   UNK d   1      -1.506 -15.719 -36.650  0.00  0.00     0.002 A 
ATOM     19  C   UNK d   1      -0.387 -16.578 -36.606  0.00  0.00     0.011 A 
ENDBRANCH   1  13
BRANCH   9  20
ATOM     20  C   UNK d   1       0.970 -19.913 -40.293  0.00  0.00     0.279 C 
BRANCH  20  21
ATOM     21  N   UNK d   1      -0.306 -20.215 -39.980  0.00  0.00    -0.063 N 
ATOM     22  C   UNK d   1      -0.758 -20.956 -38.886  0.00  0.00     0.261 C 
ATOM     23  C   UNK d   1      -1.188 -20.092 -37.679  0.00  0.00     0.195 C 
ATOM     24  O   UNK d   1      -2.292 -19.313 -37.930  0.00  0.00    -0.388 OA
ATOM     25  C   UNK d   1      -2.221 -18.808 -39.233  0.00  0.00     0.195 C 
ATOM     26  C   UNK d   1      -0.886 -18.788 -39.765  0.00  0.00     0.261 C 
ATOM     27  H   UNK d   1      -0.829 -20.549 -40.875  0.00  0.00     0.280 HD
ENDBRANCH  20  21
ENDBRANCH   9  20
TORSDOF 3
ENDMDL
