/Users/jonathanwahrer/Desktop/Msc/3_Semester/Drug_Design_Praktikum/waehrer_HTS_screening/HTS_experiment/out/docking_results/vina_output/6y4q/0153_docked.pdbqt
 OpenBabel03232217193D

 34 37  0  0  0  0  0  0  0  0999 V2000
   -0.4880  -15.1310  -36.6760 C   0  0  0  0  0  0  0  0  0  0  0  0
   -1.7590  -15.0860  -36.8810 N   0  0  0  0  0  0  0  0  0  0  0  0
   -2.1770  -13.8240  -36.8690 N   0  0  0  0  0  0  0  0  0  0  0  0
   -1.1110  -13.0160  -36.6320 N   0  0  0  0  0  0  0  0  0  0  0  0
   -0.0550  -13.7540  -36.5350 C   0  0  0  0  0  0  0  0  0  0  0  0
    0.4500  -16.2980  -36.4050 C   0  0  0  0  0  0  0  0  0  0  0  0
    1.0880  -16.7930  -37.5060 N   0  0  0  0  0  0  0  0  0  0  0  0
    0.7690  -16.0040  -38.3850 H   0  0  0  0  0  0  0  0  0  0  0  0
    0.5540  -16.6730  -35.2170 O   0  0  0  0  0  0  0  0  0  0  0  0
    1.8960  -17.6080  -38.1470 N   0  0  0  0  0  0  0  0  0  0  0  0
    2.5960  -18.5940  -37.6590 C   0  0  0  0  0  3  0  0  0  0  0  0
    3.4870  -19.4260  -38.4900 C   0  0  0  0  0  0  0  0  0  0  0  0
    4.0510  -19.0350  -39.6890 C   0  0  0  0  0  3  0  0  0  0  0  0
    4.9850  -19.8650  -40.3070 C   0  0  0  0  0  0  0  0  0  0  0  0
    5.8430  -19.3660  -41.9480 Br  0  0  0  0  0  0  0  0  0  0  0  0
    5.3920  -21.0860  -39.7800 C   0  0  0  0  0  3  0  0  0  0  0  0
    4.7890  -21.4250  -38.5970 C   0  0  0  0  0  3  0  0  0  0  0  0
    3.8740  -20.6420  -37.9560 C   0  0  0  0  0  3  0  0  0  0  0  0
    1.3740  -13.5190  -36.3560 C   0  0  0  0  0  2  0  0  0  0  0  0
    2.2540  -13.2980  -37.4110 N   0  0  0  0  0  0  0  0  0  0  0  0
    2.2930  -13.6010  -38.7180 C   0  0  0  0  0  2  0  0  0  0  0  0
    2.0690  -12.2970  -39.5310 C   0  0  0  0  0  2  0  0  0  0  0  0
    1.3480  -11.4010  -38.7000 N   0  0  0  0  0  0  0  0  0  0  0  0
    2.1710  -10.9120  -37.6350 C   0  0  0  0  0  2  0  0  0  0  0  0
    0.4510  -10.4890  -39.2740 C   0  0  0  0  0  1  0  0  0  0  0  0
    3.0660  -12.0680  -37.1710 C   0  0  0  0  0  2  0  0  0  0  0  0
   -1.4000  -11.6870  -36.1140 C   0  0  0  0  0  0  0  0  0  0  0  0
   -0.8930  -11.4670  -34.7810 N   0  0  0  0  0  0  0  0  0  0  0  0
   -1.1710  -10.3190  -34.3790 O   0  0  0  0  0  0  0  0  0  0  0  0
   -1.8380   -9.6950  -35.3010 N   0  0  0  0  0  0  0  0  0  0  0  0
   -1.9710  -10.5650  -36.3830 C   0  0  0  0  0  0  0  0  0  0  0  0
   -2.6570  -10.1310  -37.5360 N   0  0  0  0  0  0  0  0  0  0  0  0
   -2.1720   -9.2950  -38.0180 H   0  0  0  0  0  0  0  0  0  0  0  0
   -3.4960  -10.4490  -37.9810 H   0  0  0  0  0  0  0  0  0  0  0  0
  1  5  2  0  0  0  0
  1  6  1  0  0  0  0
  2  3  2  0  0  0  0
  2  1  1  0  0  0  0
  3  4  1  0  0  0  0
  4  5  1  0  0  0  0
  4 27  1  0  0  0  0
  5 19  1  0  0  0  0
  6  9  2  0  0  0  0
  7  6  1  0  0  0  0
  8  7  1  0  0  0  0
 10 11  2  0  0  0  0
 10  7  1  0  0  0  0
 12 18  1  0  0  0  0
 12 11  1  0  0  0  0
 13 12  2  0  0  0  0
 14 16  2  0  0  0  0
 14 13  1  0  0  0  0
 15 14  1  0  0  0  0
 16 17  1  0  0  0  0
 17 18  2  0  0  0  0
 20 26  1  0  0  0  0
 20 19  1  0  0  0  0
 21 20  1  0  0  0  0
 22 21  1  0  0  0  0
 22 23  1  0  0  0  0
 23 24  1  0  0  0  0
 24 26  1  0  0  0  0
 25 23  1  0  0  0  0
 27 28  2  0  0  0  0
 28 29  1  0  0  0  0
 30 29  1  0  0  0  0
 31 27  1  0  0  0  0
 31 30  2  0  0  0  0
 32 31  1  0  0  0  0
 33 32  1  0  0  0  0
 34 32  1  0  0  0  0
M  END
>  <Pose>
1

>  <Score>
-6.231

$$$$
