MODEL 1
REMARK VINA RESULT:    -6.862      0.000      0.000
REMARK INTER + INTRA:          -9.642
REMARK INTER:                  -8.868
REMARK INTRA:                  -0.774
REMARK UNBOUND:                -0.774
REMARK  5 active torsions:
REMARK  status: ('A' for Active; 'I' for Inactive)
REMARK    1  A    between atoms: C_4  and  C_8 
REMARK    2  A    between atoms: N_9  and  N_10 
REMARK    3  A    between atoms: N_10  and  C_11 
REMARK    4  A    between atoms: C_13  and  N_23 
REMARK    5  A    between atoms: C_15  and  N_17 
ROOT
ATOM      1  C   UNK d   1       0.739 -16.539 -36.603  0.00  0.00     0.774 A 
ATOM      2  N   UNK d   1      -0.417 -17.208 -36.637  0.00  0.00     0.133 NA
ATOM      3  C   UNK d   1      -0.545 -18.443 -37.197  0.00  0.00     0.756 A 
ATOM      4  N   UNK d   1       0.584 -18.963 -37.726  0.00  0.00     0.131 NA
ATOM      5  C   UNK d   1       1.775 -18.340 -37.722  0.00  0.00     0.756 A 
ATOM      6  N   UNK d   1       1.811 -17.114 -37.144  0.00  0.00     0.133 NA
ENDROOT
BRANCH   1   7
ATOM      7  N   UNK d   1       0.802 -15.251 -36.001  0.00  0.00    -0.105 N 
ATOM      8  H   UNK d   1       0.143 -14.994 -35.237  0.00  0.00     0.208 HD
BRANCH   7   9
ATOM      9  N   UNK d   1       1.739 -14.299 -36.412  0.00  0.00    -0.172 NA
ATOM     10  C   UNK d   1       1.781 -13.771 -37.571  0.00  0.00     0.150 C 
BRANCH  10  11
ATOM     11  C   UNK d   1       2.771 -12.780 -37.972  0.00  0.00    -0.016 A 
ATOM     12  C   UNK d   1       3.212 -12.669 -39.279  0.00  0.00     0.032 A 
ATOM     13  C   UNK d   1       4.145 -11.747 -39.687  0.00  0.00     0.011 A 
ATOM     14 Br   UNK d   1       4.711 -11.646 -41.514  0.00  0.00    -0.051 Br
ATOM     15  C   UNK d   1       4.676 -10.883 -38.752  0.00  0.00     0.019 A 
ATOM     16  C   UNK d   1       4.270 -10.955 -37.436  0.00  0.00     0.002 A 
ATOM     17  C   UNK d   1       3.322 -11.904 -37.062  0.00  0.00     0.013 A 
ENDBRANCH  10  11
ENDBRANCH   7   9
ENDBRANCH   1   7
BRANCH   3  18
ATOM     18  N   UNK d   1      -1.778 -19.131 -37.221  0.00  0.00    -0.209 N 
ATOM     19  C   UNK d   1      -2.950 -18.558 -36.620  0.00  0.00     0.167 C 
ATOM     20  C   UNK d   1      -4.038 -18.552 -37.688  0.00  0.00     0.188 C 
ATOM     21  O   UNK d   1      -4.232 -19.881 -38.054  0.00  0.00    -0.388 OA
ATOM     22  C   UNK d   1      -3.143 -20.406 -38.726  0.00  0.00     0.188 C 
ATOM     23  C   UNK d   1      -1.896 -20.419 -37.847  0.00  0.00     0.167 C 
ENDBRANCH   3  18
BRANCH   5  24
ATOM     24  N   UNK d   1       2.935 -18.903 -38.280  0.00  0.00    -0.209 N 
ATOM     25  C   UNK d   1       3.856 -19.685 -37.499  0.00  0.00     0.167 C 
ATOM     26  C   UNK d   1       4.334 -20.814 -38.422  0.00  0.00     0.188 C 
ATOM     27  O   UNK d   1       3.368 -21.091 -39.387  0.00  0.00    -0.388 OA
ATOM     28  C   UNK d   1       3.204 -20.097 -40.318  0.00  0.00     0.188 C 
ATOM     29  C   UNK d   1       3.234 -18.706 -39.669  0.00  0.00     0.167 C 
ENDBRANCH   5  24
TORSDOF 5
ENDMDL
