MODEL 1
REMARK VINA RESULT:    -5.798      0.000      0.000
REMARK INTER + INTRA:         -10.254
REMARK INTER:                  -8.171
REMARK INTRA:                  -2.083
REMARK UNBOUND:                -2.083
REMARK  7 active torsions:
REMARK  status: ('A' for Active; 'I' for Inactive)
REMARK    1  A    between atoms: C_4  and  C_8 
REMARK    2  A    between atoms: N_9  and  C_29 
REMARK    3  A    between atoms: C_15  and  C_17 
REMARK    4  A    between atoms: N_19  and  C_22 
REMARK    5  A    between atoms: C_29  and  C_30 
REMARK    6  A    between atoms: C_30  and  C_31 
REMARK    7  A    between atoms: C_31  and  N_32 
ROOT
ATOM      1  C   UNK d   1       2.515 -20.210 -38.969  0.00  0.00     0.161 C 
ATOM      2  N   UNK d   1       3.781 -20.386 -38.361  0.00  0.00    -0.332 N 
ATOM      3  C   UNK d   1       3.987 -19.376 -37.387  0.00  0.00     0.295 C 
ATOM      4  O   UNK d   1       5.063 -19.204 -36.733  0.00  0.00    -0.264 OA
ATOM      5  C   UNK d   1       2.774 -18.597 -37.267  0.00  0.00     0.250 C 
ATOM      6  O   UNK d   1       2.687 -17.626 -36.468  0.00  0.00    -0.282 OA
ATOM      7  C   UNK d   1       1.811 -19.152 -38.198  0.00  0.00     0.062 C 
ATOM      8  C   UNK d   1       0.575 -18.727 -38.335  0.00  0.00     0.133 C 
ATOM      9  O   UNK d   1      -0.224 -19.292 -39.302  0.00  0.00    -0.190 OA
ENDROOT
BRANCH   1  10
ATOM     10  C   UNK d   1       2.657 -19.858 -40.386  0.00  0.00    -0.029 A 
ATOM     11  C   UNK d   1       2.219 -20.765 -41.336  0.00  0.00     0.028 A 
ATOM     12  C   UNK d   1       2.262 -20.583 -42.684  0.00  0.00     0.011 A 
ATOM     13 Br   UNK d   1       1.641 -21.869 -43.951  0.00  0.00    -0.051 Br
ATOM     14  C   UNK d   1       2.800 -19.367 -43.137  0.00  0.00     0.019 A 
ATOM     15  C   UNK d   1       3.248 -18.440 -42.212  0.00  0.00     0.002 A 
ATOM     16  C   UNK d   1       3.188 -18.657 -40.849  0.00  0.00     0.009 A 
ENDBRANCH   1  10
BRANCH   8  17
ATOM     17  C   UNK d   1       0.043 -17.689 -37.488  0.00  0.00     0.045 A 
ATOM     18  C   UNK d   1       0.180 -16.315 -37.751  0.00  0.00     0.047 A 
ATOM     19  N   UNK d   1      -0.456 -15.622 -36.798  0.00  0.00    -0.238 N 
ATOM     20  C   UNK d   1       0.923 -15.763 -38.920  0.00  0.00     0.071 C 
ATOM     21  N   UNK d   1      -0.977 -16.501 -35.962  0.00  0.00    -0.179 NA
ATOM     22  C   UNK d   1      -0.701 -17.757 -36.343  0.00  0.00     0.155 A 
BRANCH  19  23
ATOM     23  C   UNK d   1      -0.573 -14.210 -36.695  0.00  0.00     0.058 A 
ATOM     24  C   UNK d   1       0.450 -13.497 -36.084  0.00  0.00     0.031 A 
ATOM     25  C   UNK d   1       0.407 -12.123 -35.959  0.00  0.00     0.002 A 
ATOM     26  C   UNK d   1      -0.676 -11.391 -36.445  0.00  0.00     0.000 A 
ATOM     27  C   UNK d   1      -1.696 -12.101 -37.054  0.00  0.00     0.002 A 
ATOM     28  C   UNK d   1      -1.630 -13.465 -37.166  0.00  0.00     0.031 A 
ENDBRANCH  19  23
ENDBRANCH   8  17
BRANCH   2  29
ATOM     29  C   UNK d   1       4.768 -21.465 -38.646  0.00  0.00     0.129 C 
BRANCH  29  30
ATOM     30  C   UNK d   1       5.777 -20.974 -39.651  0.00  0.00     0.048 C 
BRANCH  30  31
ATOM     31  C   UNK d   1       5.840 -21.808 -40.891  0.00  0.00     0.235 C 
BRANCH  31  32
ATOM     32  N   UNK d   1       5.747 -21.107 -42.129  0.00  0.00    -0.079 N 
ATOM     33  C   UNK d   1       6.689 -20.058 -42.336  0.00  0.00     0.269 C 
ATOM     34  C   UNK d   1       5.874 -22.048 -43.254  0.00  0.00     0.269 C 
ATOM     35  H   UNK d   1       4.767 -20.705 -42.236  0.00  0.00     0.278 HD
ENDBRANCH  31  32
ENDBRANCH  30  31
ENDBRANCH  29  30
ENDBRANCH   2  29
TORSDOF 7
ENDMDL
