/Users/jonathanwahrer/Desktop/Msc/3_Semester/Drug_Design_Praktikum/waehrer_HTS_screening/HTS_experiment/out/docking_results/vina_output/6y4q/0169_docked.pdbqt
 OpenBabel03232217213D

 37 40  0  0  1  0  0  0  0  0999 V2000
    0.6320  -17.0910  -38.9000 C   0  0  2  0  0  3  0  0  0  0  0  0
    1.8820  -17.7080  -38.5020 N   0  0  0  0  0  0  0  0  0  0  0  0
    2.1230  -17.2910  -37.1650 C   0  0  0  0  0  0  0  0  0  0  0  0
    2.8010  -17.8810  -36.2950 O   0  0  0  0  0  0  0  0  0  0  0  0
    1.4090  -16.0080  -36.9830 C   0  0  0  0  0  0  0  0  0  0  0  0
    1.3690  -15.3020  -35.9510 O   0  0  0  0  0  0  0  0  0  0  0  0
    0.7670  -15.7340  -38.2610 C   0  0  0  0  0  0  0  0  0  0  0  0
    0.4480  -14.5620  -38.7170 C   0  0  0  0  0  0  0  0  0  0  0  0
   -0.1120  -14.4830  -40.0090 O   0  0  0  0  0  1  0  0  0  0  0  0
   -0.4810  -17.8450  -38.2760 C   0  0  0  0  0  0  0  0  0  0  0  0
   -1.6470  -17.2140  -37.8600 C   0  0  0  0  0  3  0  0  0  0  0  0
   -2.6820  -17.9090  -37.2710 C   0  0  0  0  0  0  0  0  0  0  0  0
   -4.2550  -16.9800  -36.7240 Br  0  0  0  0  0  0  0  0  0  0  0  0
   -2.6060  -19.2690  -37.0670 C   0  0  0  0  0  3  0  0  0  0  0  0
   -1.4590  -19.9170  -37.4710 C   0  0  0  0  0  3  0  0  0  0  0  0
   -0.4300  -19.2140  -38.0590 C   0  0  0  0  0  3  0  0  0  0  0  0
    0.6130  -13.3010  -38.0090 C   0  0  0  0  0  0  0  0  0  0  0  0
    1.6060  -12.3820  -37.9560 C   0  0  0  0  0  0  0  0  0  0  0  0
    1.1990  -11.3650  -37.1690 N   0  0  0  0  0  0  0  0  0  0  0  0
    2.9620  -12.4530  -38.5970 C   0  0  0  0  0  1  0  0  0  0  0  0
   -0.0340  -11.5820  -36.6950 C   0  0  0  0  0  0  0  0  0  0  0  0
    1.7880  -10.5080  -36.9570 H   0  0  0  0  0  0  0  0  0  0  0  0
   -0.4270  -12.7900  -37.2060 C   0  0  0  0  0  0  0  0  0  0  0  0
   -1.7420  -13.4500  -36.9490 C   0  0  0  0  0  1  0  0  0  0  0  0
   -0.8130  -10.6990  -35.8030 C   0  0  0  0  0  0  0  0  0  0  0  0
   -1.1680   -9.5840  -36.2150 O   0  0  0  0  0  0  0  0  0  0  0  0
   -1.1460  -11.1040  -34.5250 O   0  0  0  0  0  0  0  0  0  0  0  0
   -2.4720  -11.2390  -34.0660 C   0  0  0  0  0  1  0  0  0  0  0  0
    2.7380  -18.5840  -39.3060 C   0  0  0  0  0  2  0  0  0  0  0  0
    2.8410  -19.9610  -38.6890 C   0  0  0  0  0  2  0  0  0  0  0  0
    4.1480  -20.5290  -38.7540 N   0  0  0  0  0  4  0  0  0  0  0  0
    5.2230  -19.5500  -38.6360 C   0  0  0  0  0  2  0  0  0  0  0  0
    6.4760  -20.2960  -38.2640 C   0  0  0  0  0  2  0  0  0  0  0  0
    6.3610  -21.6050  -38.6590 O   0  0  0  0  0  0  0  0  0  0  0  0
    5.8140  -21.7760  -39.9190 C   0  0  0  0  0  2  0  0  0  0  0  0
    4.3950  -21.2190  -40.0140 C   0  0  0  0  0  2  0  0  0  0  0  0
    4.2460  -21.2520  -38.0190 H   0  0  0  0  0  0  0  0  0  0  0  0
  1  2  1  0  0  0  0
  1 10  1  1  0  0  0
  1  7  1  0  0  0  0
  2  3  1  0  0  0  0
  3  5  1  0  0  0  0
  3  4  2  0  0  0  0
  5  6  2  0  0  0  0
  7  5  1  0  0  0  0
  8  7  2  0  0  0  0
  8 17  1  0  0  0  0
  9  8  1  0  0  0  0
 10 16  2  0  0  0  0
 10 11  1  0  0  0  0
 11 12  2  0  0  0  0
 12 14  1  0  0  0  0
 12 13  1  0  0  0  0
 15 14  2  0  0  0  0
 16 15  1  0  0  0  0
 17 18  2  0  0  0  0
 17 23  1  0  0  0  0
 18 19  1  0  0  0  0
 19 22  1  0  0  0  0
 19 21  1  0  0  0  0
 20 18  1  0  0  0  0
 21 25  1  0  0  0  0
 23 24  1  0  0  0  0
 23 21  2  0  0  0  0
 25 27  1  0  0  0  0
 26 25  2  0  0  0  0
 27 28  1  0  0  0  0
 29 30  1  0  0  0  0
 29  2  1  0  0  0  0
 31 30  1  0  0  0  0
 31 32  1  0  0  0  0
 31 37  1  0  0  0  0
 32 33  1  0  0  0  0
 34 33  1  0  0  0  0
 35 34  1  0  0  0  0
 36 35  1  0  0  0  0
 36 31  1  0  0  0  0
M  END
>  <Pose>
1

>  <Score>
-6.507

$$$$
