MODEL 1
REMARK VINA RESULT:    -6.507      0.000      0.000
REMARK INTER + INTRA:         -10.508
REMARK INTER:                  -9.170
REMARK INTRA:                  -1.338
REMARK UNBOUND:                -1.338
REMARK  7 active torsions:
REMARK  status: ('A' for Active; 'I' for Inactive)
REMARK    1  A    between atoms: C_4  and  C_8 
REMARK    2  A    between atoms: N_9  and  C_28 
REMARK    3  A    between atoms: C_15  and  C_17 
REMARK    4  A    between atoms: C_20  and  C_23 
REMARK    5  A    between atoms: C_23  and  O_25 
REMARK    6  A    between atoms: C_28  and  C_29 
REMARK    7  A    between atoms: C_29  and  N_30 
ROOT
ATOM      1  C   UNK d   1       0.632 -17.091 -38.900  0.00  0.00     0.161 C 
ATOM      2  N   UNK d   1       1.882 -17.708 -38.502  0.00  0.00    -0.331 N 
ATOM      3  C   UNK d   1       2.123 -17.291 -37.165  0.00  0.00     0.295 C 
ATOM      4  O   UNK d   1       2.801 -17.881 -36.295  0.00  0.00    -0.264 OA
ATOM      5  C   UNK d   1       1.409 -16.008 -36.983  0.00  0.00     0.250 C 
ATOM      6  O   UNK d   1       1.369 -15.302 -35.951  0.00  0.00    -0.282 OA
ATOM      7  C   UNK d   1       0.767 -15.734 -38.261  0.00  0.00     0.062 C 
ATOM      8  C   UNK d   1       0.448 -14.562 -38.717  0.00  0.00     0.132 C 
ATOM      9  O   UNK d   1      -0.112 -14.483 -40.009  0.00  0.00    -0.190 OA
ENDROOT
BRANCH   1  10
ATOM     10  C   UNK d   1      -0.481 -17.845 -38.276  0.00  0.00    -0.029 A 
ATOM     11  C   UNK d   1      -1.647 -17.214 -37.860  0.00  0.00     0.028 A 
ATOM     12  C   UNK d   1      -2.682 -17.909 -37.271  0.00  0.00     0.011 A 
ATOM     13 Br   UNK d   1      -4.255 -16.980 -36.724  0.00  0.00    -0.051 Br
ATOM     14  C   UNK d   1      -2.606 -19.269 -37.067  0.00  0.00     0.019 A 
ATOM     15  C   UNK d   1      -1.459 -19.917 -37.471  0.00  0.00     0.002 A 
ATOM     16  C   UNK d   1      -0.430 -19.214 -38.059  0.00  0.00     0.009 A 
ENDBRANCH   1  10
BRANCH   8  17
ATOM     17  C   UNK d   1       0.613 -13.301 -38.009  0.00  0.00     0.032 A 
ATOM     18  C   UNK d   1       1.606 -12.382 -37.956  0.00  0.00     0.019 A 
ATOM     19  N   UNK d   1       1.199 -11.365 -37.169  0.00  0.00    -0.354 N 
ATOM     20  C   UNK d   1       2.962 -12.453 -38.597  0.00  0.00     0.069 C 
ATOM     21  C   UNK d   1      -0.034 -11.582 -36.695  0.00  0.00     0.115 A 
ATOM     22  H   UNK d   1       1.788 -10.508 -36.957  0.00  0.00     0.166 HD
ATOM     23  C   UNK d   1      -0.427 -12.790 -37.206  0.00  0.00    -0.014 A 
ATOM     24  C   UNK d   1      -1.742 -13.450 -36.949  0.00  0.00     0.052 C 
BRANCH  21  25
ATOM     25  C   UNK d   1      -0.813 -10.699 -35.803  0.00  0.00     0.310 C 
ATOM     26  O   UNK d   1      -1.168  -9.584 -36.215  0.00  0.00    -0.258 OA
BRANCH  25  27
ATOM     27  O   UNK d   1      -1.146 -11.104 -34.525  0.00  0.00    -0.321 OA
ATOM     28  C   UNK d   1      -2.472 -11.239 -34.066  0.00  0.00     0.213 C 
ENDBRANCH  25  27
ENDBRANCH  21  25
ENDBRANCH   8  17
BRANCH   2  29
ATOM     29  C   UNK d   1       2.738 -18.584 -39.306  0.00  0.00     0.155 C 
BRANCH  29  30
ATOM     30  C   UNK d   1       2.841 -19.961 -38.689  0.00  0.00     0.255 C 
BRANCH  30  31
ATOM     31  N   UNK d   1       4.148 -20.529 -38.754  0.00  0.00    -0.066 N 
ATOM     32  C   UNK d   1       5.223 -19.550 -38.636  0.00  0.00     0.261 C 
ATOM     33  C   UNK d   1       6.476 -20.296 -38.264  0.00  0.00     0.195 C 
ATOM     34  O   UNK d   1       6.361 -21.605 -38.659  0.00  0.00    -0.388 OA
ATOM     35  C   UNK d   1       5.814 -21.776 -39.919  0.00  0.00     0.195 C 
ATOM     36  C   UNK d   1       4.395 -21.219 -40.014  0.00  0.00     0.261 C 
ATOM     37  H   UNK d   1       4.246 -21.252 -38.019  0.00  0.00     0.280 HD
ENDBRANCH  30  31
ENDBRANCH  29  30
ENDBRANCH   2  29
TORSDOF 7
ENDMDL
