MODEL 1
REMARK VINA RESULT:    -6.625      0.000      0.000
REMARK INTER + INTRA:         -10.901
REMARK INTER:                  -9.336
REMARK INTRA:                  -1.564
REMARK UNBOUND:                -1.564
REMARK  7 active torsions:
REMARK  status: ('A' for Active; 'I' for Inactive)
REMARK    1  A    between atoms: C_4  and  C_8 
REMARK    2  A    between atoms: N_9  and  C_26 
REMARK    3  A    between atoms: C_15  and  C_17 
REMARK    4  A    between atoms: C_20  and  O_23 
REMARK    5  A    between atoms: C_26  and  C_27 
REMARK    6  A    between atoms: C_27  and  C_28 
REMARK    7  A    between atoms: C_28  and  N_29 
ROOT
ATOM      1  C   UNK d   1       0.739 -15.326 -38.155  0.00  0.00     0.161 C 
ATOM      2  N   UNK d   1      -0.047 -15.277 -39.372  0.00  0.00    -0.332 N 
ATOM      3  C   UNK d   1       0.640 -15.899 -40.437  0.00  0.00     0.295 C 
ATOM      4  O   UNK d   1       0.481 -15.819 -41.682  0.00  0.00    -0.264 OA
ATOM      5  C   UNK d   1       1.681 -16.745 -39.802  0.00  0.00     0.250 C 
ATOM      6  O   UNK d   1       2.483 -17.451 -40.445  0.00  0.00    -0.282 OA
ATOM      7  C   UNK d   1       1.555 -16.572 -38.366  0.00  0.00     0.062 C 
ATOM      8  C   UNK d   1       2.021 -17.383 -37.452  0.00  0.00     0.130 C 
ATOM      9  O   UNK d   1       1.756 -17.115 -36.097  0.00  0.00    -0.190 OA
ENDROOT
BRANCH   1  10
ATOM     10  C   UNK d   1       1.592 -14.139 -37.967  0.00  0.00    -0.029 A 
ATOM     11  C   UNK d   1       2.344 -13.610 -38.991  0.00  0.00     0.028 A 
ATOM     12  C   UNK d   1       3.143 -12.490 -38.793  0.00  0.00     0.011 A 
ATOM     13 Br   UNK d   1       4.177 -11.776 -40.224  0.00  0.00    -0.051 Br
ATOM     14  C   UNK d   1       3.189 -11.887 -37.546  0.00  0.00     0.019 A 
ATOM     15  C   UNK d   1       2.432 -12.424 -36.527  0.00  0.00     0.002 A 
ATOM     16  C   UNK d   1       1.640 -13.537 -36.730  0.00  0.00     0.009 A 
ENDBRANCH   1  10
BRANCH   8  17
ATOM     17  C   UNK d   1       2.807 -18.543 -37.778  0.00  0.00     0.002 A 
ATOM     18  C   UNK d   1       4.194 -18.437 -37.599  0.00  0.00     0.024 A 
ATOM     19  C   UNK d   1       5.021 -19.476 -37.923  0.00  0.00    -0.028 A 
ATOM     20  C   UNK d   1       4.534 -20.671 -38.438  0.00  0.00     0.074 A 
ATOM     21  C   UNK d   1       6.501 -19.346 -37.725  0.00  0.00     0.051 C 
ATOM     22  C   UNK d   1       3.186 -20.751 -38.604  0.00  0.00     0.038 A 
ATOM     23  C   UNK d   1       2.337 -19.712 -38.284  0.00  0.00     0.017 A 
BRANCH  20  24
ATOM     24  O   UNK d   1       5.435 -21.671 -38.739  0.00  0.00    -0.355 OA
ATOM     25  C   UNK d   1       5.842 -21.907 -40.078  0.00  0.00     0.210 C 
ENDBRANCH  20  24
ENDBRANCH   8  17
BRANCH   2  26
ATOM     26  C   UNK d   1      -1.383 -14.677 -39.512  0.00  0.00     0.129 C 
BRANCH  26  27
ATOM     27  C   UNK d   1      -2.160 -14.858 -38.238  0.00  0.00     0.048 C 
BRANCH  27  28
ATOM     28  C   UNK d   1      -3.366 -15.727 -38.350  0.00  0.00     0.236 C 
BRANCH  28  29
ATOM     29  N   UNK d   1      -3.200 -17.031 -37.747  0.00  0.00    -0.067 N 
ATOM     30  C   UNK d   1      -2.779 -18.023 -38.716  0.00  0.00     0.261 C 
ATOM     31  C   UNK d   1      -1.404 -18.541 -38.389  0.00  0.00     0.195 C 
ATOM     32  O   UNK d   1      -1.468 -19.153 -37.121  0.00  0.00    -0.388 OA
ATOM     33  C   UNK d   1      -1.771 -18.212 -36.139  0.00  0.00     0.195 C 
ATOM     34  C   UNK d   1      -2.203 -16.888 -36.682  0.00  0.00     0.261 C 
ATOM     35  H   UNK d   1      -4.058 -17.378 -37.268  0.00  0.00     0.280 HD
ENDBRANCH  28  29
ENDBRANCH  27  28
ENDBRANCH  26  27
ENDBRANCH   2  26
TORSDOF 7
ENDMDL
