/Users/jonathanwahrer/Desktop/Msc/3_Semester/Drug_Design_Praktikum/waehrer_HTS_screening/HTS_experiment/out/docking_results/vina_output/6y4q/0170_docked.pdbqt
 OpenBabel03232217213D

 35 38  0  0  1  0  0  0  0  0999 V2000
    0.7390  -15.3260  -38.1550 C   0  0  1  0  0  3  0  0  0  0  0  0
   -0.0470  -15.2770  -39.3720 N   0  0  0  0  0  0  0  0  0  0  0  0
    0.6400  -15.8990  -40.4370 C   0  0  0  0  0  0  0  0  0  0  0  0
    0.4810  -15.8190  -41.6820 O   0  0  0  0  0  0  0  0  0  0  0  0
    1.6810  -16.7450  -39.8020 C   0  0  0  0  0  0  0  0  0  0  0  0
    2.4830  -17.4510  -40.4450 O   0  0  0  0  0  0  0  0  0  0  0  0
    1.5550  -16.5720  -38.3660 C   0  0  0  0  0  0  0  0  0  0  0  0
    2.0210  -17.3830  -37.4520 C   0  0  0  0  0  0  0  0  0  0  0  0
    1.7560  -17.1150  -36.0970 O   0  0  0  0  0  1  0  0  0  0  0  0
    1.5920  -14.1390  -37.9670 C   0  0  0  0  0  0  0  0  0  0  0  0
    2.3440  -13.6100  -38.9910 C   0  0  0  0  0  3  0  0  0  0  0  0
    3.1430  -12.4900  -38.7930 C   0  0  0  0  0  0  0  0  0  0  0  0
    4.1770  -11.7760  -40.2240 Br  0  0  0  0  0  0  0  0  0  0  0  0
    3.1890  -11.8870  -37.5460 C   0  0  0  0  0  3  0  0  0  0  0  0
    2.4320  -12.4240  -36.5270 C   0  0  0  0  0  3  0  0  0  0  0  0
    1.6400  -13.5370  -36.7300 C   0  0  0  0  0  3  0  0  0  0  0  0
    2.8070  -18.5430  -37.7780 C   0  0  0  0  0  0  0  0  0  0  0  0
    4.1940  -18.4370  -37.5990 C   0  0  0  0  0  3  0  0  0  0  0  0
    5.0210  -19.4760  -37.9230 C   0  0  0  0  0  0  0  0  0  0  0  0
    4.5340  -20.6710  -38.4380 C   0  0  0  0  0  0  0  0  0  0  0  0
    6.5010  -19.3460  -37.7250 C   0  0  0  0  0  1  0  0  0  0  0  0
    3.1860  -20.7510  -38.6040 C   0  0  0  0  0  3  0  0  0  0  0  0
    2.3370  -19.7120  -38.2840 C   0  0  0  0  0  3  0  0  0  0  0  0
    5.4350  -21.6710  -38.7390 O   0  0  0  0  0  0  0  0  0  0  0  0
    5.8420  -21.9070  -40.0780 C   0  0  0  0  0  1  0  0  0  0  0  0
   -1.3830  -14.6770  -39.5120 C   0  0  0  0  0  2  0  0  0  0  0  0
   -2.1600  -14.8580  -38.2380 C   0  0  0  0  0  2  0  0  0  0  0  0
   -3.3660  -15.7270  -38.3500 C   0  0  0  0  0  2  0  0  0  0  0  0
   -3.2000  -17.0310  -37.7470 N   0  0  0  0  0  4  0  0  0  0  0  0
   -2.7790  -18.0230  -38.7160 C   0  0  0  0  0  2  0  0  0  0  0  0
   -1.4040  -18.5410  -38.3890 C   0  0  0  0  0  2  0  0  0  0  0  0
   -1.4680  -19.1530  -37.1210 O   0  0  0  0  0  0  0  0  0  0  0  0
   -1.7710  -18.2120  -36.1390 C   0  0  0  0  0  2  0  0  0  0  0  0
   -2.2030  -16.8880  -36.6820 C   0  0  0  0  0  2  0  0  0  0  0  0
   -4.0580  -17.3780  -37.2680 H   0  0  0  0  0  0  0  0  0  0  0  0
  1 10  1  6  0  0  0
  2  1  1  0  0  0  0
  3  5  1  0  0  0  0
  3  2  1  0  0  0  0
  4  3  2  0  0  0  0
  5  7  1  0  0  0  0
  6  5  2  0  0  0  0
  7  1  1  0  0  0  0
  7  8  2  0  0  0  0
  8  9  1  0  0  0  0
 10 16  1  0  0  0  0
 11 12  1  0  0  0  0
 11 10  2  0  0  0  0
 12 14  2  0  0  0  0
 13 12  1  0  0  0  0
 14 15  1  0  0  0  0
 16 15  2  0  0  0  0
 17 18  1  0  0  0  0
 17  8  1  0  0  0  0
 19 21  1  0  0  0  0
 19 18  2  0  0  0  0
 20 19  1  0  0  0  0
 22 20  2  0  0  0  0
 22 23  1  0  0  0  0
 23 17  2  0  0  0  0
 24 20  1  0  0  0  0
 25 24  1  0  0  0  0
 26  2  1  0  0  0  0
 26 27  1  0  0  0  0
 28 27  1  0  0  0  0
 28 29  1  0  0  0  0
 29 35  1  0  0  0  0
 29 34  1  0  0  0  0
 30 31  1  0  0  0  0
 30 29  1  0  0  0  0
 31 32  1  0  0  0  0
 32 33  1  0  0  0  0
 34 33  1  0  0  0  0
M  END
>  <Pose>
1

>  <Score>
-6.625

$$$$
