/Users/jonathanwahrer/Desktop/Msc/3_Semester/Drug_Design_Praktikum/waehrer_HTS_screening/HTS_experiment/out/docking_results/vina_output/6y4q/0175_docked.pdbqt
 OpenBabel03232217213D

 32 35  0  0  1  0  0  0  0  0999 V2000
    2.6260  -18.3170  -38.8710 C   0  0  2  0  0  3  0  0  0  0  0  0
    3.6940  -18.8590  -38.0860 N   0  0  0  0  0  0  0  0  0  0  0  0
    3.3820  -18.5700  -36.7320 C   0  0  0  0  0  0  0  0  0  0  0  0
    3.8680  -19.1440  -35.7270 O   0  0  0  0  0  0  0  0  0  0  0  0
    2.3850  -17.4740  -36.6860 C   0  0  0  0  0  0  0  0  0  0  0  0
    1.8760  -16.9500  -35.6810 O   0  0  0  0  0  0  0  0  0  0  0  0
    2.1280  -17.1400  -38.0740 C   0  0  0  0  0  0  0  0  0  0  0  0
    1.6200  -16.0280  -38.5580 C   0  0  0  0  0  0  0  0  0  0  0  0
    1.5110  -15.8600  -39.9220 O   0  0  0  0  0  1  0  0  0  0  0  0
    4.8940  -19.5830  -38.5520 C   0  0  0  0  0  2  0  0  0  0  0  0
    5.0970  -19.2280  -39.9980 C   0  0  0  0  0  2  0  0  0  0  0  0
    5.7510  -20.2150  -40.7780 N   0  0  0  0  0  4  0  0  0  0  0  0
    5.5050  -21.5780  -40.4080 C   0  0  0  0  0  2  0  0  0  0  0  0
    4.3450  -22.2140  -41.1240 C   0  0  0  0  0  2  0  0  0  0  0  0
    4.2800  -21.9020  -42.4640 O   0  0  0  0  0  0  0  0  0  0  0  0
    4.2350  -20.5450  -42.6820 C   0  0  0  0  0  2  0  0  0  0  0  0
    5.5230  -19.9540  -42.1770 C   0  0  0  0  0  2  0  0  0  0  0  0
    6.7960  -20.0560  -40.6490 H   0  0  0  0  0  0  0  0  0  0  0  0
    1.5190  -19.2900  -39.0930 C   0  0  0  0  0  0  0  0  0  0  0  0
    1.4460  -20.0830  -40.2190 C   0  0  0  0  0  3  0  0  0  0  0  0
    0.4140  -20.9910  -40.4290 C   0  0  0  0  0  0  0  0  0  0  0  0
    0.3520  -22.0690  -42.0050 Br  0  0  0  0  0  0  0  0  0  0  0  0
   -0.5600  -21.1060  -39.4880 C   0  0  0  0  0  3  0  0  0  0  0  0
   -0.5310  -20.3400  -38.3510 C   0  0  0  0  0  3  0  0  0  0  0  0
    0.5010  -19.4450  -38.1630 C   0  0  0  0  0  3  0  0  0  0  0  0
    1.1600  -14.9680  -37.6980 C   0  0  0  0  0  0  0  0  0  0  0  0
    1.9010  -13.9230  -37.2270 C   0  0  0  0  0  3  0  0  0  0  0  0
    1.3160  -12.9500  -36.4380 C   0  0  0  0  0  3  0  0  0  0  0  0
   -0.0120  -12.9600  -36.0780 C   0  0  0  0  0  0  0  0  0  0  0  0
   -0.7590  -14.0170  -36.5530 C   0  0  0  0  0  3  0  0  0  0  0  0
   -0.6170  -11.8980  -35.2250 C   0  0  0  0  0  1  0  0  0  0  0  0
   -0.1980  -14.9940  -37.3380 C   0  0  0  0  0  3  0  0  0  0  0  0
  1 19  1  1  0  0  0
  1  2  1  0  0  0  0
  1  7  1  0  0  0  0
  2  3  1  0  0  0  0
  3  5  1  0  0  0  0
  3  4  2  0  0  0  0
  5  6  2  0  0  0  0
  7  5  1  0  0  0  0
  8  7  2  0  0  0  0
  8 26  1  0  0  0  0
  9  8  1  0  0  0  0
 10  2  1  0  0  0  0
 11 10  1  0  0  0  0
 12 18  1  0  0  0  0
 12 13  1  0  0  0  0
 12 11  1  0  0  0  0
 14 13  1  0  0  0  0
 15 14  1  0  0  0  0
 16 15  1  0  0  0  0
 16 17  1  0  0  0  0
 17 12  1  0  0  0  0
 19 25  1  0  0  0  0
 20 19  2  0  0  0  0
 21 20  1  0  0  0  0
 21 23  2  0  0  0  0
 22 21  1  0  0  0  0
 23 24  1  0  0  0  0
 24 25  2  0  0  0  0
 26 32  2  0  0  0  0
 26 27  1  0  0  0  0
 27 28  2  0  0  0  0
 28 29  1  0  0  0  0
 29 31  1  0  0  0  0
 30 29  2  0  0  0  0
 32 30  1  0  0  0  0
M  END
>  <Pose>
1

>  <Score>
-6.746

$$$$
