MODEL 1
REMARK VINA RESULT:    -6.746      0.000      0.000
REMARK INTER + INTRA:          -9.675
REMARK INTER:                  -8.717
REMARK INTRA:                  -0.958
REMARK UNBOUND:                -0.958
REMARK  5 active torsions:
REMARK  status: ('A' for Active; 'I' for Inactive)
REMARK    1  A    between atoms: C_4  and  C_8 
REMARK    2  A    between atoms: N_9  and  C_24 
REMARK    3  A    between atoms: C_15  and  C_17 
REMARK    4  A    between atoms: C_24  and  C_25 
REMARK    5  A    between atoms: C_25  and  N_26 
ROOT
ATOM      1  C   UNK d   1       2.626 -18.317 -38.871  0.00  0.00     0.161 C 
ATOM      2  N   UNK d   1       3.694 -18.859 -38.086  0.00  0.00    -0.331 N 
ATOM      3  C   UNK d   1       3.382 -18.570 -36.732  0.00  0.00     0.295 C 
ATOM      4  O   UNK d   1       3.868 -19.144 -35.727  0.00  0.00    -0.264 OA
ATOM      5  C   UNK d   1       2.385 -17.474 -36.686  0.00  0.00     0.250 C 
ATOM      6  O   UNK d   1       1.876 -16.950 -35.681  0.00  0.00    -0.282 OA
ATOM      7  C   UNK d   1       2.128 -17.140 -38.074  0.00  0.00     0.062 C 
ATOM      8  C   UNK d   1       1.620 -16.028 -38.558  0.00  0.00     0.130 C 
ATOM      9  O   UNK d   1       1.511 -15.860 -39.922  0.00  0.00    -0.190 OA
ENDROOT
BRANCH   2  10
ATOM     10  C   UNK d   1       4.894 -19.583 -38.552  0.00  0.00     0.155 C 
BRANCH  10  11
ATOM     11  C   UNK d   1       5.097 -19.228 -39.998  0.00  0.00     0.255 C 
BRANCH  11  12
ATOM     12  N   UNK d   1       5.751 -20.215 -40.778  0.00  0.00    -0.066 N 
ATOM     13  C   UNK d   1       5.505 -21.578 -40.408  0.00  0.00     0.261 C 
ATOM     14  C   UNK d   1       4.345 -22.214 -41.124  0.00  0.00     0.195 C 
ATOM     15  O   UNK d   1       4.280 -21.902 -42.464  0.00  0.00    -0.388 OA
ATOM     16  C   UNK d   1       4.235 -20.545 -42.682  0.00  0.00     0.195 C 
ATOM     17  C   UNK d   1       5.523 -19.954 -42.177  0.00  0.00     0.261 C 
ATOM     18  H   UNK d   1       6.796 -20.056 -40.649  0.00  0.00     0.280 HD
ENDBRANCH  11  12
ENDBRANCH  10  11
ENDBRANCH   2  10
BRANCH   1  19
ATOM     19  C   UNK d   1       1.519 -19.290 -39.093  0.00  0.00    -0.029 A 
ATOM     20  C   UNK d   1       1.446 -20.083 -40.219  0.00  0.00     0.028 A 
ATOM     21  C   UNK d   1       0.414 -20.991 -40.429  0.00  0.00     0.011 A 
ATOM     22 Br   UNK d   1       0.352 -22.069 -42.005  0.00  0.00    -0.051 Br
ATOM     23  C   UNK d   1      -0.560 -21.106 -39.488  0.00  0.00     0.019 A 
ATOM     24  C   UNK d   1      -0.531 -20.340 -38.351  0.00  0.00     0.002 A 
ATOM     25  C   UNK d   1       0.501 -19.445 -38.163  0.00  0.00     0.009 A 
ENDBRANCH   1  19
BRANCH   8  26
ATOM     26  C   UNK d   1       1.160 -14.968 -37.698  0.00  0.00     0.001 A 
ATOM     27  C   UNK d   1       1.901 -13.923 -37.227  0.00  0.00     0.015 A 
ATOM     28  C   UNK d   1       1.316 -12.950 -36.438  0.00  0.00     0.007 A 
ATOM     29  C   UNK d   1      -0.012 -12.960 -36.078  0.00  0.00    -0.062 A 
ATOM     30  C   UNK d   1      -0.759 -14.017 -36.553  0.00  0.00     0.007 A 
ATOM     31  C   UNK d   1      -0.617 -11.898 -35.225  0.00  0.00     0.048 C 
ATOM     32  C   UNK d   1      -0.198 -14.994 -37.338  0.00  0.00     0.015 A 
ENDBRANCH   8  26
TORSDOF 5
ENDMDL
