MODEL 1
REMARK VINA RESULT:    -6.983      0.000      0.000
REMARK INTER + INTRA:         -10.324
REMARK INTER:                  -9.433
REMARK INTRA:                  -0.891
REMARK UNBOUND:                -0.891
REMARK  6 active torsions:
REMARK  status: ('A' for Active; 'I' for Inactive)
REMARK    1  A    between atoms: C_4  and  C_8 
REMARK    2  A    between atoms: N_9  and  C_24 
REMARK    3  A    between atoms: C_15  and  C_17 
REMARK    4  A    between atoms: C_24  and  C_25 
REMARK    5  A    between atoms: C_25  and  C_26 
REMARK    6  A    between atoms: C_26  and  N_27 
ROOT
ATOM      1  C   UNK d   1       0.970 -16.232 -38.048  0.00  0.00     0.161 C 
ATOM      2  N   UNK d   1       0.125 -16.302 -39.229  0.00  0.00    -0.332 N 
ATOM      3  C   UNK d   1       0.950 -16.791 -40.307  0.00  0.00     0.295 C 
ATOM      4  O   UNK d   1       0.675 -16.675 -41.526  0.00  0.00    -0.264 OA
ATOM      5  C   UNK d   1       2.108 -17.414 -39.704  0.00  0.00     0.250 C 
ATOM      6  O   UNK d   1       3.092 -17.972 -40.285  0.00  0.00    -0.282 OA
ATOM      7  C   UNK d   1       1.969 -17.297 -38.259  0.00  0.00     0.062 C 
ATOM      8  C   UNK d   1       2.649 -17.997 -37.363  0.00  0.00     0.130 C 
ATOM      9  O   UNK d   1       2.365 -17.651 -36.025  0.00  0.00    -0.190 OA
ENDROOT
BRANCH   2  10
ATOM     10  C   UNK d   1      -1.231 -15.862 -39.310  0.00  0.00     0.129 C 
BRANCH  10  11
ATOM     11  C   UNK d   1      -2.283 -16.829 -39.670  0.00  0.00     0.048 C 
BRANCH  11  12
ATOM     12  C   UNK d   1      -2.059 -18.282 -39.476  0.00  0.00     0.236 C 
BRANCH  12  13
ATOM     13  N   UNK d   1      -2.717 -18.928 -38.391  0.00  0.00    -0.067 N 
ATOM     14  C   UNK d   1      -1.791 -19.207 -37.322  0.00  0.00     0.261 C 
ATOM     15  C   UNK d   1      -1.739 -18.115 -36.274  0.00  0.00     0.195 C 
ATOM     16  O   UNK d   1      -2.964 -18.031 -35.609  0.00  0.00    -0.388 OA
ATOM     17  C   UNK d   1      -4.000 -18.509 -36.412  0.00  0.00     0.195 C 
ATOM     18  C   UNK d   1      -3.744 -18.011 -37.807  0.00  0.00     0.261 C 
ATOM     19  H   UNK d   1      -3.264 -19.735 -38.679  0.00  0.00     0.280 HD
ENDBRANCH  12  13
ENDBRANCH  11  12
ENDBRANCH  10  11
ENDBRANCH   2  10
BRANCH   1  20
ATOM     20  C   UNK d   1       1.576 -14.884 -37.915  0.00  0.00    -0.029 A 
ATOM     21  C   UNK d   1       2.216 -14.304 -38.987  0.00  0.00     0.028 A 
ATOM     22  C   UNK d   1       2.800 -13.047 -38.911  0.00  0.00     0.011 A 
ATOM     23 Br   UNK d   1       3.682 -12.235 -40.386  0.00  0.00    -0.051 Br
ATOM     24  C   UNK d   1       2.749 -12.336 -37.731  0.00  0.00     0.019 A 
ATOM     25  C   UNK d   1       2.110 -12.914 -36.658  0.00  0.00     0.002 A 
ATOM     26  C   UNK d   1       1.523 -14.183 -36.747  0.00  0.00     0.009 A 
ENDBRANCH   1  20
BRANCH   8  27
ATOM     27  C   UNK d   1       3.611 -19.040 -37.679  0.00  0.00     0.001 A 
ATOM     28  C   UNK d   1       3.297 -20.321 -38.068  0.00  0.00     0.016 A 
ATOM     29  C   UNK d   1       4.255 -21.261 -38.389  0.00  0.00     0.024 A 
ATOM     30  C   UNK d   1       5.593 -20.945 -38.329  0.00  0.00     0.034 A 
ATOM     31  C   UNK d   1       5.928 -19.663 -37.939  0.00  0.00     0.024 A 
ATOM     32 Cl   UNK d   1       6.839 -22.131 -38.735  0.00  0.00    -0.084 Cl
ATOM     33  C   UNK d   1       4.962 -18.729 -37.621  0.00  0.00     0.016 A 
ENDBRANCH   8  27
TORSDOF 6
ENDMDL
