/Users/jonathanwahrer/Desktop/Msc/3_Semester/Drug_Design_Praktikum/waehrer_HTS_screening/HTS_experiment/out/docking_results/vina_output/6y4q/0176_docked.pdbqt
 OpenBabel03232217223D

 33 36  0  0  1  0  0  0  0  0999 V2000
    0.9700  -16.2320  -38.0480 C   0  0  1  0  0  3  0  0  0  0  0  0
    0.1250  -16.3020  -39.2290 N   0  0  0  0  0  0  0  0  0  0  0  0
    0.9500  -16.7910  -40.3070 C   0  0  0  0  0  0  0  0  0  0  0  0
    0.6750  -16.6750  -41.5260 O   0  0  0  0  0  0  0  0  0  0  0  0
    2.1080  -17.4140  -39.7040 C   0  0  0  0  0  0  0  0  0  0  0  0
    3.0920  -17.9720  -40.2850 O   0  0  0  0  0  0  0  0  0  0  0  0
    1.9690  -17.2970  -38.2590 C   0  0  0  0  0  0  0  0  0  0  0  0
    2.6490  -17.9970  -37.3630 C   0  0  0  0  0  0  0  0  0  0  0  0
    2.3650  -17.6510  -36.0250 O   0  0  0  0  0  1  0  0  0  0  0  0
   -1.2310  -15.8620  -39.3100 C   0  0  0  0  0  2  0  0  0  0  0  0
   -2.2830  -16.8290  -39.6700 C   0  0  0  0  0  2  0  0  0  0  0  0
   -2.0590  -18.2820  -39.4760 C   0  0  0  0  0  2  0  0  0  0  0  0
   -2.7170  -18.9280  -38.3910 N   0  0  0  0  0  4  0  0  0  0  0  0
   -1.7910  -19.2070  -37.3220 C   0  0  0  0  0  2  0  0  0  0  0  0
   -1.7390  -18.1150  -36.2740 C   0  0  0  0  0  2  0  0  0  0  0  0
   -2.9640  -18.0310  -35.6090 O   0  0  0  0  0  0  0  0  0  0  0  0
   -4.0000  -18.5090  -36.4120 C   0  0  0  0  0  2  0  0  0  0  0  0
   -3.7440  -18.0110  -37.8070 C   0  0  0  0  0  2  0  0  0  0  0  0
   -3.2640  -19.7350  -38.6790 H   0  0  0  0  0  0  0  0  0  0  0  0
    1.5760  -14.8840  -37.9150 C   0  0  0  0  0  0  0  0  0  0  0  0
    2.2160  -14.3040  -38.9870 C   0  0  0  0  0  3  0  0  0  0  0  0
    2.8000  -13.0470  -38.9110 C   0  0  0  0  0  0  0  0  0  0  0  0
    3.6820  -12.2350  -40.3860 Br  0  0  0  0  0  0  0  0  0  0  0  0
    2.7490  -12.3360  -37.7310 C   0  0  0  0  0  3  0  0  0  0  0  0
    2.1100  -12.9140  -36.6580 C   0  0  0  0  0  3  0  0  0  0  0  0
    1.5230  -14.1830  -36.7470 C   0  0  0  0  0  3  0  0  0  0  0  0
    3.6110  -19.0400  -37.6790 C   0  0  0  0  0  0  0  0  0  0  0  0
    3.2970  -20.3210  -38.0680 C   0  0  0  0  0  3  0  0  0  0  0  0
    4.2550  -21.2610  -38.3890 C   0  0  0  0  0  3  0  0  0  0  0  0
    5.5930  -20.9450  -38.3290 C   0  0  0  0  0  0  0  0  0  0  0  0
    5.9280  -19.6630  -37.9390 C   0  0  0  0  0  3  0  0  0  0  0  0
    6.8390  -22.1310  -38.7350 Cl  0  0  0  0  0  0  0  0  0  0  0  0
    4.9620  -18.7290  -37.6210 C   0  0  0  0  0  3  0  0  0  0  0  0
  1 20  1  6  0  0  0
  2  1  1  0  0  0  0
  3  5  1  0  0  0  0
  3  2  1  0  0  0  0
  4  3  2  0  0  0  0
  5  7  1  0  0  0  0
  6  5  2  0  0  0  0
  7  1  1  0  0  0  0
  7  8  2  0  0  0  0
  8  9  1  0  0  0  0
 10  2  1  0  0  0  0
 11 12  1  0  0  0  0
 11 10  1  0  0  0  0
 12 13  1  0  0  0  0
 13 18  1  0  0  0  0
 13 14  1  0  0  0  0
 14 15  1  0  0  0  0
 15 16  1  0  0  0  0
 17 16  1  0  0  0  0
 18 17  1  0  0  0  0
 19 13  1  0  0  0  0
 20 26  1  0  0  0  0
 21 22  1  0  0  0  0
 21 20  2  0  0  0  0
 22 24  2  0  0  0  0
 23 22  1  0  0  0  0
 24 25  1  0  0  0  0
 26 25  2  0  0  0  0
 27 33  1  0  0  0  0
 27  8  1  0  0  0  0
 28 27  2  0  0  0  0
 29 30  2  0  0  0  0
 29 28  1  0  0  0  0
 30 31  1  0  0  0  0
 31 33  2  0  0  0  0
 32 30  1  0  0  0  0
M  END
>  <Pose>
1

>  <Score>
-6.983

$$$$
