MODEL 1
REMARK VINA RESULT:    -6.406      0.000      0.000
REMARK INTER + INTRA:          -9.215
REMARK INTER:                  -8.279
REMARK INTRA:                  -0.936
REMARK UNBOUND:                -0.936
REMARK  5 active torsions:
REMARK  status: ('A' for Active; 'I' for Inactive)
REMARK    1  A    between atoms: C_4  and  C_8 
REMARK    2  A    between atoms: N_9  and  C_28 
REMARK    3  A    between atoms: C_15  and  C_17 
REMARK    4  A    between atoms: C_28  and  C_29 
REMARK    5  A    between atoms: C_29  and  N_30 
ROOT
ATOM      1  C   UNK d   1       4.766 -19.700 -40.552  0.00  0.00     0.161 C 
ATOM      2  N   UNK d   1       4.950 -21.101 -40.398  0.00  0.00    -0.331 N 
ATOM      3  C   UNK d   1       4.675 -21.322 -38.975  0.00  0.00     0.295 C 
ATOM      4  O   UNK d   1       5.141 -22.233 -38.272  0.00  0.00    -0.264 OA
ATOM      5  C   UNK d   1       3.746 -20.256 -38.565  0.00  0.00     0.251 C 
ATOM      6  O   UNK d   1       3.243 -20.062 -37.436  0.00  0.00    -0.282 OA
ATOM      7  C   UNK d   1       3.521 -19.455 -39.766  0.00  0.00     0.064 C 
ATOM      8  C   UNK d   1       2.456 -18.753 -40.054  0.00  0.00     0.149 C 
ATOM      9  O   UNK d   1       2.434 -18.106 -41.309  0.00  0.00    -0.189 OA
ENDROOT
BRANCH   1  10
ATOM     10  C   UNK d   1       4.851 -19.082 -41.842  0.00  0.00    -0.029 A 
ATOM     11  C   UNK d   1       5.739 -18.004 -42.033  0.00  0.00     0.028 A 
ATOM     12  C   UNK d   1       5.875 -17.348 -43.228  0.00  0.00     0.011 A 
ATOM     13 Br   UNK d   1       7.105 -15.891 -43.415  0.00  0.00    -0.051 Br
ATOM     14  C   UNK d   1       5.138 -17.712 -44.323  0.00  0.00     0.019 A 
ATOM     15  C   UNK d   1       4.256 -18.760 -44.185  0.00  0.00     0.002 A 
ATOM     16  C   UNK d   1       4.135 -19.405 -42.973  0.00  0.00     0.009 A 
ENDBRANCH   1  10
BRANCH   8  17
ATOM     17  C   UNK d   1       1.328 -18.613 -39.146  0.00  0.00     0.102 A 
ATOM     18  N   UNK d   1       1.098 -17.771 -38.128  0.00  0.00    -0.302 N 
ATOM     19  C   UNK d   1      -0.075 -18.062 -37.559  0.00  0.00     0.140 A 
ATOM     20  C   UNK d   1       1.881 -16.743 -37.698  0.00  0.00     0.099 A 
ATOM     21  N   UNK d   1      -0.601 -19.117 -38.237  0.00  0.00    -0.233 NA
ATOM     22  C   UNK d   1      -0.569 -17.330 -36.482  0.00  0.00    -0.015 A 
ATOM     23  C   UNK d   1       0.230 -19.485 -39.220  0.00  0.00     0.063 A 
ATOM     24  C   UNK d   1       0.032 -20.595 -40.195  0.00  0.00     0.073 C 
ATOM     25  C   UNK d   1       0.206 -16.282 -36.025  0.00  0.00     0.012 A 
ATOM     26  C   UNK d   1      -1.877 -17.700 -35.889  0.00  0.00     0.052 C 
ATOM     27  C   UNK d   1       1.414 -16.005 -36.637  0.00  0.00     0.018 A 
ENDBRANCH   8  17
BRANCH   2  28
ATOM     28  C   UNK d   1       5.357 -22.179 -41.281  0.00  0.00     0.155 C 
BRANCH  28  29
ATOM     29  C   UNK d   1       4.245 -22.890 -41.972  0.00  0.00     0.255 C 
BRANCH  29  30
ATOM     30  N   UNK d   1       4.455 -23.015 -43.400  0.00  0.00    -0.066 N 
ATOM     31  C   UNK d   1       5.596 -23.853 -43.696  0.00  0.00     0.261 C 
ATOM     32  C   UNK d   1       5.247 -25.317 -43.407  0.00  0.00     0.195 C 
ATOM     33  O   UNK d   1       4.255 -25.660 -44.331  0.00  0.00    -0.388 OA
ATOM     34  C   UNK d   1       3.096 -24.971 -43.918  0.00  0.00     0.195 C 
ATOM     35  C   UNK d   1       3.258 -23.478 -44.076  0.00  0.00     0.261 C 
ATOM     36  H   UNK d   1       4.672 -22.068 -43.796  0.00  0.00     0.280 HD
ENDBRANCH  29  30
ENDBRANCH  28  29
ENDBRANCH   2  28
TORSDOF 5
ENDMDL
