/Users/jonathanwahrer/Desktop/Msc/3_Semester/Drug_Design_Praktikum/waehrer_HTS_screening/HTS_experiment/out/docking_results/vina_output/6y4q/0182_docked.pdbqt
 OpenBabel03232217223D

 36 40  0  0  1  0  0  0  0  0999 V2000
    4.7660  -19.7000  -40.5520 C   0  0  2  0  0  3  0  0  0  0  0  0
    4.9500  -21.1010  -40.3980 N   0  0  0  0  0  0  0  0  0  0  0  0
    4.6750  -21.3220  -38.9750 C   0  0  0  0  0  0  0  0  0  0  0  0
    5.1410  -22.2330  -38.2720 O   0  0  0  0  0  0  0  0  0  0  0  0
    3.7460  -20.2560  -38.5650 C   0  0  0  0  0  0  0  0  0  0  0  0
    3.2430  -20.0620  -37.4360 O   0  0  0  0  0  0  0  0  0  0  0  0
    3.5210  -19.4550  -39.7660 C   0  0  0  0  0  0  0  0  0  0  0  0
    2.4560  -18.7530  -40.0540 C   0  0  0  0  0  0  0  0  0  0  0  0
    2.4340  -18.1060  -41.3090 O   0  0  0  0  0  1  0  0  0  0  0  0
    4.8510  -19.0820  -41.8420 C   0  0  0  0  0  0  0  0  0  0  0  0
    5.7390  -18.0040  -42.0330 C   0  0  0  0  0  3  0  0  0  0  0  0
    5.8750  -17.3480  -43.2280 C   0  0  0  0  0  0  0  0  0  0  0  0
    7.1050  -15.8910  -43.4150 Br  0  0  0  0  0  0  0  0  0  0  0  0
    5.1380  -17.7120  -44.3230 C   0  0  0  0  0  3  0  0  0  0  0  0
    4.2560  -18.7600  -44.1850 C   0  0  0  0  0  3  0  0  0  0  0  0
    4.1350  -19.4050  -42.9730 C   0  0  0  0  0  3  0  0  0  0  0  0
    1.3280  -18.6130  -39.1460 C   0  0  0  0  0  0  0  0  0  0  0  0
    1.0980  -17.7710  -38.1280 N   0  0  0  0  0  0  0  0  0  0  0  0
   -0.0750  -18.0620  -37.5590 C   0  0  0  0  0  0  0  0  0  0  0  0
    1.8810  -16.7430  -37.6980 C   0  0  0  0  0  3  0  0  0  0  0  0
   -0.6010  -19.1170  -38.2370 N   0  0  0  0  0  0  0  0  0  0  0  0
   -0.5690  -17.3300  -36.4820 C   0  0  0  0  0  0  0  0  0  0  0  0
    0.2300  -19.4850  -39.2200 C   0  0  0  0  0  0  0  0  0  0  0  0
    0.0320  -20.5950  -40.1950 C   0  0  0  0  0  1  0  0  0  0  0  0
    0.2060  -16.2820  -36.0250 C   0  0  0  0  0  3  0  0  0  0  0  0
   -1.8770  -17.7000  -35.8890 C   0  0  0  0  0  1  0  0  0  0  0  0
    1.4140  -16.0050  -36.6370 C   0  0  0  0  0  3  0  0  0  0  0  0
    5.3570  -22.1790  -41.2810 C   0  0  0  0  0  2  0  0  0  0  0  0
    4.2450  -22.8900  -41.9720 C   0  0  0  0  0  2  0  0  0  0  0  0
    4.4550  -23.0150  -43.4000 N   0  0  0  0  0  4  0  0  0  0  0  0
    5.5960  -23.8530  -43.6960 C   0  0  0  0  0  2  0  0  0  0  0  0
    5.2470  -25.3170  -43.4070 C   0  0  0  0  0  2  0  0  0  0  0  0
    4.2550  -25.6600  -44.3310 O   0  0  0  0  0  0  0  0  0  0  0  0
    3.0960  -24.9710  -43.9180 C   0  0  0  0  0  2  0  0  0  0  0  0
    3.2580  -23.4780  -44.0760 C   0  0  0  0  0  2  0  0  0  0  0  0
    4.6720  -22.0680  -43.7960 H   0  0  0  0  0  0  0  0  0  0  0  0
  1 10  1  6  0  0  0
  1  2  1  0  0  0  0
  1  7  1  0  0  0  0
  2  3  1  0  0  0  0
  3  5  1  0  0  0  0
  3  4  2  0  0  0  0
  5  6  2  0  0  0  0
  7  5  1  0  0  0  0
  8  7  2  0  0  0  0
  8 17  1  0  0  0  0
  9  8  1  0  0  0  0
 11 10  1  0  0  0  0
 12 11  2  0  0  0  0
 13 12  1  0  0  0  0
 14 15  2  0  0  0  0
 14 12  1  0  0  0  0
 15 16  1  0  0  0  0
 16 10  2  0  0  0  0
 17 18  1  0  0  0  0
 18 20  1  0  0  0  0
 18 19  1  0  0  0  0
 19 22  1  0  0  0  0
 20 27  2  0  0  0  0
 21 19  2  0  0  0  0
 22 25  2  0  0  0  0
 22 26  1  0  0  0  0
 23 17  2  0  0  0  0
 23 21  1  0  0  0  0
 24 23  1  0  0  0  0
 27 25  1  0  0  0  0
 28  2  1  0  0  0  0
 29 28  1  0  0  0  0
 30 29  1  0  0  0  0
 31 32  1  0  0  0  0
 31 30  1  0  0  0  0
 33 34  1  0  0  0  0
 33 32  1  0  0  0  0
 35 34  1  0  0  0  0
 35 30  1  0  0  0  0
 36 30  1  0  0  0  0
M  END
>  <Pose>
1

>  <Score>
-6.406

$$$$
