MODEL 1
REMARK VINA RESULT:    -5.753      0.000      0.000
REMARK INTER + INTRA:          -8.803
REMARK INTER:                  -7.772
REMARK INTRA:                  -1.031
REMARK UNBOUND:                -1.031
REMARK  6 active torsions:
REMARK  status: ('A' for Active; 'I' for Inactive)
REMARK    1  A    between atoms: C_4  and  C_8 
REMARK    2  A    between atoms: N_9  and  C_27 
REMARK    3  A    between atoms: C_15  and  C_17 
REMARK    4  A    between atoms: C_27  and  C_28 
REMARK    5  A    between atoms: C_28  and  C_29 
REMARK    6  A    between atoms: C_29  and  N_30 
ROOT
ATOM      1  C   UNK d   1       3.238 -18.433 -38.923  0.00  0.00     0.161 C 
ATOM      2  N   UNK d   1       3.617 -19.453 -37.964  0.00  0.00    -0.332 N 
ATOM      3  C   UNK d   1       3.510 -18.819 -36.682  0.00  0.00     0.295 C 
ATOM      4  O   UNK d   1       4.112 -19.117 -35.635  0.00  0.00    -0.264 OA
ATOM      5  C   UNK d   1       2.546 -17.735 -36.825  0.00  0.00     0.251 C 
ATOM      6  O   UNK d   1       2.122 -16.894 -35.977  0.00  0.00    -0.282 OA
ATOM      7  C   UNK d   1       2.104 -17.764 -38.211  0.00  0.00     0.064 C 
ATOM      8  C   UNK d   1       0.979 -17.259 -38.675  0.00  0.00     0.149 C 
ATOM      9  O   UNK d   1       0.792 -17.346 -40.062  0.00  0.00    -0.189 OA
ENDROOT
BRANCH   1  10
ATOM     10  C   UNK d   1       2.821 -18.945 -40.234  0.00  0.00    -0.029 A 
ATOM     11  C   UNK d   1       1.951 -19.967 -40.413  0.00  0.00     0.028 A 
ATOM     12  C   UNK d   1       1.614 -20.398 -41.696  0.00  0.00     0.011 A 
ATOM     13 Br   UNK d   1       0.389 -21.835 -41.905  0.00  0.00    -0.051 Br
ATOM     14  C   UNK d   1       2.152 -19.800 -42.827  0.00  0.00     0.019 A 
ATOM     15  C   UNK d   1       3.034 -18.762 -42.623  0.00  0.00     0.002 A 
ATOM     16  C   UNK d   1       3.366 -18.338 -41.370  0.00  0.00     0.009 A 
ENDBRANCH   1  10
BRANCH   8  17
ATOM     17  C   UNK d   1      -0.060 -16.639 -37.867  0.00  0.00     0.102 A 
ATOM     18  N   UNK d   1      -0.183 -15.342 -37.546  0.00  0.00    -0.302 N 
ATOM     19  C   UNK d   1      -1.305 -15.130 -36.811  0.00  0.00     0.134 A 
ATOM     20  C   UNK d   1       0.601 -14.254 -37.806  0.00  0.00     0.099 A 
ATOM     21  N   UNK d   1      -1.880 -16.359 -36.685  0.00  0.00    -0.233 NA
ATOM     22  C   UNK d   1      -1.668 -13.881 -36.334  0.00  0.00     0.051 A 
ATOM     23  C   UNK d   1      -1.168 -17.287 -37.301  0.00  0.00     0.063 A 
ATOM     24  C   UNK d   1      -1.378 -18.745 -37.444  0.00  0.00     0.073 C 
ATOM     25  C   UNK d   1      -0.871 -12.787 -36.603  0.00  0.00     0.005 A 
ATOM     26  C   UNK d   1       0.276 -13.013 -37.355  0.00  0.00     0.018 A 
ENDBRANCH   8  17
BRANCH   2  27
ATOM     27  C   UNK d   1       4.039 -20.832 -38.220  0.00  0.00     0.129 C 
BRANCH  27  28
ATOM     28  C   UNK d   1       5.468 -20.956 -38.600  0.00  0.00     0.048 C 
BRANCH  28  29
ATOM     29  C   UNK d   1       5.813 -21.737 -39.800  0.00  0.00     0.235 C 
BRANCH  29  30
ATOM     30  N   UNK d   1       5.200 -21.338 -41.019  0.00  0.00    -0.079 N 
ATOM     31  C   UNK d   1       4.695 -22.494 -41.721  0.00  0.00     0.269 C 
ATOM     32  C   UNK d   1       6.221 -20.747 -41.905  0.00  0.00     0.269 C 
ATOM     33  H   UNK d   1       4.489 -20.582 -40.919  0.00  0.00     0.278 HD
ENDBRANCH  29  30
ENDBRANCH  28  29
ENDBRANCH  27  28
ENDBRANCH   2  27
TORSDOF 6
ENDMDL
