MODEL 1
REMARK VINA RESULT:    -7.051      0.000      0.000
REMARK INTER + INTRA:          -9.582
REMARK INTER:                  -9.524
REMARK INTRA:                  -0.058
REMARK UNBOUND:                -0.058
REMARK  6 active torsions:
REMARK  status: ('A' for Active; 'I' for Inactive)
REMARK    1  A    between atoms: C_4  and  C_8 
REMARK    2  A    between atoms: N_9  and  C_22 
REMARK    3  A    between atoms: C_15  and  C_17 
REMARK    4  A    between atoms: C_22  and  C_23 
REMARK    5  A    between atoms: C_23  and  C_24 
REMARK    6  A    between atoms: C_24  and  N_25 
ROOT
ATOM      1  C   UNK d   1       1.639 -16.870 -36.910  0.00  0.00     0.161 C 
ATOM      2  N   UNK d   1       1.646 -15.794 -37.890  0.00  0.00    -0.332 N 
ATOM      3  C   UNK d   1       1.649 -16.500 -39.153  0.00  0.00     0.295 C 
ATOM      4  O   UNK d   1       1.238 -16.066 -40.250  0.00  0.00    -0.264 OA
ATOM      5  C   UNK d   1       2.217 -17.826 -38.946  0.00  0.00     0.251 C 
ATOM      6  O   UNK d   1       2.413 -18.776 -39.746  0.00  0.00    -0.282 OA
ATOM      7  C   UNK d   1       2.556 -17.897 -37.525  0.00  0.00     0.064 C 
ATOM      8  C   UNK d   1       3.412 -18.665 -36.915  0.00  0.00     0.153 C 
ATOM      9  O   UNK d   1       3.520 -18.555 -35.513  0.00  0.00    -0.188 OA
ENDROOT
BRANCH   2  10
ATOM     10  C   UNK d   1       1.633 -14.363 -37.736  0.00  0.00     0.129 C 
BRANCH  10  11
ATOM     11  C   UNK d   1       1.383 -13.903 -36.318  0.00  0.00     0.048 C 
BRANCH  11  12
ATOM     12  C   UNK d   1       1.070 -12.459 -36.313  0.00  0.00     0.236 C 
BRANCH  12  13
ATOM     13  N   UNK d   1      -0.267 -12.119 -36.743  0.00  0.00    -0.067 N 
ATOM     14  C   UNK d   1      -1.285 -12.724 -35.917  0.00  0.00     0.261 C 
ATOM     15  C   UNK d   1      -1.812 -11.854 -34.832  0.00  0.00     0.195 C 
ATOM     16  O   UNK d   1      -2.032 -10.538 -35.179  0.00  0.00    -0.388 OA
ATOM     17  C   UNK d   1      -0.954  -9.942 -35.821  0.00  0.00     0.195 C 
ATOM     18  C   UNK d   1      -0.494 -10.740 -37.014  0.00  0.00     0.261 C 
ATOM     19  H   UNK d   1      -0.366 -12.616 -37.684  0.00  0.00     0.280 HD
ENDBRANCH  12  13
ENDBRANCH  11  12
ENDBRANCH  10  11
ENDBRANCH   2  10
BRANCH   1  20
ATOM     20  C   UNK d   1       0.297 -17.519 -36.829  0.00  0.00    -0.029 A 
ATOM     21  C   UNK d   1       0.052 -18.705 -37.485  0.00  0.00     0.028 A 
ATOM     22  C   UNK d   1      -1.174 -19.349 -37.443  0.00  0.00     0.011 A 
ATOM     23 Br   UNK d   1      -1.469 -21.002 -38.371  0.00  0.00    -0.051 Br
ATOM     24  C   UNK d   1      -2.208 -18.793 -36.717  0.00  0.00     0.019 A 
ATOM     25  C   UNK d   1      -1.984 -17.603 -36.050  0.00  0.00     0.002 A 
ATOM     26  C   UNK d   1      -0.742 -16.967 -36.104  0.00  0.00     0.009 A 
ENDBRANCH   1  20
BRANCH   8  27
ATOM     27  C   UNK d   1       4.231 -19.603 -37.662  0.00  0.00     0.112 A 
ATOM     28  O   UNK d   1       3.871 -20.834 -37.908  0.00  0.00    -0.320 OA
ATOM     29  C   UNK d   1       4.785 -21.467 -38.592  0.00  0.00     0.142 A 
ATOM     30  C   UNK d   1       5.816 -20.607 -38.817  0.00  0.00     0.027 A 
ATOM     31  C   UNK d   1       5.464 -19.393 -38.214  0.00  0.00     0.042 A 
ENDBRANCH   8  27
TORSDOF 6
ENDMDL
