MODEL 1
REMARK VINA RESULT:    -6.536      0.000      0.000
REMARK INTER + INTRA:         -10.359
REMARK INTER:                  -9.211
REMARK INTRA:                  -1.148
REMARK UNBOUND:                -1.148
REMARK  7 active torsions:
REMARK  status: ('A' for Active; 'I' for Inactive)
REMARK    1  A    between atoms: C_4  and  C_8 
REMARK    2  A    between atoms: N_9  and  C_28 
REMARK    3  A    between atoms: C_15  and  C_17 
REMARK    4  A    between atoms: C_25  and  O_26 
REMARK    5  A    between atoms: C_28  and  C_29 
REMARK    6  A    between atoms: C_29  and  C_30 
REMARK    7  A    between atoms: C_30  and  N_31 
ROOT
ATOM      1  C   UNK d   1       1.463 -18.819 -37.595  0.00  0.00     0.161 C 
ATOM      2  N   UNK d   1       0.497 -19.229 -38.593  0.00  0.00    -0.332 N 
ATOM      3  C   UNK d   1       0.514 -18.195 -39.601  0.00  0.00     0.295 C 
ATOM      4  O   UNK d   1       0.147 -18.334 -40.793  0.00  0.00    -0.264 OA
ATOM      5  C   UNK d   1       1.036 -16.987 -38.955  0.00  0.00     0.251 C 
ATOM      6  O   UNK d   1       1.221 -15.849 -39.458  0.00  0.00    -0.282 OA
ATOM      7  C   UNK d   1       1.325 -17.315 -37.564  0.00  0.00     0.064 C 
ATOM      8  C   UNK d   1       1.447 -16.482 -36.544  0.00  0.00     0.153 C 
ATOM      9  O   UNK d   1       1.743 -16.981 -35.301  0.00  0.00    -0.188 OA
ENDROOT
BRANCH   1  10
ATOM     10  C   UNK d   1       2.857 -19.210 -37.927  0.00  0.00    -0.029 A 
ATOM     11  C   UNK d   1       3.145 -20.001 -39.041  0.00  0.00     0.028 A 
ATOM     12  C   UNK d   1       4.409 -20.387 -39.381  0.00  0.00     0.011 A 
ATOM     13 Br   UNK d   1       4.708 -21.478 -40.939  0.00  0.00    -0.051 Br
ATOM     14  C   UNK d   1       5.468 -19.997 -38.616  0.00  0.00     0.019 A 
ATOM     15  C   UNK d   1       5.244 -19.222 -37.514  0.00  0.00     0.002 A 
ATOM     16  C   UNK d   1       3.950 -18.835 -37.177  0.00  0.00     0.009 A 
ENDBRANCH   1  10
BRANCH   8  17
ATOM     17  C   UNK d   1       1.268 -15.028 -36.715  0.00  0.00     0.114 A 
ATOM     18  O   UNK d   1       2.107 -14.225 -37.311  0.00  0.00    -0.304 OA
ATOM     19  C   UNK d   1       1.721 -12.994 -37.330  0.00  0.00     0.119 A 
ATOM     20  C   UNK d   1       0.507 -12.949 -36.688  0.00  0.00     0.003 A 
ATOM     21  C   UNK d   1       2.326 -11.862 -37.860  0.00  0.00     0.102 A 
ATOM     22  C   UNK d   1       0.221 -14.240 -36.298  0.00  0.00     0.054 A 
ATOM     23  C   UNK d   1      -0.123 -11.729 -36.571  0.00  0.00     0.014 A 
ATOM     24  C   UNK d   1       0.432 -10.572 -37.079  0.00  0.00     0.004 A 
ATOM     25  C   UNK d   1       1.669 -10.665 -37.726  0.00  0.00     0.040 A 
BRANCH  21  26
ATOM     26  O   UNK d   1       3.537 -11.909 -38.503  0.00  0.00    -0.353 OA
ATOM     27  C   UNK d   1       3.789 -12.424 -39.772  0.00  0.00     0.210 C 
ENDBRANCH  21  26
ENDBRANCH   8  17
BRANCH   2  28
ATOM     28  C   UNK d   1      -0.315 -20.421 -38.623  0.00  0.00     0.129 C 
BRANCH  28  29
ATOM     29  C   UNK d   1      -1.346 -20.419 -37.521  0.00  0.00     0.048 C 
BRANCH  29  30
ATOM     30  C   UNK d   1      -2.403 -19.383 -37.646  0.00  0.00     0.235 C 
BRANCH  30  31
ATOM     31  N   UNK d   1      -2.803 -18.773 -36.417  0.00  0.00    -0.079 N 
ATOM     32  C   UNK d   1      -4.215 -18.385 -36.466  0.00  0.00     0.269 C 
ATOM     33  C   UNK d   1      -2.007 -17.634 -36.076  0.00  0.00     0.269 C 
ATOM     34  H   UNK d   1      -2.752 -19.445 -35.598  0.00  0.00     0.278 HD
ENDBRANCH  30  31
ENDBRANCH  29  30
ENDBRANCH  28  29
ENDBRANCH   2  28
TORSDOF 7
ENDMDL
