MODEL 1
REMARK VINA RESULT:    -6.430      0.000      0.000
REMARK INTER + INTRA:          -7.825
REMARK INTER:                  -7.557
REMARK INTRA:                  -0.268
REMARK UNBOUND:                -0.268
REMARK  3 active torsions:
REMARK  status: ('A' for Active; 'I' for Inactive)
REMARK    1  A    between atoms: C_4  and  N_8 
REMARK       I    between atoms: N_8  and  C_9 
REMARK    2  A    between atoms: C_9  and  C_11 
REMARK    3  A    between atoms: N_13  and  C_15 
ROOT
ATOM      1  C   UNK d   1       0.638 -16.692 -36.041  0.00  0.00     0.114 C 
ATOM      2  C   UNK d   1       2.042 -17.200 -36.239  0.00  0.00     0.140 C 
ATOM      3  N   UNK d   1       1.671 -17.811 -37.525  0.00  0.00    -0.362 N 
ATOM      4  C   UNK d   1       0.292 -17.715 -37.083  0.00  0.00     0.140 C 
ENDROOT
BRANCH   1   5
ATOM      5  C   UNK d   1       0.440 -15.265 -36.477  0.00  0.00     0.229 C 
ATOM      6  N   UNK d   1       1.507 -14.361 -36.361  0.00  0.00    -0.327 N 
ATOM      7  H   UNK d   1       2.450 -14.720 -35.959  0.00  0.00     0.169 HD
ATOM      8  O   UNK d   1      -0.689 -15.001 -36.914  0.00  0.00    -0.273 OA
BRANCH   6   9
ATOM      9  C   UNK d   1       1.467 -13.002 -36.726  0.00  0.00     0.035 A 
ATOM     10  C   UNK d   1       2.632 -12.390 -37.211  0.00  0.00     0.048 A 
ATOM     11  C   UNK d   1       2.681 -11.069 -37.590  0.00  0.00     0.013 A 
ATOM     12 Br   UNK d   1       4.287 -10.278 -38.243  0.00  0.00    -0.051 Br
ATOM     13  C   UNK d   1       1.559 -10.299 -37.499  0.00  0.00     0.019 A 
ATOM     14  C   UNK d   1       0.417 -10.866 -37.033  0.00  0.00     0.004 A 
ATOM     15  C   UNK d   1       0.358 -12.207 -36.646  0.00  0.00     0.029 A 
ENDBRANCH   6   9
ENDBRANCH   1   5
BRANCH   3  16
ATOM     16  C   UNK d   1       2.415 -18.265 -38.648  0.00  0.00     0.162 A 
ATOM     17  N   UNK d   1       2.421 -17.593 -39.829  0.00  0.00    -0.222 NA
ATOM     18  C   UNK d   1       3.144 -18.050 -40.893  0.00  0.00     0.237 A 
ATOM     19  N   UNK d   1       3.868 -19.171 -40.809  0.00  0.00    -0.220 NA
ATOM     20  C   UNK d   1       3.906 -19.880 -39.680  0.00  0.00     0.183 A 
ATOM     21  N   UNK d   1       4.545 -21.020 -39.347  0.00  0.00    -0.236 N 
ATOM     22  C   UNK d   1       3.175 -19.417 -38.606  0.00  0.00     0.173 A 
ATOM     23  N   UNK d   1       4.227 -21.272 -38.096  0.00  0.00    -0.064 NA
ATOM     24  C   UNK d   1       5.422 -21.838 -40.181  0.00  0.00     0.183 C 
ATOM     25  N   UNK d   1       3.406 -20.328 -37.622  0.00  0.00    -0.124 NA
ENDBRANCH   3  16
TORSDOF 3
ENDMDL
