MODEL 1
REMARK VINA RESULT:    -5.848      0.000      0.000
REMARK INTER + INTRA:          -6.879
REMARK INTER:                  -6.532
REMARK INTRA:                  -0.347
REMARK UNBOUND:                -0.347
REMARK  2 active torsions:
REMARK  status: ('A' for Active; 'I' for Inactive)
REMARK    1  A    between atoms: C_4  and  N_8 
REMARK    2  A    between atoms: N_8  and  C_9 
ROOT
ATOM      1  C   UNK d   1       2.639 -18.791 -37.818  0.00  0.00     0.180 A 
ATOM      2  N   UNK d   1       3.822 -18.609 -37.240  0.00  0.00    -0.202 NA
ATOM      3  C   UNK d   1       4.958 -19.237 -37.586  0.00  0.00     0.231 A 
ATOM      4  N   UNK d   1       6.238 -19.230 -37.175  0.00  0.00    -0.081 NA
ATOM      5  O   UNK d   1       6.960 -20.052 -37.869  0.00  0.00    -0.103 OA
ATOM      6  N   UNK d   1       6.190 -20.607 -38.736  0.00  0.00    -0.081 NA
ATOM      7  C   UNK d   1       4.930 -20.155 -38.626  0.00  0.00     0.229 A 
ATOM      8  N   UNK d   1       3.758 -20.373 -39.241  0.00  0.00    -0.196 N 
ATOM      9  N   UNK d   1       3.479 -21.194 -40.250  0.00  0.00     0.004 NA
ATOM     10  N   UNK d   1       2.171 -21.064 -40.516  0.00  0.00     0.018 NA
ATOM     11  N   UNK d   1       1.665 -20.166 -39.669  0.00  0.00    -0.138 NA
ATOM     12  C   UNK d   1       2.641 -19.728 -38.869  0.00  0.00     0.212 A 
ENDROOT
BRANCH   1  13
ATOM     13  N   UNK d   1       1.420 -18.154 -37.488  0.00  0.00    -0.338 N 
ATOM     14  H   UNK d   1       0.541 -18.736 -37.372  0.00  0.00     0.167 HD
BRANCH  13  15
ATOM     15  C   UNK d   1       1.265 -16.766 -37.294  0.00  0.00     0.035 A 
ATOM     16  C   UNK d   1       1.825 -15.766 -38.043  0.00  0.00     0.048 A 
ATOM     17  C   UNK d   1       1.648 -14.411 -37.818  0.00  0.00     0.013 A 
ATOM     18 Br   UNK d   1       2.474 -13.095 -38.923  0.00  0.00    -0.051 Br
ATOM     19  C   UNK d   1       0.856 -14.017 -36.770  0.00  0.00     0.019 A 
ATOM     20  C   UNK d   1       0.263 -14.973 -35.976  0.00  0.00     0.004 A 
ATOM     21  C   UNK d   1       0.460 -16.308 -36.229  0.00  0.00     0.029 A 
ENDBRANCH  13  15
ENDBRANCH   1  13
TORSDOF 2
ENDMDL
