MODEL 1
REMARK VINA RESULT:    -6.422      0.000      0.000
REMARK INTER + INTRA:          -8.375
REMARK INTER:                  -7.924
REMARK INTRA:                  -0.452
REMARK UNBOUND:                -0.452
REMARK  4 active torsions:
REMARK  status: ('A' for Active; 'I' for Inactive)
REMARK    1  A    between atoms: C_4  and  N_8 
REMARK    2  A    between atoms: C_11  and  C_13 
REMARK       I    between atoms: C_13  and  N_15 
REMARK    3  A    between atoms: N_15  and  C_16 
REMARK    4  A    between atoms: C_16  and  C_17 
ROOT
ATOM      1  C   UNK d   1       0.659 -17.217 -37.349  0.00  0.00     0.273 C 
ATOM      2  O   UNK d   1      -0.487 -17.608 -37.014  0.00  0.00    -0.266 OA
ATOM      3  N   UNK d   1       1.568 -18.151 -37.886  0.00  0.00    -0.348 N 
ATOM      4  H   UNK d   1       2.516 -17.806 -38.158  0.00  0.00     0.163 HD
ENDROOT
BRANCH   1   5
ATOM      5  C   UNK d   1       0.987 -15.809 -37.164  0.00  0.00     0.165 A 
ATOM      6  N   UNK d   1       0.436 -14.934 -36.287  0.00  0.00    -0.125 NA
ATOM      7  N   UNK d   1       1.023 -13.759 -36.451  0.00  0.00    -0.060 NA
ATOM      8  N   UNK d   1       1.930 -13.823 -37.389  0.00  0.00    -0.224 N 
ATOM      9  C   UNK d   1       1.932 -15.084 -37.854  0.00  0.00     0.159 A 
BRANCH   8  10
ATOM     10  C   UNK d   1       2.797 -12.796 -37.889  0.00  0.00     0.060 A 
ATOM     11  C   UNK d   1       3.181 -12.717 -39.205  0.00  0.00     0.050 A 
ATOM     12  C   UNK d   1       4.028 -11.694 -39.644  0.00  0.00     0.013 A 
ATOM     13 Br   UNK d   1       4.562 -11.582 -41.470  0.00  0.00    -0.051 Br
ATOM     14  C   UNK d   1       4.499 -10.743 -38.766  0.00  0.00     0.019 A 
ATOM     15  C   UNK d   1       4.121 -10.811 -37.445  0.00  0.00     0.004 A 
ATOM     16  C   UNK d   1       3.273 -11.839 -37.019  0.00  0.00     0.032 A 
ENDBRANCH   8  10
ENDBRANCH   1   5
BRANCH   3  17
ATOM     17  C   UNK d   1       1.280 -19.553 -38.084  0.00  0.00     0.203 C 
BRANCH  17  18
ATOM     18  C   UNK d   1       2.529 -20.322 -38.417  0.00  0.00     0.148 A 
ATOM     19  N   UNK d   1       2.961 -20.733 -39.633  0.00  0.00    -0.319 N 
ATOM     20  C   UNK d   1       4.121 -21.384 -39.498  0.00  0.00     0.130 A 
ATOM     21  C   UNK d   1       2.543 -20.682 -41.024  0.00  0.00     0.132 C 
ATOM     22  N   UNK d   1       4.402 -21.372 -38.173  0.00  0.00    -0.135 NA
ATOM     23  C   UNK d   1       4.634 -21.859 -40.834  0.00  0.00     0.082 C 
ATOM     24  N   UNK d   1       3.448 -20.734 -37.525  0.00  0.00    -0.133 NA
ATOM     25  C   UNK d   1       3.376 -21.772 -41.671  0.00  0.00     0.028 C 
ENDBRANCH  17  18
ENDBRANCH   3  17
TORSDOF 4
ENDMDL
