/Users/jonathanwahrer/Desktop/Msc/3_Semester/Drug_Design_Praktikum/waehrer_HTS_screening/HTS_experiment/out/docking_results/vina_output/6y4q/0201_docked.pdbqt
 OpenBabel03232217243D

 25 28  0  0  0  0  0  0  0  0999 V2000
    0.6590  -17.2170  -37.3490 C   0  0  0  0  0  0  0  0  0  0  0  0
   -0.4870  -17.6080  -37.0140 O   0  0  0  0  0  0  0  0  0  0  0  0
    1.5680  -18.1510  -37.8860 N   0  0  0  0  0  0  0  0  0  0  0  0
    2.5160  -17.8060  -38.1580 H   0  0  0  0  0  0  0  0  0  0  0  0
    0.9870  -15.8090  -37.1640 C   0  0  0  0  0  0  0  0  0  0  0  0
    0.4360  -14.9340  -36.2870 N   0  0  0  0  0  0  0  0  0  0  0  0
    1.0230  -13.7590  -36.4510 N   0  0  0  0  0  0  0  0  0  0  0  0
    1.9300  -13.8230  -37.3890 N   0  0  0  0  0  0  0  0  0  0  0  0
    1.9320  -15.0840  -37.8540 C   0  0  0  0  0  3  0  0  0  0  0  0
    2.7970  -12.7960  -37.8890 C   0  0  0  0  0  0  0  0  0  0  0  0
    3.1810  -12.7170  -39.2050 C   0  0  0  0  0  3  0  0  0  0  0  0
    4.0280  -11.6940  -39.6440 C   0  0  0  0  0  0  0  0  0  0  0  0
    4.5620  -11.5820  -41.4700 Br  0  0  0  0  0  0  0  0  0  0  0  0
    4.4990  -10.7430  -38.7660 C   0  0  0  0  0  3  0  0  0  0  0  0
    4.1210  -10.8110  -37.4450 C   0  0  0  0  0  3  0  0  0  0  0  0
    3.2730  -11.8390  -37.0190 C   0  0  0  0  0  3  0  0  0  0  0  0
    1.2800  -19.5530  -38.0840 C   0  0  0  0  0  2  0  0  0  0  0  0
    2.5290  -20.3220  -38.4170 C   0  0  0  0  0  0  0  0  0  0  0  0
    2.9610  -20.7330  -39.6330 N   0  0  0  0  0  0  0  0  0  0  0  0
    4.1210  -21.3840  -39.4980 C   0  0  0  0  0  0  0  0  0  0  0  0
    2.5430  -20.6820  -41.0240 C   0  0  0  0  0  2  0  0  0  0  0  0
    4.4020  -21.3720  -38.1730 N   0  0  0  0  0  0  0  0  0  0  0  0
    4.6340  -21.8590  -40.8340 C   0  0  0  0  0  2  0  0  0  0  0  0
    3.4480  -20.7340  -37.5250 N   0  0  0  0  0  0  0  0  0  0  0  0
    3.3760  -21.7720  -41.6710 C   0  0  0  0  0  2  0  0  0  0  0  0
  1  5  1  0  0  0  0
  1  2  2  0  0  0  0
  3  1  1  0  0  0  0
  4  3  1  0  0  0  0
  5  6  1  0  0  0  0
  7  6  2  0  0  0  0
  8  7  1  0  0  0  0
  9  8  1  0  0  0  0
  9  5  2  0  0  0  0
 10  8  1  0  0  0  0
 10 16  1  0  0  0  0
 11 10  2  0  0  0  0
 12 11  1  0  0  0  0
 12 14  2  0  0  0  0
 13 12  1  0  0  0  0
 14 15  1  0  0  0  0
 15 16  2  0  0  0  0
 17  3  1  0  0  0  0
 18 17  1  0  0  0  0
 18 24  2  0  0  0  0
 19 20  1  0  0  0  0
 19 18  1  0  0  0  0
 20 22  2  0  0  0  0
 21 19  1  0  0  0  0
 22 24  1  0  0  0  0
 23 20  1  0  0  0  0
 25 21  1  0  0  0  0
 25 23  1  0  0  0  0
M  END
>  <Pose>
1

>  <Score>
-6.422

$$$$
