/Users/jonathanwahrer/Desktop/Msc/3_Semester/Drug_Design_Praktikum/waehrer_HTS_screening/HTS_experiment/out/docking_results/vina_output/6y4q/0205_docked.pdbqt
 OpenBabel03232217243D

 25 28  0  0  1  0  0  0  0  0999 V2000
   -0.0700  -16.6290  -37.1030 N   0  0  0  0  0  0  0  0  0  0  0  0
   -0.9390  -17.6850  -36.6460 C   0  0  0  0  0  0  0  0  0  0  0  0
   -1.5590  -17.6540  -35.5450 O   0  0  0  0  0  0  0  0  0  0  0  0
   -0.9710  -18.7490  -37.6470 C   0  0  2  0  0  3  0  0  0  0  0  0
   -1.0530  -20.0420  -37.2100 O   0  0  0  0  0  0  0  0  0  0  0  0
   -0.2970  -20.7210  -38.1630 N   0  0  0  0  0  0  0  0  0  0  0  0
    0.8180  -19.9260  -38.4850 C   0  0  0  0  0  0  0  0  0  0  0  0
    0.4440  -18.6780  -38.1710 C   0  0  0  0  0  0  0  0  0  0  0  0
    0.7930  -17.2660  -38.0620 C   0  0  0  0  0  0  0  0  0  0  0  0
    1.7030  -16.6980  -38.7010 O   0  0  0  0  0  0  0  0  0  0  0  0
   -0.5160  -21.6440  -38.5600 H   0  0  0  0  0  0  0  0  0  0  0  0
   -0.0320  -15.2700  -36.7190 C   0  0  0  0  0  0  0  0  0  0  0  0
   -1.1750  -14.4740  -36.7100 C   0  0  0  0  0  3  0  0  0  0  0  0
   -1.1830  -13.1520  -36.3430 C   0  0  0  0  0  0  0  0  0  0  0  0
   -2.7680  -12.0910  -36.3460 Br  0  0  0  0  0  0  0  0  0  0  0  0
   -0.0130  -12.5330  -35.9540 C   0  0  0  0  0  3  0  0  0  0  0  0
    1.1400  -13.3130  -35.9560 C   0  0  0  0  0  3  0  0  0  0  0  0
    1.1370  -14.6370  -36.3260 C   0  0  0  0  0  3  0  0  0  0  0  0
    2.0880  -20.3160  -39.0790 C   0  0  0  0  0  0  0  0  0  0  0  0
    3.3040  -20.3680  -38.3920 C   0  0  0  0  0  0  0  0  0  0  0  0
    4.2360  -20.7850  -39.2250 N   0  0  0  0  0  0  0  0  0  0  0  0
    3.5230  -19.9910  -36.9750 C   0  0  0  0  0  1  0  0  0  0  0  0
    3.6730  -21.0020  -40.4120 N   0  0  0  0  0  0  0  0  0  0  0  0
    5.6540  -20.9800  -38.9280 C   0  0  0  0  0  1  0  0  0  0  0  0
    2.3810  -20.7250  -40.3500 C   0  0  0  0  0  3  0  0  0  0  0  0
  1 12  1  0  0  0  0
  1  2  1  0  0  0  0
  2  3  2  0  0  0  0
  4  8  1  1  0  0  0
  4  5  1  0  0  0  0
  4  2  1  0  0  0  0
  6  5  1  0  0  0  0
  7  8  2  0  0  0  0
  7  6  1  0  0  0  0
  8  9  1  0  0  0  0
  9  1  1  0  0  0  0
 10  9  2  0  0  0  0
 11  6  1  0  0  0  0
 12 13  2  0  0  0  0
 12 18  1  0  0  0  0
 13 14  1  0  0  0  0
 14 16  2  0  0  0  0
 15 14  1  0  0  0  0
 17 16  1  0  0  0  0
 18 17  2  0  0  0  0
 19  7  1  0  0  0  0
 19 20  2  0  0  0  0
 20 22  1  0  0  0  0
 21 24  1  0  0  0  0
 21 20  1  0  0  0  0
 23 25  2  0  0  0  0
 23 21  1  0  0  0  0
 25 19  1  0  0  0  0
M  END
>  <Pose>
1

>  <Score>
-6.613

$$$$
