MODEL 1
REMARK VINA RESULT:    -6.613      0.000      0.000
REMARK INTER + INTRA:          -7.895
REMARK INTER:                  -7.387
REMARK INTRA:                  -0.508
REMARK UNBOUND:                -0.508
REMARK  2 active torsions:
REMARK  status: ('A' for Active; 'I' for Inactive)
REMARK    1  A    between atoms: C_4  and  N_8 
REMARK    2  A    between atoms: C_14  and  C_18 
ROOT
ATOM      1  N   UNK d   1      -0.070 -16.629 -37.103  0.00  0.00    -0.246 N 
ATOM      2  C   UNK d   1      -0.939 -17.685 -36.646  0.00  0.00     0.268 C 
ATOM      3  O   UNK d   1      -1.559 -17.654 -35.545  0.00  0.00    -0.269 OA
ATOM      4  C   UNK d   1      -0.971 -18.749 -37.647  0.00  0.00     0.285 C 
ATOM      5  O   UNK d   1      -1.053 -20.042 -37.210  0.00  0.00    -0.260 OA
ATOM      6  N   UNK d   1      -0.297 -20.721 -38.163  0.00  0.00    -0.264 N 
ATOM      7  C   UNK d   1       0.818 -19.926 -38.485  0.00  0.00     0.083 C 
ATOM      8  C   UNK d   1       0.444 -18.678 -38.171  0.00  0.00     0.080 C 
ATOM      9  C   UNK d   1       0.793 -17.266 -38.062  0.00  0.00     0.266 C 
ATOM     10  O   UNK d   1       1.703 -16.698 -38.701  0.00  0.00    -0.267 OA
ATOM     11  H   UNK d   1      -0.516 -21.644 -38.560  0.00  0.00     0.194 HD
ENDROOT
BRANCH   1  12
ATOM     12  C   UNK d   1      -0.032 -15.270 -36.719  0.00  0.00     0.047 A 
ATOM     13  C   UNK d   1      -1.175 -14.474 -36.710  0.00  0.00     0.049 A 
ATOM     14  C   UNK d   1      -1.183 -13.152 -36.343  0.00  0.00     0.013 A 
ATOM     15 Br   UNK d   1      -2.768 -12.091 -36.346  0.00  0.00    -0.051 Br
ATOM     16  C   UNK d   1      -0.013 -12.533 -35.954  0.00  0.00     0.019 A 
ATOM     17  C   UNK d   1       1.140 -13.313 -35.956  0.00  0.00     0.004 A 
ATOM     18  C   UNK d   1       1.137 -14.637 -36.326  0.00  0.00     0.030 A 
ENDBRANCH   1  12
BRANCH   7  19
ATOM     19  C   UNK d   1       2.088 -20.316 -39.079  0.00  0.00     0.036 A 
ATOM     20  C   UNK d   1       3.304 -20.368 -38.392  0.00  0.00     0.040 A 
ATOM     21  N   UNK d   1       4.236 -20.785 -39.225  0.00  0.00    -0.278 N 
ATOM     22  C   UNK d   1       3.523 -19.991 -36.975  0.00  0.00     0.071 C 
ATOM     23  N   UNK d   1       3.673 -21.002 -40.412  0.00  0.00    -0.184 NA
ATOM     24  C   UNK d   1       5.654 -20.980 -38.928  0.00  0.00     0.179 C 
ATOM     25  C   UNK d   1       2.381 -20.725 -40.350  0.00  0.00     0.154 A 
ENDBRANCH   7  19
TORSDOF 2
ENDMDL
