/Users/jonathanwahrer/Desktop/Msc/3_Semester/Drug_Design_Praktikum/waehrer_HTS_screening/HTS_experiment/out/docking_results/vina_output/6y4q/0211_docked.pdbqt
 OpenBabel03232217243D

 22 25  0  0  1  0  0  0  0  0999 V2000
    2.3860  -18.5870  -37.3920 N   0  0  0  0  0  0  0  0  0  0  0  0
    1.8410  -19.6230  -38.1960 C   0  0  0  0  0  0  0  0  0  0  0  0
    0.6070  -19.7020  -38.5500 O   0  0  0  0  0  0  0  0  0  0  0  0
    2.9100  -20.5680  -38.5470 C   0  0  1  0  0  3  0  0  0  0  0  0
    3.4870  -20.1590  -39.8670 C   0  0  1  0  0  0  0  0  0  0  0  0
    4.1580  -18.9720  -39.4750 O   0  0  0  0  0  0  0  0  0  0  0  0
    5.0360  -19.5900  -38.5460 C   0  0  1  0  0  3  0  0  0  0  0  0
    4.0280  -20.2210  -37.6030 C   0  0  1  0  0  3  0  0  0  0  0  0
    3.5210  -19.1340  -36.7420 C   0  0  0  0  0  0  0  0  0  0  0  0
    4.0160  -18.7740  -35.6420 O   0  0  0  0  0  0  0  0  0  0  0  0
    5.6500  -20.6150  -39.4200 C   0  0  0  0  0  2  0  0  0  0  0  0
    4.6710  -20.9630  -40.2750 C   0  0  0  0  0  2  0  0  0  0  0  0
    1.8790  -17.2380  -37.2610 C   0  0  0  0  0  0  0  0  0  0  0  0
    2.0840  -16.2790  -38.2410 C   0  0  0  0  0  3  0  0  0  0  0  0
    1.6320  -14.9990  -38.1750 C   0  0  0  0  0  0  0  0  0  0  0  0
    1.9930  -13.7870  -39.6050 Br  0  0  0  0  0  0  0  0  0  0  0  0
    0.9150  -14.6090  -37.0600 C   0  0  0  0  0  3  0  0  0  0  0  0
    0.6840  -15.5270  -36.0570 C   0  0  0  0  0  3  0  0  0  0  0  0
    1.1640  -16.8360  -36.1570 C   0  0  0  0  0  3  0  0  0  0  0  0
    2.5030  -19.9440  -40.9530 C   0  0  0  0  0  2  0  0  0  0  0  0
    1.7800  -21.1240  -41.1410 O   0  0  0  0  0  0  0  0  0  0  0  0
    1.6440  -21.5850  -40.2760 H   0  0  0  0  0  0  0  0  0  0  0  0
  1 13  1  0  0  0  0
  1  9  1  0  0  0  0
  2  1  1  0  0  0  0
  3  2  2  0  0  0  0
  4  2  1  1  0  0  0
  4  8  1  0  0  0  0
  5 20  1  6  0  0  0
  5  6  1  0  0  0  0
  5  4  1  0  0  0  0
  6  7  1  0  0  0  0
  7 11  1  6  0  0  0
  7  8  1  0  0  0  0
  8  9  1  1  0  0  0
  9 10  2  0  0  0  0
 12  5  1  0  0  0  0
 12 11  1  0  0  0  0
 13 19  1  0  0  0  0
 14 15  1  0  0  0  0
 14 13  2  0  0  0  0
 15 17  2  0  0  0  0
 16 15  1  0  0  0  0
 17 18  1  0  0  0  0
 19 18  2  0  0  0  0
 21 20  1  0  0  0  0
 21 22  1  0  0  0  0
M  END
>  <Pose>
1

>  <Score>
-5.880

$$$$
