MODEL 1
REMARK VINA RESULT:    -5.880      0.000      0.000
REMARK INTER + INTRA:          -7.436
REMARK INTER:                  -6.740
REMARK INTRA:                  -0.697
REMARK UNBOUND:                -0.697
REMARK  3 active torsions:
REMARK  status: ('A' for Active; 'I' for Inactive)
REMARK    1  A    between atoms: C_4  and  N_8 
REMARK    2  A    between atoms: C_12  and  C_20 
REMARK    3  A    between atoms: C_20  and  O_21 
ROOT
ATOM      1  N   UNK d   1       2.386 -18.587 -37.392  0.00  0.00    -0.252 N 
ATOM      2  C   UNK d   1       1.841 -19.623 -38.196  0.00  0.00     0.239 C 
ATOM      3  O   UNK d   1       0.607 -19.702 -38.550  0.00  0.00    -0.272 OA
ATOM      4  C   UNK d   1       2.910 -20.568 -38.547  0.00  0.00     0.135 C 
ATOM      5  C   UNK d   1       3.487 -20.159 -39.867  0.00  0.00     0.113 C 
ATOM      6  O   UNK d   1       4.158 -18.972 -39.475  0.00  0.00    -0.363 OA
ATOM      7  C   UNK d   1       5.036 -19.590 -38.546  0.00  0.00     0.159 C 
ATOM      8  C   UNK d   1       4.028 -20.221 -37.603  0.00  0.00     0.128 C 
ATOM      9  C   UNK d   1       3.521 -19.134 -36.742  0.00  0.00     0.239 C 
ATOM     10  O   UNK d   1       4.016 -18.774 -35.642  0.00  0.00    -0.272 OA
ATOM     11  C   UNK d   1       5.650 -20.615 -39.420  0.00  0.00     0.005 C 
ATOM     12  C   UNK d   1       4.671 -20.963 -40.275  0.00  0.00     0.012 C 
ENDROOT
BRANCH   1  13
ATOM     13  C   UNK d   1       1.879 -17.238 -37.261  0.00  0.00     0.046 A 
ATOM     14  C   UNK d   1       2.084 -16.279 -38.241  0.00  0.00     0.049 A 
ATOM     15  C   UNK d   1       1.632 -14.999 -38.175  0.00  0.00     0.013 A 
ATOM     16 Br   UNK d   1       1.993 -13.787 -39.605  0.00  0.00    -0.051 Br
ATOM     17  C   UNK d   1       0.915 -14.609 -37.060  0.00  0.00     0.019 A 
ATOM     18  C   UNK d   1       0.684 -15.527 -36.057  0.00  0.00     0.004 A 
ATOM     19  C   UNK d   1       1.164 -16.836 -36.157  0.00  0.00     0.030 A 
ENDBRANCH   1  13
BRANCH   5  20
ATOM     20  C   UNK d   1       2.503 -19.944 -40.953  0.00  0.00     0.207 C 
BRANCH  20  21
ATOM     21  O   UNK d   1       1.780 -21.124 -41.141  0.00  0.00    -0.398 OA
ATOM     22  H   UNK d   1       1.644 -21.585 -40.276  0.00  0.00     0.209 HD
ENDBRANCH  20  21
ENDBRANCH   5  20
TORSDOF 3
ENDMDL
