MODEL 1
REMARK VINA RESULT:    -6.319      0.000      0.000
REMARK INTER + INTRA:          -7.728
REMARK INTER:                  -7.058
REMARK INTRA:                  -0.670
REMARK UNBOUND:                -0.670
REMARK  2 active torsions:
REMARK  status: ('A' for Active; 'I' for Inactive)
REMARK    1  A    between atoms: C_4  and  N_8 
REMARK    2  A    between atoms: C_14  and  C_18 
ROOT
ATOM      1  N   UNK d   1       2.810 -18.481 -37.725  0.00  0.00    -0.246 N 
ATOM      2  C   UNK d   1       3.960 -18.840 -36.927  0.00  0.00     0.268 C 
ATOM      3  O   UNK d   1       4.005 -19.069 -35.714  0.00  0.00    -0.269 OA
ATOM      4  C   UNK d   1       5.138 -18.896 -37.840  0.00  0.00     0.285 C 
ATOM      5  O   UNK d   1       6.055 -19.883 -37.527  0.00  0.00    -0.260 OA
ATOM      6  N   UNK d   1       6.557 -20.197 -38.768  0.00  0.00    -0.264 N 
ATOM      7  C   UNK d   1       5.395 -20.277 -39.613  0.00  0.00     0.083 C 
ATOM      8  C   UNK d   1       4.494 -19.489 -39.077  0.00  0.00     0.080 C 
ATOM      9  C   UNK d   1       3.154 -18.890 -39.067  0.00  0.00     0.266 C 
ATOM     10  O   UNK d   1       2.467 -18.780 -40.088  0.00  0.00    -0.267 OA
ATOM     11  H   UNK d   1       7.530 -20.347 -39.056  0.00  0.00     0.194 HD
ENDROOT
BRANCH   1  12
ATOM     12  C   UNK d   1       1.630 -17.864 -37.250  0.00  0.00     0.047 A 
ATOM     13  C   UNK d   1       0.409 -18.474 -37.431  0.00  0.00     0.049 A 
ATOM     14  C   UNK d   1      -0.774 -17.883 -36.977  0.00  0.00     0.013 A 
ATOM     15 Br   UNK d   1      -2.448 -18.748 -37.243  0.00  0.00    -0.051 Br
ATOM     16  C   UNK d   1      -0.761 -16.669 -36.332  0.00  0.00     0.019 A 
ATOM     17  C   UNK d   1       0.461 -16.056 -36.149  0.00  0.00     0.004 A 
ATOM     18  C   UNK d   1       1.645 -16.652 -36.606  0.00  0.00     0.030 A 
ENDBRANCH   1  12
BRANCH   7  19
ATOM     19  C   UNK d   1       5.206 -21.055 -40.807  0.00  0.00     0.036 A 
ATOM     20  C   UNK d   1       4.330 -22.137 -40.865  0.00  0.00     0.127 A 
ATOM     21  N   UNK d   1       4.347 -22.663 -42.103  0.00  0.00    -0.284 N 
ATOM     22  N   UNK d   1       5.205 -21.932 -42.792  0.00  0.00    -0.177 NA
ATOM     23  C   UNK d   1       3.566 -23.818 -42.576  0.00  0.00     0.179 C 
ATOM     24  C   UNK d   1       5.749 -20.956 -42.068  0.00  0.00     0.065 A 
ATOM     25  C   UNK d   1       6.751 -19.926 -42.503  0.00  0.00     0.073 C 
ENDBRANCH   7  19
TORSDOF 2
ENDMDL
