/Users/jonathanwahrer/Desktop/Msc/3_Semester/Drug_Design_Praktikum/waehrer_HTS_screening/HTS_experiment/out/docking_results/vina_output/6y4q/0216_docked.pdbqt
 OpenBabel03232217243D

 28 31  0  0  1  0  0  0  0  0999 V2000
    1.1510  -17.3030  -37.9820 C   0  0  0  0  0  0  0  0  0  0  0  0
    0.0850  -17.3540  -38.6450 O   0  0  0  0  0  0  0  0  0  0  0  0
    1.9360  -18.4520  -37.7450 N   0  0  0  0  0  0  0  0  0  0  0  0
    3.1760  -18.4300  -36.9840 C   0  0  0  0  0  2  0  0  0  0  0  0
    4.0750  -19.5580  -37.4760 C   0  0  0  0  0  2  0  0  0  0  0  0
    3.8220  -19.9140  -38.8590 N   0  0  0  0  0  0  0  0  0  0  0  0
    2.5400  -20.5190  -38.9590 C   0  0  0  0  0  2  0  0  0  0  0  0
    1.4620  -19.7240  -38.3060 C   0  0  0  0  0  2  0  0  0  0  0  0
    1.5700  -16.0200  -37.4540 C   0  0  1  0  0  3  0  0  0  0  0  0
    1.4250  -14.8840  -38.4880 C   0  0  0  0  0  2  0  0  0  0  0  0
    1.8560  -13.8010  -37.6180 N   0  0  0  0  0  0  0  0  0  0  0  0
    1.1190  -14.0340  -36.4230 C   0  0  0  0  0  0  0  0  0  0  0  0
    0.6220  -15.4370  -36.4010 C   0  0  0  0  0  2  0  0  0  0  0  0
    0.9190  -13.1840  -35.5250 O   0  0  0  0  0  0  0  0  0  0  0  0
    2.7990  -12.8090  -37.9730 C   0  0  0  0  0  0  0  0  0  0  0  0
    3.2320  -12.7080  -39.2820 C   0  0  0  0  0  3  0  0  0  0  0  0
    4.1620  -11.7590  -39.6920 C   0  0  0  0  0  0  0  0  0  0  0  0
    4.6870  -11.7060  -41.5050 Br  0  0  0  0  0  0  0  0  0  0  0  0
    4.6760  -10.8780  -38.7420 C   0  0  0  0  0  3  0  0  0  0  0  0
    4.2740  -10.9420  -37.4260 C   0  0  0  0  0  3  0  0  0  0  0  0
    3.3480  -11.9070  -37.0880 C   0  0  0  0  0  3  0  0  0  0  0  0
    4.1130  -18.8520  -39.7560 C   0  0  0  0  0  2  0  0  0  0  0  0
    5.2240  -19.1560  -40.7280 C   0  0  0  0  0  2  0  0  0  0  0  0
    5.0890  -20.4190  -41.3950 N   0  0  0  0  0  0  0  0  0  0  0  0
    5.7720  -21.5460  -41.1870 C   0  0  0  0  0  3  0  0  0  0  0  0
    5.3360  -22.5010  -42.0370 N   0  0  0  0  0  0  0  0  0  0  0  0
    4.3670  -21.9750  -42.7940 C   0  0  0  0  0  3  0  0  0  0  0  0
    4.2200  -20.6700  -42.3840 C   0  0  0  0  0  3  0  0  0  0  0  0
  1  3  1  0  0  0  0
  2  1  2  0  0  0  0
  3  4  1  0  0  0  0
  5  4  1  0  0  0  0
  6  5  1  0  0  0  0
  7  6  1  0  0  0  0
  7  8  1  0  0  0  0
  8  3  1  0  0  0  0
  9  1  1  6  0  0  0
  9 13  1  0  0  0  0
 10 11  1  0  0  0  0
 10  9  1  0  0  0  0
 11 12  1  0  0  0  0
 12 13  1  0  0  0  0
 12 14  2  0  0  0  0
 15 11  1  0  0  0  0
 15 21  1  0  0  0  0
 16 15  2  0  0  0  0
 17 16  1  0  0  0  0
 17 19  2  0  0  0  0
 18 17  1  0  0  0  0
 19 20  1  0  0  0  0
 20 21  2  0  0  0  0
 22  6  1  0  0  0  0
 23 22  1  0  0  0  0
 24 25  1  0  0  0  0
 24 23  1  0  0  0  0
 26 25  2  0  0  0  0
 27 28  2  0  0  0  0
 27 26  1  0  0  0  0
 28 24  1  0  0  0  0
M  END
>  <Pose>
1

>  <Score>
-6.973

$$$$
