MODEL 1
REMARK VINA RESULT:    -6.973      0.000      0.000
REMARK INTER + INTRA:          -9.811
REMARK INTER:                  -9.011
REMARK INTRA:                  -0.800
REMARK UNBOUND:                -0.800
REMARK  5 active torsions:
REMARK  status: ('A' for Active; 'I' for Inactive)
REMARK    1  A    between atoms: C_4  and  N_8 
REMARK    2  A    between atoms: C_10  and  C_14 
REMARK       I    between atoms: C_14  and  N_16 
REMARK    3  A    between atoms: N_19  and  C_22 
REMARK    4  A    between atoms: C_22  and  C_23 
REMARK    5  A    between atoms: C_23  and  N_24 
ROOT
ATOM      1  C   UNK d   1       1.151 -17.303 -37.982  0.00  0.00     0.226 C 
ATOM      2  O   UNK d   1       0.085 -17.354 -38.645  0.00  0.00    -0.273 OA
ATOM      3  N   UNK d   1       1.936 -18.452 -37.745  0.00  0.00    -0.348 N 
ATOM      4  C   UNK d   1       3.176 -18.430 -36.984  0.00  0.00     0.156 C 
ATOM      5  C   UNK d   1       4.075 -19.558 -37.476  0.00  0.00     0.292 C 
ATOM      6  N   UNK d   1       3.822 -19.914 -38.859  0.00  0.00     0.093 N 
ATOM      7  C   UNK d   1       2.540 -20.519 -38.959  0.00  0.00     0.292 C 
ATOM      8  C   UNK d   1       1.462 -19.724 -38.306  0.00  0.00     0.156 C 
ENDROOT
BRANCH   1   9
ATOM      9  C   UNK d   1       1.570 -16.020 -37.454  0.00  0.00     0.105 C 
ATOM     10  C   UNK d   1       1.425 -14.884 -38.488  0.00  0.00     0.146 C 
ATOM     11  N   UNK d   1       1.856 -13.801 -37.618  0.00  0.00    -0.317 N 
ATOM     12  C   UNK d   1       1.119 -14.034 -36.423  0.00  0.00     0.225 C 
ATOM     13  C   UNK d   1       0.622 -15.437 -36.401  0.00  0.00     0.119 C 
ATOM     14  O   UNK d   1       0.919 -13.184 -35.525  0.00  0.00    -0.273 OA
BRANCH  11  15
ATOM     15  C   UNK d   1       2.799 -12.809 -37.973  0.00  0.00     0.038 A 
ATOM     16  C   UNK d   1       3.232 -12.708 -39.282  0.00  0.00     0.048 A 
ATOM     17  C   UNK d   1       4.162 -11.759 -39.692  0.00  0.00     0.013 A 
ATOM     18 Br   UNK d   1       4.687 -11.706 -41.505  0.00  0.00    -0.051 Br
ATOM     19  C   UNK d   1       4.676 -10.878 -38.742  0.00  0.00     0.019 A 
ATOM     20  C   UNK d   1       4.274 -10.942 -37.426  0.00  0.00     0.004 A 
ATOM     21  C   UNK d   1       3.348 -11.907 -37.088  0.00  0.00     0.030 A 
ENDBRANCH  11  15
ENDBRANCH   1   9
BRANCH   6  22
ATOM     22  C   UNK d   1       4.113 -18.852 -39.756  0.00  0.00     0.292 C 
BRANCH  22  23
ATOM     23  C   UNK d   1       5.224 -19.156 -40.728  0.00  0.00     0.159 C 
BRANCH  23  24
ATOM     24  N   UNK d   1       5.089 -20.419 -41.395  0.00  0.00    -0.348 N 
ATOM     25  C   UNK d   1       5.772 -21.546 -41.187  0.00  0.00     0.209 A 
ATOM     26  N   UNK d   1       5.336 -22.501 -42.037  0.00  0.00    -0.255 NA
ATOM     27  C   UNK d   1       4.367 -21.975 -42.794  0.00  0.00     0.135 A 
ATOM     28  C   UNK d   1       4.220 -20.670 -42.384  0.00  0.00     0.111 A 
ENDBRANCH  23  24
ENDBRANCH  22  23
ENDBRANCH   6  22
TORSDOF 5
ENDMDL
