MODEL 1
REMARK VINA RESULT:    -6.637      0.000      0.000
REMARK INTER + INTRA:          -9.683
REMARK INTER:                  -8.964
REMARK INTRA:                  -0.718
REMARK UNBOUND:                -0.718
REMARK  6 active torsions:
REMARK  status: ('A' for Active; 'I' for Inactive)
REMARK    1  A    between atoms: C_4  and  O_8 
REMARK    2  A    between atoms: O_8  and  C_9 
REMARK    3  A    between atoms: C_9  and  C_10 
REMARK    4  A    between atoms: C_10  and  N_11 
REMARK       I    between atoms: N_11  and  C_12 
REMARK    5  A    between atoms: C_12  and  C_14 
REMARK    6  A    between atoms: C_14  and  N_15 
ROOT
ATOM      1  N   UNK d   1       0.074 -17.456 -37.196  0.00  0.00    -0.358 N 
ATOM      2  C   UNK d   1       0.635 -18.163 -38.295  0.00  0.00     0.236 C 
ATOM      3  O   UNK d   1       0.863 -17.451 -39.335  0.00  0.00    -0.272 OA
ATOM      4  H   UNK d   1      -0.128 -17.985 -36.321  0.00  0.00     0.162 HD
ENDROOT
BRANCH   2   5
ATOM      5  C   UNK d   1       0.953 -19.605 -38.303  0.00  0.00     0.237 C 
BRANCH   5   6
ATOM      6  N   UNK d   1       2.357 -19.910 -38.364  0.00  0.00    -0.279 N 
ATOM      7  C   UNK d   1       3.304 -19.326 -37.454  0.00  0.00     0.232 C 
ATOM      8  O   UNK d   1       3.150 -18.312 -36.729  0.00  0.00    -0.272 OA
ATOM      9  C   UNK d   1       4.525 -20.130 -37.509  0.00  0.00     0.100 C 
ATOM     10  C   UNK d   1       4.267 -21.268 -38.518  0.00  0.00     0.100 C 
ATOM     11  C   UNK d   1       5.701 -19.455 -38.160  0.00  0.00     0.022 C 
ATOM     12  C   UNK d   1       5.427 -21.264 -39.451  0.00  0.00     0.022 C 
ATOM     13  C   UNK d   1       3.061 -20.795 -39.246  0.00  0.00     0.232 C 
ATOM     14  C   UNK d   1       6.532 -20.698 -38.536  0.00  0.00     0.018 C 
ATOM     15  C   UNK d   1       5.274 -20.091 -40.347  0.00  0.00    -0.025 C 
ATOM     16  C   UNK d   1       5.293 -19.033 -39.542  0.00  0.00    -0.025 C 
ATOM     17  O   UNK d   1       2.702 -21.088 -40.399  0.00  0.00    -0.272 OA
ENDBRANCH   5   6
ENDBRANCH   2   5
BRANCH   1  18
ATOM     18  C   UNK d   1      -0.222 -16.057 -37.244  0.00  0.00     0.149 C 
BRANCH  18  19
ATOM     19  C   UNK d   1       0.770 -15.267 -36.376  0.00  0.00     0.195 C 
BRANCH  19  20
ATOM     20  O   UNK d   1       1.457 -14.423 -37.073  0.00  0.00    -0.350 OA
BRANCH  20  21
ATOM     21  C   UNK d   1       2.139 -13.651 -37.835  0.00  0.00     0.070 A 
ATOM     22  C   UNK d   1       2.673 -12.451 -37.331  0.00  0.00     0.055 A 
ATOM     23  C   UNK d   1       3.409 -11.581 -38.088  0.00  0.00     0.013 A 
ATOM     24 Br   UNK d   1       4.117  -9.961 -37.367  0.00  0.00    -0.051 Br
ATOM     25  C   UNK d   1       3.657 -11.860 -39.404  0.00  0.00     0.019 A 
ATOM     26  C   UNK d   1       3.159 -13.023 -39.958  0.00  0.00     0.004 A 
ATOM     27  C   UNK d   1       2.421 -13.894 -39.195  0.00  0.00     0.037 A 
ENDBRANCH  20  21
ENDBRANCH  19  20
ENDBRANCH  18  19
ENDBRANCH   1  18
TORSDOF 6
ENDMDL
