/Users/jonathanwahrer/Desktop/Msc/3_Semester/Drug_Design_Praktikum/waehrer_HTS_screening/HTS_experiment/out/docking_results/vina_output/6y4q/0219_docked.pdbqt
 OpenBabel03232217253D

 27 30  0  0  1  0  0  0  0  0999 V2000
    0.0740  -17.4560  -37.1960 N   0  0  0  0  0  0  0  0  0  0  0  0
    0.6350  -18.1630  -38.2950 C   0  0  0  0  0  0  0  0  0  0  0  0
    0.8630  -17.4510  -39.3350 O   0  0  0  0  0  0  0  0  0  0  0  0
   -0.1280  -17.9850  -36.3210 H   0  0  0  0  0  0  0  0  0  0  0  0
    0.9530  -19.6050  -38.3030 C   0  0  0  0  0  2  0  0  0  0  0  0
    2.3570  -19.9100  -38.3640 N   0  0  0  0  0  0  0  0  0  0  0  0
    3.3040  -19.3260  -37.4540 C   0  0  0  0  0  0  0  0  0  0  0  0
    3.1500  -18.3120  -36.7290 O   0  0  0  0  0  0  0  0  0  0  0  0
    4.5250  -20.1300  -37.5090 C   0  0  1  0  0  3  0  0  0  0  0  0
    4.2670  -21.2680  -38.5180 C   0  0  2  0  0  3  0  0  0  0  0  0
    5.7010  -19.4550  -38.1600 C   0  0  1  0  0  3  0  0  0  0  0  0
    5.4270  -21.2640  -39.4510 C   0  0  2  0  0  3  0  0  0  0  0  0
    3.0610  -20.7950  -39.2460 C   0  0  0  0  0  0  0  0  0  0  0  0
    6.5320  -20.6980  -38.5360 C   0  0  0  0  0  2  0  0  0  0  0  0
    5.2740  -20.0910  -40.3470 C   0  0  0  0  0  2  0  0  0  0  0  0
    5.2930  -19.0330  -39.5420 C   0  0  0  0  0  2  0  0  0  0  0  0
    2.7020  -21.0880  -40.3990 O   0  0  0  0  0  0  0  0  0  0  0  0
   -0.2220  -16.0570  -37.2440 C   0  0  0  0  0  2  0  0  0  0  0  0
    0.7700  -15.2670  -36.3760 C   0  0  0  0  0  2  0  0  0  0  0  0
    1.4570  -14.4230  -37.0730 O   0  0  0  0  0  0  0  0  0  0  0  0
    2.1390  -13.6510  -37.8350 C   0  0  0  0  0  0  0  0  0  0  0  0
    2.6730  -12.4510  -37.3310 C   0  0  0  0  0  3  0  0  0  0  0  0
    3.4090  -11.5810  -38.0880 C   0  0  0  0  0  0  0  0  0  0  0  0
    4.1170   -9.9610  -37.3670 Br  0  0  0  0  0  0  0  0  0  0  0  0
    3.6570  -11.8600  -39.4040 C   0  0  0  0  0  3  0  0  0  0  0  0
    3.1590  -13.0230  -39.9580 C   0  0  0  0  0  3  0  0  0  0  0  0
    2.4210  -13.8940  -39.1950 C   0  0  0  0  0  3  0  0  0  0  0  0
  1  4  1  0  0  0  0
  2  1  1  0  0  0  0
  3  2  2  0  0  0  0
  5  2  1  0  0  0  0
  6  5  1  0  0  0  0
  6  7  1  0  0  0  0
  7  8  2  0  0  0  0
  9  7  1  6  0  0  0
 10 13  1  6  0  0  0
 10  9  1  0  0  0  0
 11 16  1  6  0  0  0
 11  9  1  0  0  0  0
 12 15  1  6  0  0  0
 12 14  1  0  0  0  0
 12 10  1  0  0  0  0
 13  6  1  0  0  0  0
 14 11  1  0  0  0  0
 15 16  1  0  0  0  0
 17 13  2  0  0  0  0
 18  1  1  0  0  0  0
 18 19  1  0  0  0  0
 20 19  1  0  0  0  0
 21 22  1  0  0  0  0
 21 20  1  0  0  0  0
 23 24  1  0  0  0  0
 23 22  2  0  0  0  0
 25 23  1  0  0  0  0
 26 25  2  0  0  0  0
 26 27  1  0  0  0  0
 27 21  2  0  0  0  0
M  END
>  <Pose>
1

>  <Score>
-6.637

$$$$
