/Users/jonathanwahrer/Desktop/Msc/3_Semester/Drug_Design_Praktikum/waehrer_HTS_screening/HTS_experiment/out/docking_results/vina_output/6y4q/0226_docked.pdbqt
 OpenBabel03232217253D

 30 33  0  0  0  0  0  0  0  0999 V2000
    0.5150  -18.3000  -37.7670 N   0  0  0  0  0  0  0  0  0  0  0  0
   -0.8070  -18.5330  -37.7380 C   0  0  0  0  0  0  0  0  0  0  0  0
   -1.0650  -19.8140  -38.1860 C   0  0  0  0  0  0  0  0  0  0  0  0
    0.1360  -20.3280  -38.4760 N   0  0  0  0  0  0  0  0  0  0  0  0
    1.1110  -19.4340  -38.2320 C   0  0  0  0  0  0  0  0  0  0  0  0
   -2.3300  -20.2690  -38.2410 N   0  0  0  0  0  0  0  0  0  0  0  0
   -3.3570  -19.4870  -37.8650 C   0  0  0  0  0  0  0  0  0  0  0  0
   -4.5530  -19.8720  -37.9000 O   0  0  0  0  0  0  0  0  0  0  0  0
   -3.1180  -18.2230  -37.4210 N   0  0  0  0  0  0  0  0  0  0  0  0
   -1.8710  -17.7220  -37.3480 C   0  0  0  0  0  0  0  0  0  0  0  0
   -1.6880  -16.5330  -36.9290 O   0  0  0  0  0  0  0  0  0  0  0  0
   -2.6330  -21.6070  -38.7060 C   0  0  0  0  0  1  0  0  0  0  0  0
   -3.9450  -17.6480  -37.1370 H   0  0  0  0  0  0  0  0  0  0  0  0
    1.1960  -17.0980  -37.3760 C   0  0  0  0  0  2  0  0  0  0  0  0
    1.2470  -16.0710  -38.4640 C   0  0  0  0  0  0  0  0  0  0  0  0
    0.8080  -16.3260  -39.5970 O   0  0  0  0  0  0  0  0  0  0  0  0
    1.8110  -14.7470  -38.2160 C   0  0  0  0  0  0  0  0  0  0  0  0
    2.4600  -14.0430  -39.2010 C   0  0  0  0  0  3  0  0  0  0  0  0
    2.9960  -12.7890  -38.9620 C   0  0  0  0  0  3  0  0  0  0  0  0
    2.9050  -12.1860  -37.7160 C   0  0  0  0  0  0  0  0  0  0  0  0
    3.6550  -10.4620  -37.4290 Br  0  0  0  0  0  0  0  0  0  0  0  0
    2.2560  -12.8890  -36.7260 C   0  0  0  0  0  3  0  0  0  0  0  0
    1.7270  -14.1350  -36.9780 C   0  0  0  0  0  3  0  0  0  0  0  0
    2.5100  -19.5770  -38.3970 N   0  0  0  0  0  0  0  0  0  0  0  0
    3.0770  -19.3910  -39.6930 C   0  0  0  0  0  2  0  0  0  0  0  0
    4.5460  -19.1980  -39.7690 C   0  0  0  0  0  2  0  0  0  0  0  0
    5.3040  -19.7460  -38.6830 N   0  0  0  0  0  0  0  0  0  0  0  0
    4.7200  -19.2730  -37.4440 C   0  0  0  0  0  2  0  0  0  0  0  0
    5.4290  -21.1750  -38.7320 C   0  0  0  0  0  1  0  0  0  0  0  0
    3.3350  -19.9000  -37.2740 C   0  0  0  0  0  2  0  0  0  0  0  0
  1  2  1  0  0  0  0
  1 14  1  0  0  0  0
  2 10  1  0  0  0  0
  3  2  2  0  0  0  0
  4  5  2  0  0  0  0
  4  3  1  0  0  0  0
  5  1  1  0  0  0  0
  6  3  1  0  0  0  0
  6  7  1  0  0  0  0
  7  9  1  0  0  0  0
  8  7  2  0  0  0  0
  9 10  1  0  0  0  0
  9 13  1  0  0  0  0
 10 11  2  0  0  0  0
 12  6  1  0  0  0  0
 15 17  1  0  0  0  0
 15 14  1  0  0  0  0
 16 15  2  0  0  0  0
 17 23  1  0  0  0  0
 18 19  1  0  0  0  0
 18 17  2  0  0  0  0
 19 20  2  0  0  0  0
 20 21  1  0  0  0  0
 20 22  1  0  0  0  0
 23 22  2  0  0  0  0
 24  5  1  0  0  0  0
 24 30  1  0  0  0  0
 25 24  1  0  0  0  0
 26 25  1  0  0  0  0
 26 27  1  0  0  0  0
 27 28  1  0  0  0  0
 28 30  1  0  0  0  0
 29 27  1  0  0  0  0
M  END
>  <Pose>
1

>  <Score>
-6.525

$$$$
