MODEL 1
REMARK VINA RESULT:    -6.525      0.000      0.000
REMARK INTER + INTRA:          -8.962
REMARK INTER:                  -8.050
REMARK INTRA:                  -0.912
REMARK UNBOUND:                -0.912
REMARK  4 active torsions:
REMARK  status: ('A' for Active; 'I' for Inactive)
REMARK    1  A    between atoms: C_5  and  C_8 
REMARK    2  A    between atoms: C_8  and  C_10 
REMARK    3  A    between atoms: C_10  and  N_11 
REMARK    4  A    between atoms: C_15  and  N_16 
ROOT
ATOM      1  N   UNK d   1       0.515 -18.300 -37.767  0.00  0.00    -0.165 N 
ATOM      2  C   UNK d   1      -0.807 -18.533 -37.738  0.00  0.00     0.167 A 
ATOM      3  C   UNK d   1      -1.065 -19.814 -38.186  0.00  0.00     0.185 A 
ATOM      4  N   UNK d   1       0.136 -20.328 -38.476  0.00  0.00    -0.044 NA
ATOM      5  C   UNK d   1       1.111 -19.434 -38.232  0.00  0.00     0.708 A 
ATOM      6  N   UNK d   1      -2.330 -20.269 -38.241  0.00  0.00    -0.286 N 
ATOM      7  C   UNK d   1      -3.357 -19.487 -37.865  0.00  0.00     0.330 A 
ATOM      8  O   UNK d   1      -4.553 -19.872 -37.900  0.00  0.00    -0.246 OA
ATOM      9  N   UNK d   1      -3.118 -18.223 -37.421  0.00  0.00    -0.273 N 
ATOM     10  C   UNK d   1      -1.871 -17.722 -37.348  0.00  0.00     0.280 A 
ATOM     11  O   UNK d   1      -1.688 -16.533 -36.929  0.00  0.00    -0.265 OA
ATOM     12  C   UNK d   1      -2.633 -21.607 -38.706  0.00  0.00     0.163 C 
ATOM     13  H   UNK d   1      -3.945 -17.648 -37.137  0.00  0.00     0.173 HD
ENDROOT
BRANCH   1  14
ATOM     14  C   UNK d   1       1.196 -17.098 -37.376  0.00  0.00     0.232 C 
BRANCH  14  15
ATOM     15  C   UNK d   1       1.247 -16.071 -38.464  0.00  0.00     0.178 C 
ATOM     16  O   UNK d   1       0.808 -16.326 -39.597  0.00  0.00    -0.290 OA
BRANCH  15  17
ATOM     17  C   UNK d   1       1.811 -14.747 -38.216  0.00  0.00     0.011 A 
ATOM     18  C   UNK d   1       2.460 -14.043 -39.201  0.00  0.00     0.016 A 
ATOM     19  C   UNK d   1       2.996 -12.789 -38.962  0.00  0.00     0.020 A 
ATOM     20  C   UNK d   1       2.905 -12.186 -37.716  0.00  0.00     0.011 A 
ATOM     21 Br   UNK d   1       3.655 -10.462 -37.429  0.00  0.00    -0.051 Br
ATOM     22  C   UNK d   1       2.256 -12.889 -36.726  0.00  0.00     0.020 A 
ATOM     23  C   UNK d   1       1.727 -14.135 -36.978  0.00  0.00     0.016 A 
ENDBRANCH  15  17
ENDBRANCH  14  15
ENDBRANCH   1  14
BRANCH   5  24
ATOM     24  N   UNK d   1       2.510 -19.577 -38.397  0.00  0.00    -0.212 N 
ATOM     25  C   UNK d   1       3.077 -19.391 -39.693  0.00  0.00     0.171 C 
ATOM     26  C   UNK d   1       4.546 -19.198 -39.769  0.00  0.00     0.292 C 
ATOM     27  N   UNK d   1       5.304 -19.746 -38.683  0.00  0.00     0.087 N 
ATOM     28  C   UNK d   1       4.720 -19.273 -37.444  0.00  0.00     0.292 C 
ATOM     29  C   UNK d   1       5.429 -21.175 -38.732  0.00  0.00     0.310 C 
ATOM     30  C   UNK d   1       3.335 -19.900 -37.274  0.00  0.00     0.171 C 
ENDBRANCH   5  24
TORSDOF 4
ENDMDL
