MODEL 1
REMARK VINA RESULT:    -6.127      0.000      0.000
REMARK INTER + INTRA:          -9.467
REMARK INTER:                  -8.634
REMARK INTRA:                  -0.833
REMARK UNBOUND:                -0.833
REMARK  7 active torsions:
REMARK  status: ('A' for Active; 'I' for Inactive)
REMARK    1  A    between atoms: C_5  and  C_8 
REMARK    2  A    between atoms: C_8  and  C_10 
REMARK    3  A    between atoms: C_11  and  C_25 
REMARK    4  A    between atoms: N_12  and  C_17 
REMARK    5  A    between atoms: C_17  and  C_18 
REMARK    6  A    between atoms: C_18  and  N_19 
REMARK    7  A    between atoms: C_27  and  O_32 
ROOT
ATOM      1  C   UNK d   1       1.577 -14.675 -37.093  0.00  0.00     0.167 C 
ATOM      2  C   UNK d   1       2.018 -16.003 -37.659  0.00  0.00     0.140 C 
ATOM      3  N   UNK d   1       1.829 -16.890 -36.534  0.00  0.00    -0.334 N 
ATOM      4  C   UNK d   1       0.689 -16.407 -35.830  0.00  0.00     0.291 C 
ATOM      5  O   UNK d   1       0.111 -16.992 -34.863  0.00  0.00    -0.264 OA
ATOM      6  C   UNK d   1       0.298 -15.112 -36.420  0.00  0.00     0.230 C 
ATOM      7  O   UNK d   1      -0.810 -14.557 -36.356  0.00  0.00    -0.286 OA
ENDROOT
BRANCH   1   8
ATOM      8  C   UNK d   1       1.351 -13.630 -38.074  0.00  0.00     0.173 C 
ATOM      9  O   UNK d   1       0.210 -13.403 -38.528  0.00  0.00    -0.291 OA
BRANCH   8  10
ATOM     10  C   UNK d   1       2.462 -12.824 -38.546  0.00  0.00     0.011 A 
ATOM     11  C   UNK d   1       2.886 -12.898 -39.878  0.00  0.00     0.016 A 
ATOM     12  C   UNK d   1       3.936 -12.151 -40.345  0.00  0.00     0.020 A 
ATOM     13  C   UNK d   1       4.596 -11.303 -39.489  0.00  0.00     0.011 A 
ATOM     14 Br   UNK d   1       6.048 -10.278 -40.154  0.00  0.00    -0.051 Br
ATOM     15  C   UNK d   1       4.230 -11.185 -38.174  0.00  0.00     0.020 A 
ATOM     16  C   UNK d   1       3.167 -11.954 -37.739  0.00  0.00     0.016 A 
ENDBRANCH   8  10
ENDBRANCH   1   8
BRANCH   2  17
ATOM     17  C   UNK d   1       1.315 -16.407 -38.867  0.00  0.00    -0.031 A 
ATOM     18  C   UNK d   1       0.078 -17.065 -38.823  0.00  0.00     0.049 A 
ATOM     19  C   UNK d   1      -0.584 -17.442 -39.973  0.00  0.00     0.105 A 
ATOM     20  C   UNK d   1      -0.050 -17.180 -41.222  0.00  0.00     0.140 A 
ATOM     21  C   UNK d   1       1.166 -16.533 -41.288  0.00  0.00     0.043 A 
ATOM     22  O   UNK d   1      -0.695 -17.549 -42.395  0.00  0.00    -0.189 OA
ATOM     23  C   UNK d   1       1.819 -16.162 -40.123  0.00  0.00     0.012 A 
BRANCH  19  24
ATOM     24  O   UNK d   1      -1.805 -18.092 -39.937  0.00  0.00    -0.353 OA
ATOM     25  C   UNK d   1      -2.032 -19.283 -39.227  0.00  0.00     0.210 C 
ENDBRANCH  19  24
ENDBRANCH   2  17
BRANCH   3  26
ATOM     26  C   UNK d   1       2.588 -18.048 -36.130  0.00  0.00     0.154 C 
BRANCH  26  27
ATOM     27  C   UNK d   1       3.427 -18.626 -37.229  0.00  0.00     0.255 C 
BRANCH  27  28
ATOM     28  N   UNK d   1       3.110 -19.949 -37.606  0.00  0.00    -0.066 N 
ATOM     29  C   UNK d   1       4.303 -20.547 -38.215  0.00  0.00     0.261 C 
ATOM     30  C   UNK d   1       4.615 -19.965 -39.554  0.00  0.00     0.195 C 
ATOM     31  O   UNK d   1       3.601 -19.227 -40.113  0.00  0.00    -0.388 OA
ATOM     32  C   UNK d   1       2.387 -19.850 -39.957  0.00  0.00     0.195 C 
ATOM     33  C   UNK d   1       2.034 -20.114 -38.518  0.00  0.00     0.261 C 
ATOM     34  H   UNK d   1       2.915 -20.551 -36.759  0.00  0.00     0.280 HD
ENDBRANCH  27  28
ENDBRANCH  26  27
ENDBRANCH   3  26
TORSDOF 7
ENDMDL
