MODEL 1
REMARK VINA RESULT:    -6.067      0.000      0.000
REMARK INTER + INTRA:          -6.452
REMARK INTER:                  -7.131
REMARK INTRA:                   0.679
REMARK UNBOUND:                 0.679
REMARK  3 active torsions:
REMARK  status: ('A' for Active; 'I' for Inactive)
REMARK    1  A    between atoms: C_5  and  C_8 
REMARK    2  A    between atoms: C_8  and  C_10 
REMARK    3  A    between atoms: N_21  and  C_24 
ROOT
ATOM      1  C   UNK d   1       1.342 -16.522 -37.905  0.00  0.00     0.193 C 
ATOM      2  N   UNK d   1       2.343 -17.567 -37.763  0.00  0.00    -0.283 N 
ATOM      3  N   UNK d   1       3.087 -18.121 -36.742  0.00  0.00    -0.188 NA
ATOM      4  C   UNK d   1       3.845 -19.150 -36.890  0.00  0.00     0.138 A 
ATOM      5  C   UNK d   1       3.954 -19.776 -38.188  0.00  0.00     0.019 A 
ATOM      6  C   UNK d   1       3.299 -19.290 -39.216  0.00  0.00     0.002 A 
ATOM      7  C   UNK d   1       2.455 -18.114 -39.112  0.00  0.00     0.142 A 
ATOM      8  C   UNK d   1       1.022 -18.296 -39.470  0.00  0.00     0.122 C 
ATOM      9  C   UNK d   1       0.247 -17.286 -38.616  0.00  0.00     0.126 C 
ATOM     10  C   UNK d   1      -0.546 -18.120 -37.715  0.00  0.00     0.234 C 
ATOM     11  O   UNK d   1      -1.131 -17.721 -36.671  0.00  0.00    -0.272 OA
ATOM     12  N   UNK d   1      -0.549 -19.447 -38.204  0.00  0.00    -0.288 N 
ATOM     13  C   UNK d   1       0.494 -19.628 -39.152  0.00  0.00     0.234 C 
ATOM     14  O   UNK d   1       0.895 -20.716 -39.633  0.00  0.00    -0.272 OA
ENDROOT
BRANCH   1  15
ATOM     15  C   UNK d   1       0.921 -16.000 -36.598  0.00  0.00     0.184 C 
ATOM     16  O   UNK d   1       1.095 -16.769 -35.598  0.00  0.00    -0.290 OA
BRANCH  15  17
ATOM     17  C   UNK d   1       0.333 -14.701 -36.363  0.00  0.00     0.012 A 
ATOM     18  C   UNK d   1       1.076 -13.612 -35.987  0.00  0.00     0.016 A 
ATOM     19  C   UNK d   1       0.464 -12.396 -35.782  0.00  0.00     0.020 A 
ATOM     20  C   UNK d   1      -0.891 -12.197 -35.934  0.00  0.00     0.011 A 
ATOM     21 Br   UNK d   1      -1.678 -10.484 -35.633  0.00  0.00    -0.051 Br
ATOM     22  C   UNK d   1      -1.635 -13.293 -36.311  0.00  0.00     0.020 A 
ATOM     23  C   UNK d   1      -1.031 -14.512 -36.519  0.00  0.00     0.016 A 
ENDBRANCH  15  17
ENDBRANCH   1  15
BRANCH  12  24
ATOM     24  C   UNK d   1      -1.470 -20.489 -37.812  0.00  0.00     0.130 C 
ATOM     25  C   UNK d   1      -2.759 -20.466 -38.576  0.00  0.00     0.027 C 
ENDBRANCH  12  24
TORSDOF 3
ENDMDL
