/Users/jonathanwahrer/Desktop/Msc/3_Semester/Drug_Design_Praktikum/waehrer_HTS_screening/HTS_experiment/out/docking_results/vina_output/6y4q/0235_docked.pdbqt
 OpenBabel03232217253D

 25 28  0  0  1  0  0  0  0  0999 V2000
    1.3420  -16.5220  -37.9050 C   0  0  1  0  0  3  0  0  0  0  0  0
    2.3430  -17.5670  -37.7630 N   0  0  0  0  0  0  0  0  0  0  0  0
    3.0870  -18.1210  -36.7420 N   0  0  0  0  0  2  0  0  0  0  0  0
    3.8450  -19.1500  -36.8900 C   0  0  0  0  0  3  0  0  0  0  0  0
    3.9540  -19.7760  -38.1880 C   0  0  0  0  0  3  0  0  0  0  0  0
    3.2990  -19.2900  -39.2160 C   0  0  0  0  0  3  0  0  0  0  0  0
    2.4550  -18.1140  -39.1120 C   0  0  0  0  0  0  0  0  0  0  0  0
    1.0220  -18.2960  -39.4700 C   0  0  2  0  0  3  0  0  0  0  0  0
    0.2470  -17.2860  -38.6160 C   0  0  1  0  0  3  0  0  0  0  0  0
   -0.5460  -18.1200  -37.7150 C   0  0  0  0  0  0  0  0  0  0  0  0
   -1.1310  -17.7210  -36.6710 O   0  0  0  0  0  0  0  0  0  0  0  0
   -0.5490  -19.4470  -38.2040 N   0  0  0  0  0  0  0  0  0  0  0  0
    0.4940  -19.6280  -39.1520 C   0  0  0  0  0  0  0  0  0  0  0  0
    0.8950  -20.7160  -39.6330 O   0  0  0  0  0  0  0  0  0  0  0  0
    0.9210  -16.0000  -36.5980 C   0  0  0  0  0  0  0  0  0  0  0  0
    1.0950  -16.7690  -35.5980 O   0  0  0  0  0  0  0  0  0  0  0  0
    0.3330  -14.7010  -36.3630 C   0  0  0  0  0  0  0  0  0  0  0  0
    1.0760  -13.6120  -35.9870 C   0  0  0  0  0  3  0  0  0  0  0  0
    0.4640  -12.3960  -35.7820 C   0  0  0  0  0  3  0  0  0  0  0  0
   -0.8910  -12.1970  -35.9340 C   0  0  0  0  0  0  0  0  0  0  0  0
   -1.6780  -10.4840  -35.6330 Br  0  0  0  0  0  0  0  0  0  0  0  0
   -1.6350  -13.2930  -36.3110 C   0  0  0  0  0  3  0  0  0  0  0  0
   -1.0310  -14.5120  -36.5190 C   0  0  0  0  0  3  0  0  0  0  0  0
   -1.4700  -20.4890  -37.8120 C   0  0  0  0  0  2  0  0  0  0  0  0
   -2.7590  -20.4660  -38.5760 C   0  0  0  0  0  1  0  0  0  0  0  0
  1  2  1  0  0  0  0
  1 15  1  1  0  0  0
  2  3  1  0  0  0  0
  4  3  1  0  0  0  0
  5  4  2  0  0  0  0
  6  7  2  0  0  0  0
  6  5  1  0  0  0  0
  7  2  1  0  0  0  0
  8 13  1  1  0  0  0
  8  7  1  0  0  0  0
  8  9  1  0  0  0  0
  9  1  1  0  0  0  0
  9 10  1  1  0  0  0
 10 11  2  0  0  0  0
 12 24  1  0  0  0  0
 12 10  1  0  0  0  0
 13 12  1  0  0  0  0
 14 13  2  0  0  0  0
 15 17  1  0  0  0  0
 15 16  2  0  0  0  0
 17 18  1  0  0  0  0
 18 19  2  0  0  0  0
 20 19  1  0  0  0  0
 20 21  1  0  0  0  0
 22 20  2  0  0  0  0
 23 17  2  0  0  0  0
 23 22  1  0  0  0  0
 25 24  1  0  0  0  0
M  END
>  <Pose>
1

>  <Score>
-6.067

$$$$
