MODEL 1
REMARK VINA RESULT:    -7.243      0.000      0.000
REMARK INTER + INTRA:          -9.479
REMARK INTER:                  -8.937
REMARK INTRA:                  -0.542
REMARK UNBOUND:                -0.542
REMARK  4 active torsions:
REMARK  status: ('A' for Active; 'I' for Inactive)
REMARK    1  A    between atoms: C_5  and  C_8 
REMARK       I    between atoms: C_8  and  N_10 
REMARK    2  A    between atoms: N_10  and  C_11 
REMARK    3  A    between atoms: C_19  and  C_22 
REMARK    4  A    between atoms: C_22  and  C_23 
ROOT
ATOM      1  C   UNK d   1       1.097 -15.977 -37.220  0.00  0.00     0.105 C 
ATOM      2  C   UNK d   1       1.980 -16.825 -36.338  0.00  0.00     0.152 C 
ATOM      3  N   UNK d   1       2.413 -17.905 -37.199  0.00  0.00    -0.335 N 
ATOM      4  C   UNK d   1       1.532 -18.005 -38.351  0.00  0.00     0.181 C 
ATOM      5  C   UNK d   1       0.561 -16.878 -38.298  0.00  0.00     0.061 C 
ATOM      6  C   UNK d   1       2.411 -17.974 -39.541  0.00  0.00     0.241 C 
ATOM      7  O   UNK d   1       2.136 -17.202 -40.487  0.00  0.00    -0.271 OA
ATOM      8  N   UNK d   1       3.539 -18.829 -39.561  0.00  0.00    -0.346 N 
ATOM      9  C   UNK d   1       4.106 -19.436 -38.379  0.00  0.00     0.181 C 
ATOM     10  C   UNK d   1       3.472 -18.853 -37.162  0.00  0.00     0.243 C 
ATOM     11  O   UNK d   1       3.886 -19.206 -36.000  0.00  0.00    -0.271 OA
ATOM     12  H   UNK d   1       3.966 -19.012 -40.507  0.00  0.00     0.163 HD
ENDROOT
BRANCH   1  13
ATOM     13  N   UNK d   1       1.821 -14.905 -37.854  0.00  0.00    -0.351 N 
ATOM     14  C   UNK d   1       2.033 -13.692 -37.193  0.00  0.00     0.252 C 
ATOM     15  O   UNK d   1       1.590 -13.506 -36.010  0.00  0.00    -0.268 OA
ATOM     16  H   UNK d   1       2.181 -15.053 -38.811  0.00  0.00     0.163 HD
BRANCH  14  17
ATOM     17  C   UNK d   1       2.763 -12.562 -37.787  0.00  0.00     0.032 A 
ATOM     18  C   UNK d   1       3.530 -11.710 -37.020  0.00  0.00     0.018 A 
ATOM     19  C   UNK d   1       4.215 -10.650 -37.576  0.00  0.00     0.020 A 
ATOM     20  C   UNK d   1       4.169 -10.383 -38.930  0.00  0.00     0.011 A 
ATOM     21 Br   UNK d   1       5.096  -8.936 -39.739  0.00  0.00    -0.051 Br
ATOM     22  C   UNK d   1       3.395 -11.244 -39.701  0.00  0.00     0.020 A 
ATOM     23  C   UNK d   1       2.717 -12.297 -39.136  0.00  0.00     0.018 A 
ENDBRANCH  14  17
ENDBRANCH   1  13
BRANCH   9  24
ATOM     24  C   UNK d   1       3.989 -20.940 -38.425  0.00  0.00     0.073 C 
BRANCH  24  25
ATOM     25  C   UNK d   1       4.427 -21.480 -39.743  0.00  0.00    -0.056 A 
ATOM     26  C   UNK d   1       3.494 -22.008 -40.637  0.00  0.00     0.007 A 
ATOM     27  C   UNK d   1       3.955 -22.492 -41.841  0.00  0.00     0.001 A 
ATOM     28  C   UNK d   1       5.292 -22.477 -42.199  0.00  0.00     0.000 A 
ATOM     29  C   UNK d   1       6.173 -21.947 -41.285  0.00  0.00     0.001 A 
ATOM     30  C   UNK d   1       5.771 -21.449 -40.066  0.00  0.00     0.007 A 
ENDBRANCH  24  25
ENDBRANCH   9  24
TORSDOF 4
ENDMDL
