/Users/jonathanwahrer/Desktop/Msc/3_Semester/Drug_Design_Praktikum/waehrer_HTS_screening/HTS_experiment/out/docking_results/vina_output/6y4q/0243_docked.pdbqt
 OpenBabel03232217263D

 30 33  0  0  1  0  0  0  0  0999 V2000
    1.0970  -15.9770  -37.2200 C   0  0  2  0  0  3  0  0  0  0  0  0
    1.9800  -16.8250  -36.3380 C   0  0  0  0  0  2  0  0  0  0  0  0
    2.4130  -17.9050  -37.1990 N   0  0  0  0  0  0  0  0  0  0  0  0
    1.5320  -18.0050  -38.3510 C   0  0  1  0  0  3  0  0  0  0  0  0
    0.5610  -16.8780  -38.2980 C   0  0  0  0  0  2  0  0  0  0  0  0
    2.4110  -17.9740  -39.5410 C   0  0  0  0  0  0  0  0  0  0  0  0
    2.1360  -17.2020  -40.4870 O   0  0  0  0  0  0  0  0  0  0  0  0
    3.5390  -18.8290  -39.5610 N   0  0  0  0  0  0  0  0  0  0  0  0
    4.1060  -19.4360  -38.3790 C   0  0  1  0  0  3  0  0  0  0  0  0
    3.4720  -18.8530  -37.1620 C   0  0  0  0  0  0  0  0  0  0  0  0
    3.8860  -19.2060  -36.0000 O   0  0  0  0  0  0  0  0  0  0  0  0
    3.9660  -19.0120  -40.5070 H   0  0  0  0  0  0  0  0  0  0  0  0
    1.8210  -14.9050  -37.8540 N   0  0  0  0  0  0  0  0  0  0  0  0
    2.0330  -13.6920  -37.1930 C   0  0  0  0  0  0  0  0  0  0  0  0
    1.5900  -13.5060  -36.0100 O   0  0  0  0  0  0  0  0  0  0  0  0
    2.1810  -15.0530  -38.8110 H   0  0  0  0  0  0  0  0  0  0  0  0
    2.7630  -12.5620  -37.7870 C   0  0  0  0  0  0  0  0  0  0  0  0
    3.5300  -11.7100  -37.0200 C   0  0  0  0  0  3  0  0  0  0  0  0
    4.2150  -10.6500  -37.5760 C   0  0  0  0  0  3  0  0  0  0  0  0
    4.1690  -10.3830  -38.9300 C   0  0  0  0  0  0  0  0  0  0  0  0
    5.0960   -8.9360  -39.7390 Br  0  0  0  0  0  0  0  0  0  0  0  0
    3.3950  -11.2440  -39.7010 C   0  0  0  0  0  3  0  0  0  0  0  0
    2.7170  -12.2970  -39.1360 C   0  0  0  0  0  3  0  0  0  0  0  0
    3.9890  -20.9400  -38.4250 C   0  0  0  0  0  2  0  0  0  0  0  0
    4.4270  -21.4800  -39.7430 C   0  0  0  0  0  0  0  0  0  0  0  0
    3.4940  -22.0080  -40.6370 C   0  0  0  0  0  3  0  0  0  0  0  0
    3.9550  -22.4920  -41.8410 C   0  0  0  0  0  3  0  0  0  0  0  0
    5.2920  -22.4770  -42.1990 C   0  0  0  0  0  3  0  0  0  0  0  0
    6.1730  -21.9470  -41.2850 C   0  0  0  0  0  3  0  0  0  0  0  0
    5.7710  -21.4490  -40.0660 C   0  0  0  0  0  3  0  0  0  0  0  0
  1 13  1  6  0  0  0
  1  2  1  0  0  0  0
  3 10  1  0  0  0  0
  3  2  1  0  0  0  0
  4  5  1  6  0  0  0
  4  3  1  0  0  0  0
  5  1  1  0  0  0  0
  6  4  1  0  0  0  0
  7  6  2  0  0  0  0
  8  6  1  0  0  0  0
  8  9  1  0  0  0  0
  9 24  1  6  0  0  0
  9 10  1  0  0  0  0
 10 11  2  0  0  0  0
 12  8  1  0  0  0  0
 13 14  1  0  0  0  0
 14 15  2  0  0  0  0
 16 13  1  0  0  0  0
 17 14  1  0  0  0  0
 17 18  1  0  0  0  0
 19 18  2  0  0  0  0
 20 19  1  0  0  0  0
 21 20  1  0  0  0  0
 22 23  1  0  0  0  0
 22 20  2  0  0  0  0
 23 17  2  0  0  0  0
 25 24  1  0  0  0  0
 26 25  2  0  0  0  0
 27 26  1  0  0  0  0
 28 27  2  0  0  0  0
 28 29  1  0  0  0  0
 29 30  2  0  0  0  0
 30 25  1  0  0  0  0
M  END
>  <Pose>
1

>  <Score>
-7.243

$$$$
