/Users/jonathanwahrer/Desktop/Msc/3_Semester/Drug_Design_Praktikum/waehrer_HTS_screening/HTS_experiment/out/docking_results/vina_output/6y4q/0244_docked.pdbqt
 OpenBabel03232217263D

 25 28  0  0  1  0  0  0  0  0999 V2000
    1.0650  -16.0480  -36.9280 C   0  0  2  0  0  3  0  0  0  0  0  0
    1.8410  -16.9170  -35.9650 C   0  0  0  0  0  2  0  0  0  0  0  0
    2.3660  -17.9650  -36.8220 N   0  0  0  0  0  0  0  0  0  0  0  0
    1.4980  -18.1140  -37.9730 C   0  0  1  0  0  3  0  0  0  0  0  0
    0.5040  -17.0020  -37.9540 C   0  0  0  0  0  2  0  0  0  0  0  0
    2.3760  -18.0910  -39.1710 C   0  0  0  0  0  0  0  0  0  0  0  0
    2.1290  -17.4180  -40.1990 O   0  0  0  0  0  0  0  0  0  0  0  0
    3.5640  -18.8590  -39.1820 N   0  0  0  0  0  0  0  0  0  0  0  0
    4.2710  -19.2140  -37.9680 C   0  0  2  0  0  3  0  0  0  0  0  0
    4.4350  -20.6890  -38.1580 C   0  0  0  0  0  2  0  0  0  0  0  0
    4.7900  -20.7670  -39.6480 C   0  0  0  0  0  2  0  0  0  0  0  0
    4.3180  -19.4420  -40.2560 C   0  0  0  0  0  2  0  0  0  0  0  0
    3.4940  -18.8280  -36.7630 C   0  0  0  0  0  0  0  0  0  0  0  0
    3.8360  -19.2790  -35.6170 O   0  0  0  0  0  0  0  0  0  0  0  0
    1.8780  -15.0930  -37.6070 N   0  0  0  0  0  0  0  0  0  0  0  0
    1.9910  -13.7760  -37.0940 C   0  0  0  0  0  0  0  0  0  0  0  0
    1.3790  -13.4640  -36.0510 O   0  0  0  0  0  0  0  0  0  0  0  0
    2.3750  -15.3980  -38.4820 H   0  0  0  0  0  0  0  0  0  0  0  0
    2.8210  -12.7590  -37.7680 C   0  0  0  0  0  0  0  0  0  0  0  0
    3.0060  -12.8400  -39.1300 C   0  0  0  0  0  3  0  0  0  0  0  0
    3.7760  -11.9070  -39.7900 C   0  0  0  0  0  3  0  0  0  0  0  0
    4.3880  -10.8580  -39.1260 C   0  0  0  0  0  0  0  0  0  0  0  0
    5.4330   -9.6090  -40.1010 Br  0  0  0  0  0  0  0  0  0  0  0  0
    4.2020  -10.7750  -37.7590 C   0  0  0  0  0  3  0  0  0  0  0  0
    3.4210  -11.7290  -37.1090 C   0  0  0  0  0  3  0  0  0  0  0  0
  1 15  1  6  0  0  0
  1  2  1  0  0  0  0
  3 13  1  0  0  0  0
  3  2  1  0  0  0  0
  4  5  1  6  0  0  0
  4  3  1  0  0  0  0
  5  1  1  0  0  0  0
  6  4  1  0  0  0  0
  7  6  2  0  0  0  0
  8  6  1  0  0  0  0
  8  9  1  0  0  0  0
  9 10  1  6  0  0  0
  9 13  1  0  0  0  0
 11 10  1  0  0  0  0
 12 11  1  0  0  0  0
 12  8  1  0  0  0  0
 13 14  2  0  0  0  0
 15 16  1  0  0  0  0
 16 17  2  0  0  0  0
 18 15  1  0  0  0  0
 19 25  1  0  0  0  0
 19 16  1  0  0  0  0
 20 19  2  0  0  0  0
 21 20  1  0  0  0  0
 21 22  2  0  0  0  0
 22 24  1  0  0  0  0
 23 22  1  0  0  0  0
 24 25  2  0  0  0  0
M  END
>  <Pose>
1

>  <Score>
-7.284

$$$$
