MODEL 1
REMARK VINA RESULT:    -7.284      0.000      0.000
REMARK INTER + INTRA:          -8.592
REMARK INTER:                  -8.135
REMARK INTRA:                  -0.457
REMARK UNBOUND:                -0.457
REMARK  2 active torsions:
REMARK  status: ('A' for Active; 'I' for Inactive)
REMARK    1  A    between atoms: C_5  and  C_8 
REMARK       I    between atoms: C_8  and  N_10 
REMARK    2  A    between atoms: N_10  and  C_11 
ROOT
ATOM      1  C   UNK d   1       1.065 -16.048 -36.928  0.00  0.00     0.105 C 
ATOM      2  C   UNK d   1       1.841 -16.917 -35.965  0.00  0.00     0.152 C 
ATOM      3  N   UNK d   1       2.366 -17.965 -36.822  0.00  0.00    -0.335 N 
ATOM      4  C   UNK d   1       1.498 -18.114 -37.973  0.00  0.00     0.181 C 
ATOM      5  C   UNK d   1       0.504 -17.002 -37.954  0.00  0.00     0.061 C 
ATOM      6  C   UNK d   1       2.376 -18.091 -39.171  0.00  0.00     0.243 C 
ATOM      7  O   UNK d   1       2.129 -17.418 -40.199  0.00  0.00    -0.271 OA
ATOM      8  N   UNK d   1       3.564 -18.859 -39.182  0.00  0.00    -0.337 N 
ATOM      9  C   UNK d   1       4.271 -19.214 -37.968  0.00  0.00     0.179 C 
ATOM     10  C   UNK d   1       4.435 -20.689 -38.158  0.00  0.00     0.037 C 
ATOM     11  C   UNK d   1       4.790 -20.767 -39.648  0.00  0.00     0.022 C 
ATOM     12  C   UNK d   1       4.318 -19.442 -40.256  0.00  0.00     0.127 C 
ATOM     13  C   UNK d   1       3.494 -18.828 -36.763  0.00  0.00     0.243 C 
ATOM     14  O   UNK d   1       3.836 -19.279 -35.617  0.00  0.00    -0.271 OA
ENDROOT
BRANCH   1  15
ATOM     15  N   UNK d   1       1.878 -15.093 -37.607  0.00  0.00    -0.351 N 
ATOM     16  C   UNK d   1       1.991 -13.776 -37.094  0.00  0.00     0.252 C 
ATOM     17  O   UNK d   1       1.379 -13.464 -36.051  0.00  0.00    -0.268 OA
ATOM     18  H   UNK d   1       2.375 -15.398 -38.482  0.00  0.00     0.163 HD
BRANCH  16  19
ATOM     19  C   UNK d   1       2.821 -12.759 -37.768  0.00  0.00     0.032 A 
ATOM     20  C   UNK d   1       3.006 -12.840 -39.130  0.00  0.00     0.018 A 
ATOM     21  C   UNK d   1       3.776 -11.907 -39.790  0.00  0.00     0.020 A 
ATOM     22  C   UNK d   1       4.388 -10.858 -39.126  0.00  0.00     0.011 A 
ATOM     23 Br   UNK d   1       5.433  -9.609 -40.101  0.00  0.00    -0.051 Br
ATOM     24  C   UNK d   1       4.202 -10.775 -37.759  0.00  0.00     0.020 A 
ATOM     25  C   UNK d   1       3.421 -11.729 -37.109  0.00  0.00     0.018 A 
ENDBRANCH  16  19
ENDBRANCH   1  15
TORSDOF 2
ENDMDL
