MODEL 1
REMARK VINA RESULT:    -6.494      0.000      0.000
REMARK INTER + INTRA:          -7.752
REMARK INTER:                  -7.254
REMARK INTRA:                  -0.498
REMARK UNBOUND:                -0.498
REMARK  2 active torsions:
REMARK  status: ('A' for Active; 'I' for Inactive)
REMARK    1  A    between atoms: C_5  and  C_8 
REMARK       I    between atoms: C_8  and  N_10 
REMARK    2  A    between atoms: N_10  and  N_11 
ROOT
ATOM      1  N   UNK d   1       2.431 -18.282 -37.548  0.00  0.00    -0.187 N 
ATOM      2  C   UNK d   1       1.902 -19.264 -38.431  0.00  0.00     0.251 C 
ATOM      3  O   UNK d   1       0.877 -19.027 -39.156  0.00  0.00    -0.271 OA
ATOM      4  C   UNK d   1       2.700 -20.516 -38.358  0.00  0.00     0.101 C 
ATOM      5  C   UNK d   1       3.850 -20.103 -37.460  0.00  0.00     0.101 C 
ATOM      6  C   UNK d   1       4.922 -19.817 -38.490  0.00  0.00     0.022 C 
ATOM      7  C   UNK d   1       4.791 -21.136 -39.279  0.00  0.00     0.018 C 
ATOM      8  C   UNK d   1       3.335 -20.836 -39.682  0.00  0.00     0.022 C 
ATOM      9  C   UNK d   1       3.582 -19.511 -40.353  0.00  0.00    -0.025 C 
ATOM     10  C   UNK d   1       4.424 -18.885 -39.540  0.00  0.00    -0.025 C 
ATOM     11  C   UNK d   1       3.422 -18.889 -36.743  0.00  0.00     0.251 C 
ATOM     12  O   UNK d   1       3.864 -18.498 -35.642  0.00  0.00    -0.271 OA
ENDROOT
BRANCH   1  13
ATOM     13  N   UNK d   1       2.086 -16.910 -37.426  0.00  0.00    -0.254 N 
ATOM     14  C   UNK d   1       1.035 -16.488 -36.585  0.00  0.00     0.270 C 
ATOM     15  O   UNK d   1       0.354 -17.316 -35.897  0.00  0.00    -0.266 OA
ATOM     16  H   UNK d   1       2.629 -16.214 -37.967  0.00  0.00     0.191 HD
BRANCH  14  17
ATOM     17  C   UNK d   1       0.698 -15.089 -36.476  0.00  0.00     0.033 A 
ATOM     18  C   UNK d   1      -0.643 -14.719 -36.451  0.00  0.00     0.018 A 
ATOM     19  C   UNK d   1      -1.013 -13.393 -36.359  0.00  0.00     0.020 A 
ATOM     20  C   UNK d   1      -0.067 -12.413 -36.291  0.00  0.00     0.011 A 
ATOM     21 Br   UNK d   1      -0.605 -10.582 -36.169  0.00  0.00    -0.051 Br
ATOM     22  C   UNK d   1       1.282 -12.767 -36.315  0.00  0.00     0.020 A 
ATOM     23  C   UNK d   1       1.638 -14.087 -36.406  0.00  0.00     0.018 A 
ENDBRANCH  14  17
ENDBRANCH   1  13
TORSDOF 2
ENDMDL
