MODEL 1
REMARK VINA RESULT:    -6.435      0.000      0.000
REMARK INTER + INTRA:         -10.502
REMARK INTER:                  -9.068
REMARK INTRA:                  -1.433
REMARK UNBOUND:                -1.433
REMARK  7 active torsions:
REMARK  status: ('A' for Active; 'I' for Inactive)
REMARK    1  A    between atoms: C_5  and  C_8 
REMARK    2  A    between atoms: C_8  and  C_9 
REMARK    3  A    between atoms: C_10  and  C_24 
REMARK    4  A    between atoms: N_11  and  C_16 
REMARK    5  A    between atoms: C_16  and  C_17 
REMARK    6  A    between atoms: C_17  and  C_18 
REMARK    7  A    between atoms: C_18  and  N_19 
ROOT
ATOM      1  C   UNK d   1       2.058 -16.212 -40.131  0.00  0.00     0.064 C 
ATOM      2  C   UNK d   1       2.406 -17.217 -39.076  0.00  0.00     0.180 C 
ATOM      3  N   UNK d   1       2.219 -18.462 -39.811  0.00  0.00    -0.331 N 
ATOM      4  C   UNK d   1       2.750 -18.184 -41.122  0.00  0.00     0.295 C 
ATOM      5  O   UNK d   1       3.199 -19.046 -41.895  0.00  0.00    -0.264 OA
ATOM      6  C   UNK d   1       2.657 -16.734 -41.350  0.00  0.00     0.251 C 
ATOM      7  O   UNK d   1       3.017 -16.084 -42.367  0.00  0.00    -0.282 OA
ENDROOT
BRANCH   1   8
ATOM      8  C   UNK d   1       1.397 -15.091 -40.003  0.00  0.00     0.130 C 
ATOM      9  O   UNK d   1       0.083 -15.020 -40.507  0.00  0.00    -0.190 OA
BRANCH   8  10
ATOM     10  C   UNK d   1       2.017 -13.950 -39.351  0.00  0.00     0.001 A 
ATOM     11  C   UNK d   1       3.011 -13.227 -40.024  0.00  0.00     0.015 A 
ATOM     12  C   UNK d   1       3.637 -12.159 -39.421  0.00  0.00     0.020 A 
ATOM     13  C   UNK d   1       3.327 -11.747 -38.142  0.00  0.00     0.011 A 
ATOM     14 Br   UNK d   1       4.179 -10.273 -37.286  0.00  0.00    -0.051 Br
ATOM     15  C   UNK d   1       2.351 -12.445 -37.463  0.00  0.00     0.020 A 
ATOM     16  C   UNK d   1       1.719 -13.525 -38.074  0.00  0.00     0.015 A 
ENDBRANCH   8  10
ENDBRANCH   1   8
BRANCH   2  17
ATOM     17  C   UNK d   1       1.498 -17.091 -37.909  0.00  0.00     0.061 A 
ATOM     18  N   UNK d   1       0.184 -17.276 -38.113  0.00  0.00    -0.263 NA
ATOM     19  C   UNK d   1      -0.726 -17.199 -37.139  0.00  0.00     0.117 A 
ATOM     20  C   UNK d   1      -0.289 -16.915 -35.866  0.00  0.00     0.019 A 
ATOM     21  C   UNK d   1       1.047 -16.717 -35.612  0.00  0.00     0.003 A 
ATOM     22  C   UNK d   1       1.941 -16.808 -36.647  0.00  0.00     0.029 A 
ENDBRANCH   2  17
BRANCH   3  23
ATOM     23  C   UNK d   1       1.646 -19.681 -39.321  0.00  0.00     0.129 C 
BRANCH  23  24
ATOM     24  C   UNK d   1       2.521 -20.340 -38.266  0.00  0.00     0.040 C 
BRANCH  24  25
ATOM     25  C   UNK d   1       3.690 -21.010 -38.987  0.00  0.00     0.131 C 
BRANCH  25  26
ATOM     26  N   UNK d   1       4.965 -20.476 -38.549  0.00  0.00    -0.352 N 
ATOM     27  C   UNK d   1       5.199 -19.274 -37.972  0.00  0.00     0.182 A 
ATOM     28  N   UNK d   1       6.513 -19.162 -37.717  0.00  0.00    -0.361 N 
ATOM     29  C   UNK d   1       7.145 -20.275 -38.118  0.00  0.00     0.106 A 
ATOM     30  H   UNK d   1       6.997 -18.334 -37.269  0.00  0.00     0.166 HD
ATOM     31  C   UNK d   1       6.156 -21.086 -38.637  0.00  0.00     0.108 A 
ENDBRANCH  25  26
ENDBRANCH  24  25
ENDBRANCH  23  24
ENDBRANCH   3  23
TORSDOF 7
ENDMDL
