/Users/jonathanwahrer/Desktop/Msc/3_Semester/Drug_Design_Praktikum/waehrer_HTS_screening/HTS_experiment/out/docking_results/vina_output/6y4q/0263_docked.pdbqt
 OpenBabel03232217273D

 34 37  0  0  1  0  0  0  0  0999 V2000
    1.3550  -16.6570  -38.6480 C   0  0  0  0  0  0  0  0  0  0  0  0
    1.9910  -17.6350  -38.0590 C   0  0  0  0  0  0  0  0  0  0  0  0
    2.4580  -18.9250  -38.6840 C   0  0  2  0  0  3  0  0  0  0  0  0
    3.6420  -19.2310  -37.9580 N   0  0  0  0  0  0  0  0  0  0  0  0
    3.4800  -18.6810  -36.6280 C   0  0  0  0  0  0  0  0  0  0  0  0
    4.1080  -18.9980  -35.5900 O   0  0  0  0  0  0  0  0  0  0  0  0
    2.4340  -17.6650  -36.6840 C   0  0  0  0  0  0  0  0  0  0  0  0
    2.0290  -16.9680  -35.6930 O   0  0  0  0  0  0  0  0  0  0  0  0
    1.0630  -16.7860  -40.0240 O   0  0  0  0  0  1  0  0  0  0  0  0
    0.9580  -15.4680  -37.9130 C   0  0  0  0  0  0  0  0  0  0  0  0
   -0.3260  -15.4940  -37.3710 C   0  0  0  0  0  3  0  0  0  0  0  0
   -0.7900  -14.4500  -36.6220 C   0  0  0  0  0  3  0  0  0  0  0  0
    0.0330  -13.3670  -36.4100 C   0  0  0  0  0  0  0  0  0  0  0  0
   -0.6530  -11.9150  -35.3510 Br  0  0  0  0  0  0  0  0  0  0  0  0
    1.3040  -13.3360  -36.9430 C   0  0  0  0  0  3  0  0  0  0  0  0
    1.7610  -14.3960  -37.6970 C   0  0  0  0  0  3  0  0  0  0  0  0
    2.5540  -18.8100  -40.1340 C   0  0  0  0  0  0  0  0  0  0  0  0
    3.5170  -18.1250  -40.8240 C   0  0  0  0  0  3  0  0  0  0  0  0
    3.5430  -18.0740  -42.1930 C   0  0  0  0  0  0  0  0  0  0  0  0
    2.5750  -18.7240  -42.9100 C   0  0  0  0  0  3  0  0  0  0  0  0
    1.5690  -19.4370  -42.2650 C   0  0  0  0  0  3  0  0  0  0  0  0
    1.5740  -19.4680  -40.8940 C   0  0  0  0  0  3  0  0  0  0  0  0
    4.5650  -17.3500  -42.8380 N   0  0  0  0  0  0  0  0  0  0  0  0
    4.3310  -16.3190  -43.5200 O   0  0  0  0  0  0  0  0  0  0  0  0
    5.8620  -17.7930  -42.7130 O   0  0  0  0  0  0  0  0  0  0  0  0
    4.8460  -19.9750  -38.2760 C   0  0  0  0  0  2  0  0  0  0  0  0
    4.6550  -21.4380  -38.5160 C   0  0  0  0  0  2  0  0  0  0  0  0
    5.0510  -21.8480  -39.8530 N   0  0  0  0  0  4  0  0  0  0  0  0
    5.7750  -20.7700  -40.5340 C   0  0  0  0  0  2  0  0  0  0  0  0
    6.2630  -21.3910  -41.8500 C   0  0  0  0  0  2  0  0  0  0  0  0
    5.2260  -21.8370  -42.6330 O   0  0  0  0  0  0  0  0  0  0  0  0
    4.3450  -22.6860  -41.9800 C   0  0  0  0  0  2  0  0  0  0  0  0
    3.8880  -22.1230  -40.6580 C   0  0  0  0  0  2  0  0  0  0  0  0
    5.6750  -22.6590  -39.8790 H   0  0  0  0  0  0  0  0  0  0  0  0
  1  2  2  0  0  0  0
  1 10  1  0  0  0  0
  2  7  1  0  0  0  0
  3 17  1  6  0  0  0
  3  2  1  0  0  0  0
  3  4  1  0  0  0  0
  4  5  1  0  0  0  0
  5  6  2  0  0  0  0
  7  5  1  0  0  0  0
  7  8  2  0  0  0  0
  9  1  1  0  0  0  0
 10 16  2  0  0  0  0
 10 11  1  0  0  0  0
 11 12  2  0  0  0  0
 12 13  1  0  0  0  0
 13 14  1  0  0  0  0
 15 13  2  0  0  0  0
 16 15  1  0  0  0  0
 18 17  1  0  0  0  0
 19 18  2  0  0  0  0
 20 21  2  0  0  0  0
 20 19  1  0  0  0  0
 21 22  1  0  0  0  0
 22 17  2  0  0  0  0
 23 25  2  0  0  0  0
 23 19  1  0  0  0  0
 24 23  2  0  0  0  0
 26  4  1  0  0  0  0
 27 26  1  0  0  0  0
 28 27  1  0  0  0  0
 29 28  1  0  0  0  0
 30 29  1  0  0  0  0
 31 32  1  0  0  0  0
 31 30  1  0  0  0  0
 32 33  1  0  0  0  0
 33 28  1  0  0  0  0
 34 28  1  0  0  0  0
M  END
>  <Pose>
1

>  <Score>
-6.527

$$$$
