MODEL 1
REMARK VINA RESULT:    -6.527      0.000      0.000
REMARK INTER + INTRA:          -9.386
REMARK INTER:                  -8.817
REMARK INTRA:                  -0.569
REMARK UNBOUND:                -0.569
REMARK  6 active torsions:
REMARK  status: ('A' for Active; 'I' for Inactive)
REMARK    1  A    between atoms: C_5  and  C_8 
REMARK    2  A    between atoms: C_10  and  C_24 
REMARK    3  A    between atoms: N_11  and  C_16 
REMARK    4  A    between atoms: C_16  and  C_17 
REMARK    5  A    between atoms: C_17  and  N_18 
REMARK    6  A    between atoms: C_26  and  N_30 
ROOT
ATOM      1  C   UNK d   1       1.355 -16.657 -38.648  0.00  0.00     0.130 C 
ATOM      2  C   UNK d   1       1.991 -17.635 -38.059  0.00  0.00     0.062 C 
ATOM      3  C   UNK d   1       2.458 -18.925 -38.684  0.00  0.00     0.161 C 
ATOM      4  N   UNK d   1       3.642 -19.231 -37.958  0.00  0.00    -0.331 N 
ATOM      5  C   UNK d   1       3.480 -18.681 -36.628  0.00  0.00     0.295 C 
ATOM      6  O   UNK d   1       4.108 -18.998 -35.590  0.00  0.00    -0.264 OA
ATOM      7  C   UNK d   1       2.434 -17.665 -36.684  0.00  0.00     0.250 C 
ATOM      8  O   UNK d   1       2.029 -16.968 -35.693  0.00  0.00    -0.282 OA
ATOM      9  O   UNK d   1       1.063 -16.786 -40.024  0.00  0.00    -0.190 OA
ENDROOT
BRANCH   1  10
ATOM     10  C   UNK d   1       0.958 -15.468 -37.913  0.00  0.00     0.001 A 
ATOM     11  C   UNK d   1      -0.326 -15.494 -37.371  0.00  0.00     0.015 A 
ATOM     12  C   UNK d   1      -0.790 -14.450 -36.622  0.00  0.00     0.020 A 
ATOM     13  C   UNK d   1       0.033 -13.367 -36.410  0.00  0.00     0.011 A 
ATOM     14 Br   UNK d   1      -0.653 -11.915 -35.351  0.00  0.00    -0.051 Br
ATOM     15  C   UNK d   1       1.304 -13.336 -36.943  0.00  0.00     0.020 A 
ATOM     16  C   UNK d   1       1.761 -14.396 -37.697  0.00  0.00     0.015 A 
ENDBRANCH   1  10
BRANCH   3  17
ATOM     17  C   UNK d   1       2.554 -18.810 -40.134  0.00  0.00    -0.028 A 
ATOM     18  C   UNK d   1       3.517 -18.125 -40.824  0.00  0.00     0.045 A 
ATOM     19  C   UNK d   1       3.543 -18.074 -42.193  0.00  0.00     0.103 A 
ATOM     20  C   UNK d   1       2.575 -18.724 -42.910  0.00  0.00     0.036 A 
ATOM     21  C   UNK d   1       1.569 -19.437 -42.265  0.00  0.00     0.003 A 
ATOM     22  C   UNK d   1       1.574 -19.468 -40.894  0.00  0.00     0.010 A 
BRANCH  19  23
ATOM     23  N   UNK d   1       4.565 -17.350 -42.838  0.00  0.00    -0.116 N 
ATOM     24  O   UNK d   1       4.331 -16.319 -43.520  0.00  0.00    -0.532 OA
ATOM     25  O   UNK d   1       5.862 -17.793 -42.713  0.00  0.00    -0.532 OA
ENDBRANCH  19  23
ENDBRANCH   3  17
BRANCH   4  26
ATOM     26  C   UNK d   1       4.846 -19.975 -38.276  0.00  0.00     0.155 C 
BRANCH  26  27
ATOM     27  C   UNK d   1       4.655 -21.438 -38.516  0.00  0.00     0.255 C 
BRANCH  27  28
ATOM     28  N   UNK d   1       5.051 -21.848 -39.853  0.00  0.00    -0.066 N 
ATOM     29  C   UNK d   1       5.775 -20.770 -40.534  0.00  0.00     0.261 C 
ATOM     30  C   UNK d   1       6.263 -21.391 -41.850  0.00  0.00     0.195 C 
ATOM     31  O   UNK d   1       5.226 -21.837 -42.633  0.00  0.00    -0.388 OA
ATOM     32  C   UNK d   1       4.345 -22.686 -41.980  0.00  0.00     0.195 C 
ATOM     33  C   UNK d   1       3.888 -22.123 -40.658  0.00  0.00     0.261 C 
ATOM     34  H   UNK d   1       5.675 -22.659 -39.879  0.00  0.00     0.280 HD
ENDBRANCH  27  28
ENDBRANCH  26  27
ENDBRANCH   4  26
TORSDOF 6
ENDMDL
