MODEL 1
REMARK VINA RESULT:    -6.273      0.000      0.000
REMARK INTER + INTRA:         -10.300
REMARK INTER:                  -8.841
REMARK INTRA:                  -1.460
REMARK UNBOUND:                -1.460
REMARK  7 active torsions:
REMARK  status: ('A' for Active; 'I' for Inactive)
REMARK    1  A    between atoms: C_5  and  C_8 
REMARK    2  A    between atoms: C_10  and  C_24 
REMARK    3  A    between atoms: N_11  and  C_16 
REMARK    4  A    between atoms: C_16  and  C_17 
REMARK    5  A    between atoms: C_17  and  N_18 
REMARK    6  A    between atoms: C_27  and  C_30 
REMARK    7  A    between atoms: C_30  and  O_32 
ROOT
ATOM      1  C   UNK d   1       2.517 -18.481 -37.847  0.00  0.00     0.130 C 
ATOM      2  C   UNK d   1       1.242 -18.218 -38.035  0.00  0.00     0.062 A 
ATOM      3  C   UNK d   1       0.387 -17.328 -37.170  0.00  0.00     0.161 A 
ATOM      4  N   UNK d   1      -0.929 -17.408 -37.702  0.00  0.00    -0.331 N 
ATOM      5  C   UNK d   1      -0.950 -18.173 -38.925  0.00  0.00     0.295 A 
ATOM      6  O   UNK d   1      -1.903 -18.390 -39.687  0.00  0.00    -0.264 OA
ATOM      7  C   UNK d   1       0.425 -18.681 -39.132  0.00  0.00     0.250 A 
ATOM      8  O   UNK d   1       0.795 -19.398 -40.117  0.00  0.00    -0.282 OA
ATOM      9  O   UNK d   1       3.112 -17.854 -36.728  0.00  0.00    -0.190 OA
ENDROOT
BRANCH   3  10
ATOM     10  C   UNK d   1       0.970 -15.963 -37.347  0.00  0.00    -0.030 A 
ATOM     11  C   UNK d   1       1.074 -15.161 -36.254  0.00  0.00     0.011 A 
ATOM     12  C   UNK d   1       1.600 -13.890 -36.361  0.00  0.00     0.018 A 
ATOM     13  C   UNK d   1       2.023 -13.427 -37.577  0.00  0.00     0.039 A 
ATOM     14  C   UNK d   1       1.919 -14.237 -38.677  0.00  0.00     0.018 A 
ATOM     15  C   UNK d   1       1.392 -15.515 -38.577  0.00  0.00     0.011 A 
BRANCH  13  16
ATOM     16  C   UNK d   1       2.581 -12.078 -37.704  0.00  0.00     0.292 C 
ATOM     17  O   UNK d   1       2.028 -11.251 -38.473  0.00  0.00    -0.259 OA
BRANCH  16  18
ATOM     18  O   UNK d   1       3.690 -11.660 -37.021  0.00  0.00    -0.323 OA
ATOM     19  C   UNK d   1       4.226 -10.362 -37.147  0.00  0.00     0.213 C 
ENDBRANCH  16  18
ENDBRANCH  13  16
ENDBRANCH   3  10
BRANCH   4  20
ATOM     20  C   UNK d   1      -2.135 -16.830 -37.173  0.00  0.00     0.155 C 
BRANCH  20  21
ATOM     21  C   UNK d   1      -2.672 -15.667 -37.935  0.00  0.00     0.255 C 
BRANCH  21  22
ATOM     22  N   UNK d   1      -2.305 -14.378 -37.429  0.00  0.00    -0.066 N 
ATOM     23  C   UNK d   1      -3.365 -13.705 -36.707  0.00  0.00     0.261 C 
ATOM     24  C   UNK d   1      -2.760 -12.465 -36.080  0.00  0.00     0.195 C 
ATOM     25  O   UNK d   1      -2.435 -11.610 -37.160  0.00  0.00    -0.388 OA
ATOM     26  C   UNK d   1      -1.374 -12.228 -37.826  0.00  0.00     0.195 C 
ATOM     27  C   UNK d   1      -1.924 -13.462 -38.522  0.00  0.00     0.261 C 
ATOM     28  H   UNK d   1      -1.429 -14.419 -36.843  0.00  0.00     0.280 HD
ENDBRANCH  21  22
ENDBRANCH  20  21
ENDBRANCH   4  20
BRANCH   1  29
ATOM     29  C   UNK d   1       3.299 -19.354 -38.710  0.00  0.00     0.001 A 
ATOM     30  C   UNK d   1       3.914 -18.842 -39.860  0.00  0.00     0.015 A 
ATOM     31  C   UNK d   1       4.695 -19.611 -40.696  0.00  0.00     0.020 A 
ATOM     32  C   UNK d   1       4.907 -20.945 -40.425  0.00  0.00     0.011 A 
ATOM     33 Br   UNK d   1       5.992 -21.991 -41.603  0.00  0.00    -0.051 Br
ATOM     34  C   UNK d   1       4.315 -21.472 -39.302  0.00  0.00     0.020 A 
ATOM     35  C   UNK d   1       3.522 -20.686 -38.456  0.00  0.00     0.015 A 
ENDBRANCH   1  29
TORSDOF 7
ENDMDL
