MODEL 1
REMARK VINA RESULT:    -6.588      0.000      0.000
REMARK INTER + INTRA:          -9.450
REMARK INTER:                  -8.514
REMARK INTRA:                  -0.936
REMARK UNBOUND:                -0.936
REMARK  5 active torsions:
REMARK  status: ('A' for Active; 'I' for Inactive)
REMARK    1  A    between atoms: C_5  and  C_8 
REMARK    2  A    between atoms: C_10  and  C_24 
REMARK    3  A    between atoms: N_11  and  C_16 
REMARK    4  A    between atoms: C_16  and  C_17 
REMARK    5  A    between atoms: C_17  and  N_18 
ROOT
ATOM      1  C   UNK d   1       1.955 -18.030 -39.581  0.00  0.00     0.130 C 
ATOM      2  C   UNK d   1       1.964 -17.573 -38.344  0.00  0.00     0.062 C 
ATOM      3  C   UNK d   1       1.079 -16.569 -37.687  0.00  0.00     0.161 C 
ATOM      4  N   UNK d   1       0.992 -17.065 -36.303  0.00  0.00    -0.331 N 
ATOM      5  C   UNK d   1       2.267 -17.613 -36.034  0.00  0.00     0.295 C 
ATOM      6  O   UNK d   1       2.742 -17.777 -34.903  0.00  0.00    -0.264 OA
ATOM      7  C   UNK d   1       2.914 -17.946 -37.298  0.00  0.00     0.250 C 
ATOM      8  O   UNK d   1       4.043 -18.445 -37.532  0.00  0.00    -0.282 OA
ATOM      9  O   UNK d   1       0.977 -17.513 -40.455  0.00  0.00    -0.190 OA
ENDROOT
BRANCH   1  10
ATOM     10  C   UNK d   1       2.875 -19.023 -40.108  0.00  0.00     0.001 A 
ATOM     11  C   UNK d   1       3.989 -18.660 -40.831  0.00  0.00     0.015 A 
ATOM     12  C   UNK d   1       4.855 -19.605 -41.360  0.00  0.00     0.020 A 
ATOM     13  C   UNK d   1       4.628 -20.950 -41.179  0.00  0.00     0.011 A 
ATOM     14 Br   UNK d   1       5.820 -22.265 -41.906  0.00  0.00    -0.051 Br
ATOM     15  C   UNK d   1       3.519 -21.327 -40.460  0.00  0.00     0.020 A 
ATOM     16  C   UNK d   1       2.650 -20.369 -39.929  0.00  0.00     0.015 A 
ENDBRANCH   1  10
BRANCH   3  17
ATOM     17  C   UNK d   1       1.569 -15.191 -37.770  0.00  0.00    -0.031 A 
ATOM     18  C   UNK d   1       1.539 -14.349 -36.652  0.00  0.00     0.009 A 
ATOM     19  C   UNK d   1       1.979 -13.061 -36.664  0.00  0.00     0.001 A 
ATOM     20  C   UNK d   1       2.489 -12.519 -37.829  0.00  0.00     0.000 A 
ATOM     21  C   UNK d   1       2.531 -13.316 -38.937  0.00  0.00     0.001 A 
ATOM     22  C   UNK d   1       2.079 -14.639 -38.923  0.00  0.00     0.009 A 
ENDBRANCH   3  17
BRANCH   4  23
ATOM     23  C   UNK d   1      -0.184 -16.945 -35.521  0.00  0.00     0.155 C 
BRANCH  23  24
ATOM     24  C   UNK d   1      -1.493 -17.100 -36.178  0.00  0.00     0.255 C 
BRANCH  24  25
ATOM     25  N   UNK d   1      -2.082 -18.403 -36.125  0.00  0.00    -0.066 N 
ATOM     26  C   UNK d   1      -1.514 -19.378 -36.988  0.00  0.00     0.261 C 
ATOM     27  C   UNK d   1      -2.464 -19.627 -38.139  0.00  0.00     0.195 C 
ATOM     28  O   UNK d   1      -3.057 -18.454 -38.598  0.00  0.00    -0.388 OA
ATOM     29  C   UNK d   1      -3.921 -17.900 -37.672  0.00  0.00     0.195 C 
ATOM     30  C   UNK d   1      -3.518 -18.385 -36.298  0.00  0.00     0.261 C 
ATOM     31  H   UNK d   1      -1.921 -18.735 -35.125  0.00  0.00     0.280 HD
ENDBRANCH  24  25
ENDBRANCH  23  24
ENDBRANCH   4  23
TORSDOF 5
ENDMDL
