/Users/jonathanwahrer/Desktop/Msc/3_Semester/Drug_Design_Praktikum/waehrer_HTS_screening/HTS_experiment/out/docking_results/vina_output/6y4q/0274_docked.pdbqt
 OpenBabel03232217273D

 31 34  0  0  1  0  0  0  0  0999 V2000
    1.9550  -18.0300  -39.5810 C   0  0  0  0  0  0  0  0  0  0  0  0
    1.9640  -17.5730  -38.3440 C   0  0  0  0  0  0  0  0  0  0  0  0
    1.0790  -16.5690  -37.6870 C   0  0  1  0  0  3  0  0  0  0  0  0
    0.9920  -17.0650  -36.3030 N   0  0  0  0  0  0  0  0  0  0  0  0
    2.2670  -17.6130  -36.0340 C   0  0  0  0  0  0  0  0  0  0  0  0
    2.7420  -17.7770  -34.9030 O   0  0  0  0  0  0  0  0  0  0  0  0
    2.9140  -17.9460  -37.2980 C   0  0  0  0  0  0  0  0  0  0  0  0
    4.0430  -18.4450  -37.5320 O   0  0  0  0  0  0  0  0  0  0  0  0
    0.9770  -17.5130  -40.4550 O   0  0  0  0  0  1  0  0  0  0  0  0
    2.8750  -19.0230  -40.1080 C   0  0  0  0  0  0  0  0  0  0  0  0
    3.9890  -18.6600  -40.8310 C   0  0  0  0  0  3  0  0  0  0  0  0
    4.8550  -19.6050  -41.3600 C   0  0  0  0  0  3  0  0  0  0  0  0
    4.6280  -20.9500  -41.1790 C   0  0  0  0  0  0  0  0  0  0  0  0
    5.8200  -22.2650  -41.9060 Br  0  0  0  0  0  0  0  0  0  0  0  0
    3.5190  -21.3270  -40.4600 C   0  0  0  0  0  3  0  0  0  0  0  0
    2.6500  -20.3690  -39.9290 C   0  0  0  0  0  3  0  0  0  0  0  0
    1.5690  -15.1910  -37.7700 C   0  0  0  0  0  0  0  0  0  0  0  0
    1.5390  -14.3490  -36.6520 C   0  0  0  0  0  3  0  0  0  0  0  0
    1.9790  -13.0610  -36.6640 C   0  0  0  0  0  3  0  0  0  0  0  0
    2.4890  -12.5190  -37.8290 C   0  0  0  0  0  3  0  0  0  0  0  0
    2.5310  -13.3160  -38.9370 C   0  0  0  0  0  3  0  0  0  0  0  0
    2.0790  -14.6390  -38.9230 C   0  0  0  0  0  3  0  0  0  0  0  0
   -0.1840  -16.9450  -35.5210 C   0  0  0  0  0  2  0  0  0  0  0  0
   -1.4930  -17.1000  -36.1780 C   0  0  0  0  0  2  0  0  0  0  0  0
   -2.0820  -18.4030  -36.1250 N   0  0  0  0  0  4  0  0  0  0  0  0
   -1.5140  -19.3780  -36.9880 C   0  0  0  0  0  2  0  0  0  0  0  0
   -2.4640  -19.6270  -38.1390 C   0  0  0  0  0  2  0  0  0  0  0  0
   -3.0570  -18.4540  -38.5980 O   0  0  0  0  0  0  0  0  0  0  0  0
   -3.9210  -17.9000  -37.6720 C   0  0  0  0  0  2  0  0  0  0  0  0
   -3.5180  -18.3850  -36.2980 C   0  0  0  0  0  2  0  0  0  0  0  0
   -1.9210  -18.7350  -35.1250 H   0  0  0  0  0  0  0  0  0  0  0  0
  1  2  2  0  0  0  0
  2  3  1  0  0  0  0
  2  7  1  0  0  0  0
  3 17  1  1  0  0  0
  3  4  1  0  0  0  0
  4  5  1  0  0  0  0
  4 23  1  0  0  0  0
  5  6  2  0  0  0  0
  7  5  1  0  0  0  0
  8  7  2  0  0  0  0
  9  1  1  0  0  0  0
 10 16  1  0  0  0  0
 10  1  1  0  0  0  0
 11 10  2  0  0  0  0
 12 13  2  0  0  0  0
 12 11  1  0  0  0  0
 13 15  1  0  0  0  0
 14 13  1  0  0  0  0
 15 16  2  0  0  0  0
 17 18  1  0  0  0  0
 19 18  2  0  0  0  0
 20 19  1  0  0  0  0
 21 22  1  0  0  0  0
 21 20  2  0  0  0  0
 22 17  2  0  0  0  0
 24 25  1  0  0  0  0
 24 23  1  0  0  0  0
 25 31  1  0  0  0  0
 26 25  1  0  0  0  0
 27 26  1  0  0  0  0
 28 27  1  0  0  0  0
 28 29  1  0  0  0  0
 29 30  1  0  0  0  0
 30 25  1  0  0  0  0
M  END
>  <Pose>
1

>  <Score>
-6.588

$$$$
