MODEL 1
REMARK VINA RESULT:    -7.141      0.000      0.000
REMARK INTER + INTRA:         -10.487
REMARK INTER:                  -9.645
REMARK INTRA:                  -0.841
REMARK UNBOUND:                -0.841
REMARK  7 active torsions:
REMARK  status: ('A' for Active; 'I' for Inactive)
REMARK    1  A    between atoms: C_5  and  C_8 
REMARK    2  A    between atoms: C_8  and  O_9 
REMARK    3  A    between atoms: C_8  and  C_10 
REMARK    4  A    between atoms: C_10  and  N_11 
REMARK    5  A    between atoms: N_18  and  C_21 
REMARK    6  A    between atoms: C_19  and  N_20 
REMARK    7  A    between atoms: C_21  and  C_22 
ROOT
ATOM      1  N   UNK d   1       1.480 -15.901 -38.085  0.00  0.00    -0.178 N 
ATOM      2  C   UNK d   1       1.688 -16.365 -39.340  0.00  0.00     0.079 A 
ATOM      3  C   UNK d   1       2.097 -17.682 -39.202  0.00  0.00     0.079 A 
ATOM      4  C   UNK d   1       2.390 -18.408 -40.341  0.00  0.00     0.032 A 
ATOM      5  C   UNK d   1       2.284 -17.851 -41.622  0.00  0.00     0.002 A 
ATOM      6  C   UNK d   1       1.871 -16.529 -41.708  0.00  0.00     0.002 A 
ATOM      7  C   UNK d   1       1.574 -15.784 -40.594  0.00  0.00     0.032 A 
ATOM      8  N   UNK d   1       2.136 -18.021 -37.879  0.00  0.00    -0.177 N 
ATOM      9  C   UNK d   1       1.751 -16.896 -37.220  0.00  0.00     0.681 A 
ENDROOT
BRANCH   1  10
ATOM     10  C   UNK d   1       1.041 -14.559 -37.833  0.00  0.00     0.184 C 
BRANCH  10  11
ATOM     11  C   UNK d   1       1.940 -13.802 -36.903  0.00  0.00     0.170 C 
BRANCH  11  12
ATOM     12  C   UNK d   1       2.807 -12.831 -37.672  0.00  0.00    -0.028 A 
ATOM     13  C   UNK d   1       3.478 -11.834 -37.010  0.00  0.00     0.011 A 
ATOM     14  C   UNK d   1       4.267 -10.955 -37.704  0.00  0.00     0.019 A 
ATOM     15  C   UNK d   1       4.373 -11.089 -39.070  0.00  0.00     0.011 A 
ATOM     16 Br   UNK d   1       5.473  -9.866 -40.049  0.00  0.00    -0.051 Br
ATOM     17  C   UNK d   1       3.723 -12.070 -39.781  0.00  0.00     0.019 A 
ATOM     18  C   UNK d   1       2.937 -12.935 -39.036  0.00  0.00     0.011 A 
ENDBRANCH  11  12
BRANCH  11  19
ATOM     19  O   UNK d   1       1.274 -13.073 -35.938  0.00  0.00    -0.389 OA
ATOM     20  H   UNK d   1       1.613 -13.218 -35.033  0.00  0.00     0.210 HD
ENDBRANCH  11  19
ENDBRANCH  10  11
ENDBRANCH   1  10
BRANCH   9  21
ATOM     21  N   UNK d   1       1.666 -16.825 -35.934  0.00  0.00    -0.234 N 
ATOM     22  H   UNK d   1       1.003 -17.485 -35.426  0.00  0.00     0.174 HD
ATOM     23  H   UNK d   1       2.176 -16.183 -35.323  0.00  0.00     0.174 HD
ENDBRANCH   9  21
BRANCH   8  24
ATOM     24  C   UNK d   1       2.505 -19.317 -37.394  0.00  0.00     0.186 C 
BRANCH  24  25
ATOM     25  C   UNK d   1       3.922 -19.701 -37.718  0.00  0.00    -0.039 A 
ATOM     26  C   UNK d   1       4.165 -20.925 -38.317  0.00  0.00     0.009 A 
ATOM     27  C   UNK d   1       5.438 -21.348 -38.647  0.00  0.00     0.001 A 
ATOM     28  C   UNK d   1       6.480 -20.503 -38.358  0.00  0.00     0.000 A 
ATOM     29  C   UNK d   1       6.268 -19.286 -37.765  0.00  0.00     0.001 A 
ATOM     30  C   UNK d   1       4.994 -18.896 -37.451  0.00  0.00     0.009 A 
ENDBRANCH  24  25
ENDBRANCH   8  24
TORSDOF 7
ENDMDL
