MODEL 1
REMARK VINA RESULT:    -6.157      0.000      0.000
REMARK INTER + INTRA:          -9.341
REMARK INTER:                  -8.316
REMARK INTRA:                  -1.025
REMARK UNBOUND:                -1.025
REMARK  6 active torsions:
REMARK  status: ('A' for Active; 'I' for Inactive)
REMARK    1  A    between atoms: C_5  and  C_8 
REMARK    2  A    between atoms: C_8  and  N_9 
REMARK    3  A    between atoms: N_12  and  C_15 
REMARK    4  A    between atoms: N_16  and  C_27 
REMARK    5  A    between atoms: C_27  and  C_28 
REMARK    6  A    between atoms: C_28  and  O_29 
ROOT
ATOM      1  C   UNK d   1       2.788 -18.756 -39.397  0.00  0.00     0.707 A 
ATOM      2  N   UNK d   1       3.557 -19.717 -39.934  0.00  0.00    -0.170 N 
ATOM      3  C   UNK d   1       4.033 -19.292 -41.128  0.00  0.00     0.166 A 
ATOM      4  C   UNK d   1       3.554 -18.022 -41.365  0.00  0.00     0.185 A 
ATOM      5  N   UNK d   1       2.804 -17.722 -40.305  0.00  0.00    -0.044 NA
ATOM      6  N   UNK d   1       3.896 -17.386 -42.501  0.00  0.00    -0.286 N 
ATOM      7  C   UNK d   1       4.694 -17.951 -43.416  0.00  0.00     0.330 A 
ATOM      8  O   UNK d   1       4.997 -17.317 -44.477  0.00  0.00    -0.246 OA
ATOM      9  N   UNK d   1       5.172 -19.189 -43.204  0.00  0.00    -0.273 N 
ATOM     10  C   UNK d   1       4.851 -19.852 -42.084  0.00  0.00     0.280 A 
ATOM     11  O   UNK d   1       5.300 -21.007 -41.888  0.00  0.00    -0.265 OA
ATOM     12  C   UNK d   1       3.371 -16.033 -42.717  0.00  0.00     0.163 C 
ATOM     13  H   UNK d   1       5.805 -19.644 -43.925  0.00  0.00     0.173 HD
ENDROOT
BRANCH   1  14
ATOM     14  N   UNK d   1       2.134 -18.759 -38.153  0.00  0.00    -0.213 N 
ATOM     15  C   UNK d   1       0.824 -19.274 -37.952  0.00  0.00     0.160 C 
ATOM     16  C   UNK d   1      -0.046 -18.115 -37.477  0.00  0.00     0.137 C 
ATOM     17  N   UNK d   1       0.690 -16.942 -37.261  0.00  0.00    -0.405 N 
ATOM     18  C   UNK d   1       1.943 -16.974 -36.628  0.00  0.00     0.137 C 
ATOM     19  C   UNK d   1       2.788 -18.200 -36.995  0.00  0.00     0.160 C 
BRANCH  17  20
ATOM     20  C   UNK d   1       0.413 -15.854 -38.139  0.00  0.00     0.155 C 
BRANCH  20  21
ATOM     21  C   UNK d   1       1.271 -14.671 -37.940  0.00  0.00    -0.041 A 
ATOM     22  C   UNK d   1       2.028 -14.235 -38.998  0.00  0.00     0.010 A 
ATOM     23  C   UNK d   1       2.839 -13.119 -38.861  0.00  0.00     0.019 A 
ATOM     24  C   UNK d   1       2.900 -12.432 -37.666  0.00  0.00     0.011 A 
ATOM     25 Br   UNK d   1       4.024 -10.884 -37.482  0.00  0.00    -0.051 Br
ATOM     26  C   UNK d   1       2.134 -12.887 -36.618  0.00  0.00     0.019 A 
ATOM     27  C   UNK d   1       1.321 -13.997 -36.738  0.00  0.00     0.010 A 
ENDBRANCH  20  21
ENDBRANCH  17  20
ENDBRANCH   1  14
BRANCH   2  28
ATOM     28  C   UNK d   1       3.842 -21.029 -39.418  0.00  0.00     0.174 C 
BRANCH  28  29
ATOM     29  C   UNK d   1       4.849 -20.992 -38.291  0.00  0.00     0.187 C 
BRANCH  29  30
ATOM     30  O   UNK d   1       6.097 -20.540 -38.668  0.00  0.00    -0.394 OA
ATOM     31  C   UNK d   1       6.352 -19.403 -37.867  0.00  0.00     0.201 C 
ENDBRANCH  29  30
ENDBRANCH  28  29
ENDBRANCH   2  28
TORSDOF 6
ENDMDL
