MODEL 1
REMARK VINA RESULT:    -5.972      0.000      0.000
REMARK INTER + INTRA:          -7.906
REMARK INTER:                  -7.019
REMARK INTRA:                  -0.887
REMARK UNBOUND:                -0.887
REMARK  3 active torsions:
REMARK  status: ('A' for Active; 'I' for Inactive)
REMARK    1  A    between atoms: C_5  and  C_8 
REMARK    2  A    between atoms: C_16  and  C_17 
REMARK    3  A    between atoms: C_17  and  N_18 
ROOT
ATOM      1  C   UNK d   1       1.975 -16.956 -35.924  0.00  0.00     0.053 C 
ATOM      2  C   UNK d   1       2.410 -17.924 -36.738  0.00  0.00     0.127 A 
ATOM      3  O   UNK d   1       1.813 -18.228 -37.951  0.00  0.00    -0.305 OA
ATOM      4  C   UNK d   1       2.465 -19.275 -38.595  0.00  0.00     0.101 A 
ATOM      5  C   UNK d   1       3.503 -19.673 -37.808  0.00  0.00     0.051 A 
ATOM      6  C   UNK d   1       4.321 -20.706 -38.216  0.00  0.00     0.021 A 
ATOM      7  C   UNK d   1       4.044 -21.297 -39.421  0.00  0.00     0.041 A 
ATOM      8  C   UNK d   1       2.977 -20.888 -40.232  0.00  0.00     0.118 A 
ATOM      9  C   UNK d   1       2.151 -19.863 -39.844  0.00  0.00     0.039 A 
ATOM     10  O   UNK d   1       2.763 -21.543 -41.447  0.00  0.00    -0.191 OA
ATOM     11  C   UNK d   1       3.512 -18.837 -36.600  0.00  0.00     0.218 A 
ATOM     12  O   UNK d   1       4.304 -18.878 -35.624  0.00  0.00    -0.284 OA
ENDROOT
BRANCH   1  13
ATOM     13  C   UNK d   1       0.812 -16.161 -36.306  0.00  0.00    -0.033 A 
ATOM     14  C   UNK d   1       0.955 -14.823 -36.634  0.00  0.00     0.013 A 
ATOM     15  C   UNK d   1      -0.126 -14.041 -36.997  0.00  0.00     0.020 A 
ATOM     16  C   UNK d   1      -1.397 -14.566 -37.049  0.00  0.00     0.011 A 
ATOM     17 Br   UNK d   1      -2.899 -13.479 -37.557  0.00  0.00    -0.051 Br
ATOM     18  C   UNK d   1      -1.558 -15.897 -36.726  0.00  0.00     0.020 A 
ATOM     19  C   UNK d   1      -0.461 -16.682 -36.359  0.00  0.00     0.013 A 
ENDBRANCH   1  13
BRANCH   9  20
ATOM     20  C   UNK d   1       1.000 -19.329 -40.581  0.00  0.00     0.279 C 
BRANCH  20  21
ATOM     21  N   UNK d   1      -0.122 -20.163 -40.773  0.00  0.00    -0.063 N 
ATOM     22  C   UNK d   1      -0.638 -20.692 -39.528  0.00  0.00     0.261 C 
ATOM     23  C   UNK d   1      -1.618 -19.702 -38.925  0.00  0.00     0.195 C 
ATOM     24  O   UNK d   1      -2.820 -19.823 -39.604  0.00  0.00    -0.388 OA
ATOM     25  C   UNK d   1      -2.530 -20.106 -40.943  0.00  0.00     0.195 C 
ATOM     26  C   UNK d   1      -1.245 -19.407 -41.356  0.00  0.00     0.261 C 
ATOM     27  H   UNK d   1       0.063 -20.919 -41.463  0.00  0.00     0.280 HD
ENDBRANCH  20  21
ENDBRANCH   9  20
TORSDOF 3
ENDMDL
