/Users/jonathanwahrer/Desktop/Msc/3_Semester/Drug_Design_Praktikum/waehrer_HTS_screening/HTS_experiment/out/docking_results/vina_output/6y4q/0293_docked.pdbqt
 OpenBabel03232217283D

 27 30  0  0  0  0  0  0  0  0999 V2000
    1.9750  -16.9560  -35.9240 C   0  0  0  0  0  3  0  0  0  0  0  0
    2.4100  -17.9240  -36.7380 C   0  0  0  0  0  0  0  0  0  0  0  0
    1.8130  -18.2280  -37.9510 O   0  0  0  0  0  0  0  0  0  0  0  0
    2.4650  -19.2750  -38.5950 C   0  0  0  0  0  0  0  0  0  0  0  0
    3.5030  -19.6730  -37.8080 C   0  0  0  0  0  0  0  0  0  0  0  0
    4.3210  -20.7060  -38.2160 C   0  0  0  0  0  3  0  0  0  0  0  0
    4.0440  -21.2970  -39.4210 C   0  0  0  0  0  3  0  0  0  0  0  0
    2.9770  -20.8880  -40.2320 C   0  0  0  0  0  0  0  0  0  0  0  0
    2.1510  -19.8630  -39.8440 C   0  0  0  0  0  0  0  0  0  0  0  0
    2.7630  -21.5430  -41.4470 O   0  0  0  0  0  1  0  0  0  0  0  0
    3.5120  -18.8370  -36.6000 C   0  0  0  0  0  0  0  0  0  0  0  0
    4.3040  -18.8780  -35.6240 O   0  0  0  0  0  0  0  0  0  0  0  0
    0.8120  -16.1610  -36.3060 C   0  0  0  0  0  0  0  0  0  0  0  0
    0.9550  -14.8230  -36.6340 C   0  0  0  0  0  3  0  0  0  0  0  0
   -0.1260  -14.0410  -36.9970 C   0  0  0  0  0  3  0  0  0  0  0  0
   -1.3970  -14.5660  -37.0490 C   0  0  0  0  0  0  0  0  0  0  0  0
   -2.8990  -13.4790  -37.5570 Br  0  0  0  0  0  0  0  0  0  0  0  0
   -1.5580  -15.8970  -36.7260 C   0  0  0  0  0  3  0  0  0  0  0  0
   -0.4610  -16.6820  -36.3590 C   0  0  0  0  0  3  0  0  0  0  0  0
    1.0000  -19.3290  -40.5810 C   0  0  0  0  0  2  0  0  0  0  0  0
   -0.1220  -20.1630  -40.7730 N   0  0  0  0  0  4  0  0  0  0  0  0
   -0.6380  -20.6920  -39.5280 C   0  0  0  0  0  2  0  0  0  0  0  0
   -1.6180  -19.7020  -38.9250 C   0  0  0  0  0  2  0  0  0  0  0  0
   -2.8200  -19.8230  -39.6040 O   0  0  0  0  0  0  0  0  0  0  0  0
   -2.5300  -20.1060  -40.9430 C   0  0  0  0  0  2  0  0  0  0  0  0
   -1.2450  -19.4070  -41.3560 C   0  0  0  0  0  2  0  0  0  0  0  0
    0.0630  -20.9190  -41.4630 H   0  0  0  0  0  0  0  0  0  0  0  0
  2 11  1  0  0  0  0
  2  1  2  0  0  0  0
  3  2  1  0  0  0  0
  4  3  1  0  0  0  0
  4  5  1  0  0  0  0
  5 11  1  0  0  0  0
  6  5  2  0  0  0  0
  7  6  1  0  0  0  0
  8  9  1  0  0  0  0
  8  7  2  0  0  0  0
  9  4  2  0  0  0  0
 10  8  1  0  0  0  0
 11 12  2  0  0  0  0
 13  1  1  0  0  0  0
 14 13  2  0  0  0  0
 15 14  1  0  0  0  0
 16 15  2  0  0  0  0
 16 18  1  0  0  0  0
 17 16  1  0  0  0  0
 18 19  2  0  0  0  0
 19 13  1  0  0  0  0
 20  9  1  0  0  0  0
 21 20  1  0  0  0  0
 21 22  1  0  0  0  0
 22 23  1  0  0  0  0
 24 23  1  0  0  0  0
 25 24  1  0  0  0  0
 26 25  1  0  0  0  0
 26 21  1  0  0  0  0
 27 21  1  0  0  0  0
M  END
>  <Pose>
1

>  <Score>
-5.972

$$$$
