MODEL 1
REMARK VINA RESULT:    -6.315      0.000      0.000
REMARK INTER + INTRA:         -10.442
REMARK INTER:                  -8.899
REMARK INTRA:                  -1.543
REMARK UNBOUND:                -1.543
REMARK  8 active torsions:
REMARK  status: ('A' for Active; 'I' for Inactive)
REMARK    1  A    between atoms: C_5  and  C_8 
REMARK    2  A    between atoms: N_9  and  N_10 
REMARK       I    between atoms: N_10  and  C_11 
REMARK    3  A    between atoms: C_11  and  C_13 
REMARK    4  A    between atoms: C_13  and  N_14 
REMARK    5  A    between atoms: C_16  and  C_25 
REMARK    6  A    between atoms: C_18  and  C_19 
REMARK    7  A    between atoms: C_23  and  N_24 
REMARK    8  A    between atoms: C_29  and  N_30 
ROOT
ATOM      1  N   UNK d   1       6.785 -23.706 -43.969  0.00  0.00    -0.239 N 
ATOM      2  N   UNK d   1       8.107 -23.899 -43.677  0.00  0.00    -0.147 NA
ATOM      3  C   UNK d   1       8.263 -25.132 -43.176  0.00  0.00     0.206 A 
ATOM      4  N   UNK d   1       7.046 -25.673 -43.169  0.00  0.00    -0.203 NA
ATOM      5  C   UNK d   1       6.108 -24.781 -43.666  0.00  0.00     0.184 A 
ENDROOT
BRANCH   1   6
ATOM      6  C   UNK d   1       6.355 -22.447 -44.546  0.00  0.00     0.257 C 
BRANCH   6   7
ATOM      7  C   UNK d   1       5.593 -21.634 -43.563  0.00  0.00     0.257 C 
ATOM      8  N   UNK d   1       6.215 -21.136 -42.392  0.00  0.00    -0.246 N 
ATOM      9  H   UNK d   1       7.242 -21.334 -42.190  0.00  0.00     0.192 HD
ATOM     10  O   UNK d   1       4.385 -21.380 -43.768  0.00  0.00    -0.270 OA
BRANCH   8  11
ATOM     11  N   UNK d   1       5.481 -20.385 -41.501  0.00  0.00    -0.184 NA
ATOM     12  C   UNK d   1       5.219 -20.705 -40.295  0.00  0.00     0.150 C 
BRANCH  12  13
ATOM     13  C   UNK d   1       4.434 -19.868 -39.394  0.00  0.00    -0.017 A 
ATOM     14  C   UNK d   1       3.416 -19.063 -39.860  0.00  0.00     0.014 A 
ATOM     15  C   UNK d   1       2.685 -18.277 -38.988  0.00  0.00     0.020 A 
ATOM     16  C   UNK d   1       2.939 -18.263 -37.624  0.00  0.00     0.011 A 
ATOM     17 Br   UNK d   1       1.912 -17.168 -36.445  0.00  0.00    -0.051 Br
ATOM     18  C   UNK d   1       3.958 -19.067 -37.157  0.00  0.00     0.020 A 
ATOM     19  C   UNK d   1       4.679 -19.847 -38.038  0.00  0.00     0.014 A 
ENDBRANCH  12  13
ENDBRANCH   8  11
ENDBRANCH   6   7
ENDBRANCH   1   6
BRANCH   5  20
ATOM     20  C   UNK d   1       4.702 -25.114 -43.769  0.00  0.00     0.181 A 
ATOM     21  N   UNK d   1       4.225 -26.004 -44.726  0.00  0.00    -0.097 NA
ATOM     22  O   UNK d   1       2.964 -26.138 -44.597  0.00  0.00    -0.104 OA
ATOM     23  N   UNK d   1       2.543 -25.417 -43.635  0.00  0.00    -0.085 NA
ATOM     24  C   UNK d   1       3.609 -24.757 -43.089  0.00  0.00     0.186 A 
BRANCH  24  25
ATOM     25  N   UNK d   1       3.432 -23.898 -41.998  0.00  0.00    -0.380 N 
ATOM     26  H   UNK d   1       2.470 -23.752 -41.614  0.00  0.00     0.158 HD
ATOM     27  H   UNK d   1       4.203 -23.388 -41.519  0.00  0.00     0.158 HD
ENDBRANCH  24  25
ENDBRANCH   5  20
BRANCH   3  28
ATOM     28  C   UNK d   1       9.501 -25.759 -42.730  0.00  0.00     0.183 A 
ATOM     29  N   UNK d   1       9.647 -26.648 -41.742  0.00  0.00    -0.097 NA
ATOM     30  O   UNK d   1      10.922 -26.981 -41.643  0.00  0.00    -0.104 OA
ATOM     31  N   UNK d   1      11.628 -26.343 -42.532  0.00  0.00    -0.085 NA
ATOM     32  C   UNK d   1      10.759 -25.559 -43.240  0.00  0.00     0.186 A 
BRANCH  32  33
ATOM     33  N   UNK d   1      11.154 -24.708 -44.305  0.00  0.00    -0.380 N 
ATOM     34  H   UNK d   1      11.707 -23.830 -44.097  0.00  0.00     0.158 HD
ATOM     35  H   UNK d   1      10.934 -24.890 -45.303  0.00  0.00     0.158 HD
ENDBRANCH  32  33
ENDBRANCH   3  28
TORSDOF 8
ENDMDL
