/Users/jonathanwahrer/Desktop/Msc/3_Semester/Drug_Design_Praktikum/waehrer_HTS_screening/HTS_experiment/out/docking_results/vina_output/6y4q/0294_docked.pdbqt
 OpenBabel03232217293D

 35 38  0  0  0  0  0  0  0  0999 V2000
    6.7850  -23.7060  -43.9690 N   0  0  0  0  0  0  0  0  0  0  0  0
    8.1070  -23.8990  -43.6770 N   0  0  0  0  0  0  0  0  0  0  0  0
    8.2630  -25.1320  -43.1760 C   0  0  0  0  0  0  0  0  0  0  0  0
    7.0460  -25.6730  -43.1690 N   0  0  0  0  0  0  0  0  0  0  0  0
    6.1080  -24.7810  -43.6660 C   0  0  0  0  0  0  0  0  0  0  0  0
    6.3550  -22.4470  -44.5460 C   0  0  0  0  0  2  0  0  0  0  0  0
    5.5930  -21.6340  -43.5630 C   0  0  0  0  0  0  0  0  0  0  0  0
    6.2150  -21.1360  -42.3920 N   0  0  0  0  0  0  0  0  0  0  0  0
    7.2420  -21.3340  -42.1900 H   0  0  0  0  0  0  0  0  0  0  0  0
    4.3850  -21.3800  -43.7680 O   0  0  0  0  0  0  0  0  0  0  0  0
    5.4810  -20.3850  -41.5010 N   0  0  0  0  0  0  0  0  0  0  0  0
    5.2190  -20.7050  -40.2950 C   0  0  0  0  0  3  0  0  0  0  0  0
    4.4340  -19.8680  -39.3940 C   0  0  0  0  0  0  0  0  0  0  0  0
    3.4160  -19.0630  -39.8600 C   0  0  0  0  0  3  0  0  0  0  0  0
    2.6850  -18.2770  -38.9880 C   0  0  0  0  0  3  0  0  0  0  0  0
    2.9390  -18.2630  -37.6240 C   0  0  0  0  0  0  0  0  0  0  0  0
    1.9120  -17.1680  -36.4450 Br  0  0  0  0  0  0  0  0  0  0  0  0
    3.9580  -19.0670  -37.1570 C   0  0  0  0  0  3  0  0  0  0  0  0
    4.6790  -19.8470  -38.0380 C   0  0  0  0  0  3  0  0  0  0  0  0
    4.7020  -25.1140  -43.7690 C   0  0  0  0  0  0  0  0  0  0  0  0
    4.2250  -26.0040  -44.7260 N   0  0  0  0  0  0  0  0  0  0  0  0
    2.9640  -26.1380  -44.5970 O   0  0  0  0  0  0  0  0  0  0  0  0
    2.5430  -25.4170  -43.6350 N   0  0  0  0  0  0  0  0  0  0  0  0
    3.6090  -24.7570  -43.0890 C   0  0  0  0  0  0  0  0  0  0  0  0
    3.4320  -23.8980  -41.9980 N   0  0  0  0  0  0  0  0  0  0  0  0
    2.4700  -23.7520  -41.6140 H   0  0  0  0  0  0  0  0  0  0  0  0
    4.2030  -23.3880  -41.5190 H   0  0  0  0  0  0  0  0  0  0  0  0
    9.5010  -25.7590  -42.7300 C   0  0  0  0  0  0  0  0  0  0  0  0
    9.6470  -26.6480  -41.7420 N   0  0  0  0  0  0  0  0  0  0  0  0
   10.9220  -26.9810  -41.6430 O   0  0  0  0  0  0  0  0  0  0  0  0
   11.6280  -26.3430  -42.5320 N   0  0  0  0  0  0  0  0  0  0  0  0
   10.7590  -25.5590  -43.2400 C   0  0  0  0  0  0  0  0  0  0  0  0
   11.1540  -24.7080  -44.3050 N   0  0  0  0  0  0  0  0  0  0  0  0
   11.7070  -23.8300  -44.0970 H   0  0  0  0  0  0  0  0  0  0  0  0
   10.9340  -24.8900  -45.3030 H   0  0  0  0  0  0  0  0  0  0  0  0
  1  2  1  0  0  0  0
  1  5  1  0  0  0  0
  2  3  2  0  0  0  0
  3  4  1  0  0  0  0
  3 28  1  0  0  0  0
  5  4  2  0  0  0  0
  6  1  1  0  0  0  0
  6  7  1  0  0  0  0
  7  8  1  0  0  0  0
  8  9  1  0  0  0  0
  8 11  1  0  0  0  0
 10  7  2  0  0  0  0
 11 12  2  0  0  0  0
 12 13  1  0  0  0  0
 13 19  1  0  0  0  0
 14 13  2  0  0  0  0
 14 15  1  0  0  0  0
 15 16  2  0  0  0  0
 16 18  1  0  0  0  0
 16 17  1  0  0  0  0
 19 18  2  0  0  0  0
 20  5  1  0  0  0  0
 20 24  1  0  0  0  0
 21 22  1  0  0  0  0
 21 20  2  0  0  0  0
 22 23  1  0  0  0  0
 23 24  2  0  0  0  0
 24 25  1  0  0  0  0
 25 26  1  0  0  0  0
 25 27  1  0  0  0  0
 28 29  2  0  0  0  0
 29 30  1  0  0  0  0
 31 30  1  0  0  0  0
 32 28  1  0  0  0  0
 32 31  2  0  0  0  0
 33 34  1  0  0  0  0
 33 32  1  0  0  0  0
 35 33  1  0  0  0  0
M  END
>  <Pose>
1

>  <Score>
-6.315

$$$$
