MODEL 1
REMARK VINA RESULT:    -6.610      0.000      0.000
REMARK INTER + INTRA:          -8.945
REMARK INTER:                  -8.156
REMARK INTRA:                  -0.789
REMARK UNBOUND:                -0.789
REMARK  4 active torsions:
REMARK  status: ('A' for Active; 'I' for Inactive)
REMARK    1  A    between atoms: C_5  and  C_8 
REMARK    2  A    between atoms: N_19  and  C_20 
REMARK    3  A    between atoms: C_20  and  C_21 
REMARK    4  A    between atoms: C_21  and  N_22 
ROOT
ATOM      1  C   UNK d   1       1.355 -15.560 -38.072  0.00  0.00     0.076 A 
ATOM      2  N   UNK d   1       2.010 -16.737 -38.142  0.00  0.00    -0.189 N 
ATOM      3  C   UNK d   1       1.123 -17.762 -38.167  0.00  0.00     0.692 A 
ATOM      4  N   UNK d   1      -0.117 -17.247 -38.114  0.00  0.00    -0.153 N 
ATOM      5  C   UNK d   1       0.019 -15.903 -38.055  0.00  0.00     0.146 A 
ATOM      6  C   UNK d   1      -0.958 -18.299 -38.142  0.00  0.00     0.084 A 
ATOM      7  C   UNK d   1      -0.244 -19.476 -38.214  0.00  0.00     0.079 A 
ATOM      8  C   UNK d   1      -0.867 -20.718 -38.255  0.00  0.00     0.032 A 
ATOM      9  C   UNK d   1      -2.240 -20.791 -38.225  0.00  0.00     0.002 A 
ATOM     10  C   UNK d   1      -2.946 -19.609 -38.154  0.00  0.00     0.002 A 
ATOM     11  C   UNK d   1      -2.355 -18.365 -38.111  0.00  0.00     0.033 A 
ATOM     12  N   UNK d   1       1.063 -19.102 -38.227  0.00  0.00    -0.179 N 
ATOM     13  H   UNK d   1       3.042 -16.866 -38.173  0.00  0.00     0.184 HD
ENDROOT
BRANCH  12  14
ATOM     14  C   UNK d   1       2.145 -20.063 -38.298  0.00  0.00     0.175 C 
BRANCH  14  15
ATOM     15  C   UNK d   1       2.918 -19.940 -39.593  0.00  0.00     0.256 C 
BRANCH  15  16
ATOM     16  N   UNK d   1       4.323 -19.819 -39.326  0.00  0.00    -0.066 N 
ATOM     17  C   UNK d   1       5.009 -21.047 -39.667  0.00  0.00     0.261 C 
ATOM     18  C   UNK d   1       5.996 -21.477 -38.609  0.00  0.00     0.195 C 
ATOM     19  O   UNK d   1       6.832 -20.400 -38.308  0.00  0.00    -0.388 OA
ATOM     20  C   UNK d   1       6.129 -19.303 -37.857  0.00  0.00     0.195 C 
ATOM     21  C   UNK d   1       4.639 -19.499 -37.966  0.00  0.00     0.261 C 
ATOM     22  H   UNK d   1       4.747 -19.068 -39.927  0.00  0.00     0.280 HD
ENDBRANCH  15  16
ENDBRANCH  14  15
ENDBRANCH  12  14
BRANCH   1  23
ATOM     23  C   UNK d   1       1.954 -14.230 -38.025  0.00  0.00    -0.007 A 
ATOM     24  C   UNK d   1       2.508 -13.644 -39.140  0.00  0.00     0.015 A 
ATOM     25  C   UNK d   1       3.079 -12.374 -39.095  0.00  0.00     0.020 A 
ATOM     26  C   UNK d   1       3.101 -11.664 -37.911  0.00  0.00     0.011 A 
ATOM     27 Br   UNK d   1       3.879  -9.933 -37.845  0.00  0.00    -0.051 Br
ATOM     28  C   UNK d   1       2.549 -12.240 -36.785  0.00  0.00     0.020 A 
ATOM     29  C   UNK d   1       1.981 -13.515 -36.849  0.00  0.00     0.015 A 
ENDBRANCH   1  23
TORSDOF 4
ENDMDL
