MODEL 1
REMARK VINA RESULT:    -6.519      0.000      0.000
REMARK INTER + INTRA:         -10.038
REMARK INTER:                  -8.805
REMARK INTRA:                  -1.232
REMARK UNBOUND:                -1.232
REMARK  6 active torsions:
REMARK  status: ('A' for Active; 'I' for Inactive)
REMARK    1  A    between atoms: C_5  and  C_8 
REMARK    2  A    between atoms: C_9  and  C_28 
REMARK    3  A    between atoms: C_16  and  C_17 
REMARK    4  A    between atoms: C_17  and  N_18 
REMARK    5  A    between atoms: C_28  and  O_30 
REMARK    6  A    between atoms: O_30  and  C_31 
ROOT
ATOM      1  C   UNK d   1       1.633 -16.379 -37.833  0.00  0.00     0.065 A 
ATOM      2  C   UNK d   1       1.638 -16.474 -39.203  0.00  0.00     0.166 A 
ATOM      3  O   UNK d   1       2.205 -17.475 -39.850  0.00  0.00    -0.302 OA
ATOM      4  C   UNK d   1       2.803 -18.451 -39.215  0.00  0.00     0.101 A 
ATOM      5  C   UNK d   1       2.832 -18.415 -37.867  0.00  0.00     0.050 A 
ATOM      6  C   UNK d   1       3.451 -19.429 -37.171  0.00  0.00     0.021 A 
ATOM      7  C   UNK d   1       4.023 -20.454 -37.879  0.00  0.00     0.041 A 
ATOM      8  C   UNK d   1       3.986 -20.482 -39.287  0.00  0.00     0.118 A 
ATOM      9  C   UNK d   1       3.380 -19.489 -39.997  0.00  0.00     0.039 A 
ATOM     10  O   UNK d   1       4.612 -21.593 -39.827  0.00  0.00    -0.191 OA
ATOM     11  C   UNK d   1       2.263 -17.401 -37.120  0.00  0.00     0.199 A 
ATOM     12  O   UNK d   1       2.292 -17.370 -35.885  0.00  0.00    -0.286 OA
ENDROOT
BRANCH   9  13
ATOM     13  C   UNK d   1       3.280 -19.368 -41.431  0.00  0.00     0.279 C 
BRANCH  13  14
ATOM     14  N   UNK d   1       2.773 -20.383 -42.261  0.00  0.00    -0.064 N 
ATOM     15  C   UNK d   1       1.614 -21.000 -41.720  0.00  0.00     0.254 C 
ATOM     16  C   UNK d   1       1.310 -22.401 -42.078  0.00  0.00     0.144 C 
ATOM     17  N   UNK d   1       2.409 -23.108 -42.579  0.00  0.00    -0.413 N 
ATOM     18  C   UNK d   1       3.236 -22.485 -43.517  0.00  0.00     0.144 C 
ATOM     19  C   UNK d   1       2.678 -24.412 -42.139  0.00  0.00     0.143 C 
ATOM     20  C   UNK d   1       3.688 -21.143 -43.033  0.00  0.00     0.254 C 
ATOM     21  H   UNK d   1       2.298 -19.754 -43.082  0.00  0.00     0.280 HD
ENDBRANCH  13  14
ENDBRANCH   9  13
BRANCH   2  22
ATOM     22  C   UNK d   1       0.982 -15.407 -39.974  0.00  0.00     0.318 C 
ATOM     23  O   UNK d   1      -0.097 -15.680 -40.557  0.00  0.00    -0.257 OA
BRANCH  22  24
ATOM     24  O   UNK d   1       1.477 -14.145 -40.090  0.00  0.00    -0.316 OA
BRANCH  24  25
ATOM     25  C   UNK d   1       2.795 -13.930 -40.533  0.00  0.00     0.175 C 
ATOM     26  C   UNK d   1       3.414 -12.827 -39.719  0.00  0.00     0.034 C 
ENDBRANCH  24  25
ENDBRANCH  22  24
ENDBRANCH   2  22
BRANCH   1  27
ATOM     27  C   UNK d   1       0.976 -15.283 -37.174  0.00  0.00    -0.019 A 
ATOM     28  C   UNK d   1       1.650 -14.154 -36.714  0.00  0.00     0.014 A 
ATOM     29  C   UNK d   1       1.020 -13.096 -36.095  0.00  0.00     0.020 A 
ATOM     30  C   UNK d   1      -0.331 -13.140 -35.915  0.00  0.00     0.011 A 
ATOM     31 Br   UNK d   1      -1.189 -11.661 -35.058  0.00  0.00    -0.051 Br
ATOM     32  C   UNK d   1      -1.045 -14.236 -36.352  0.00  0.00     0.020 A 
ATOM     33  C   UNK d   1      -0.381 -15.301 -36.980  0.00  0.00     0.014 A 
ENDBRANCH   1  27
TORSDOF 6
ENDMDL
