/Users/jonathanwahrer/Desktop/Msc/3_Semester/Drug_Design_Praktikum/waehrer_HTS_screening/HTS_experiment/out/docking_results/vina_output/6y4q/0309_docked.pdbqt
 OpenBabel03232217293D

 33 36  0  0  0  0  0  0  0  0999 V2000
    1.6330  -16.3790  -37.8330 C   0  0  0  0  0  0  0  0  0  0  0  0
    1.6380  -16.4740  -39.2030 C   0  0  0  0  0  0  0  0  0  0  0  0
    2.2050  -17.4750  -39.8500 O   0  0  0  0  0  0  0  0  0  0  0  0
    2.8030  -18.4510  -39.2150 C   0  0  0  0  0  0  0  0  0  0  0  0
    2.8320  -18.4150  -37.8670 C   0  0  0  0  0  0  0  0  0  0  0  0
    3.4510  -19.4290  -37.1710 C   0  0  0  0  0  3  0  0  0  0  0  0
    4.0230  -20.4540  -37.8790 C   0  0  0  0  0  3  0  0  0  0  0  0
    3.9860  -20.4820  -39.2870 C   0  0  0  0  0  0  0  0  0  0  0  0
    3.3800  -19.4890  -39.9970 C   0  0  0  0  0  0  0  0  0  0  0  0
    4.6120  -21.5930  -39.8270 O   0  0  0  0  0  1  0  0  0  0  0  0
    2.2630  -17.4010  -37.1200 C   0  0  0  0  0  0  0  0  0  0  0  0
    2.2920  -17.3700  -35.8850 O   0  0  0  0  0  0  0  0  0  0  0  0
    3.2800  -19.3680  -41.4310 C   0  0  0  0  0  2  0  0  0  0  0  0
    2.7730  -20.3830  -42.2610 N   0  0  0  0  0  4  0  0  0  0  0  0
    1.6140  -21.0000  -41.7200 C   0  0  0  0  0  2  0  0  0  0  0  0
    1.3100  -22.4010  -42.0780 C   0  0  0  0  0  2  0  0  0  0  0  0
    2.4090  -23.1080  -42.5790 N   0  0  0  0  0  0  0  0  0  0  0  0
    3.2360  -22.4850  -43.5170 C   0  0  0  0  0  2  0  0  0  0  0  0
    2.6780  -24.4120  -42.1390 C   0  0  0  0  0  1  0  0  0  0  0  0
    3.6880  -21.1430  -43.0330 C   0  0  0  0  0  2  0  0  0  0  0  0
    2.2980  -19.7540  -43.0820 H   0  0  0  0  0  0  0  0  0  0  0  0
    0.9820  -15.4070  -39.9740 C   0  0  0  0  0  0  0  0  0  0  0  0
   -0.0970  -15.6800  -40.5570 O   0  0  0  0  0  0  0  0  0  0  0  0
    1.4770  -14.1450  -40.0900 O   0  0  0  0  0  0  0  0  0  0  0  0
    2.7950  -13.9300  -40.5330 C   0  0  0  0  0  2  0  0  0  0  0  0
    3.4140  -12.8270  -39.7190 C   0  0  0  0  0  1  0  0  0  0  0  0
    0.9760  -15.2830  -37.1740 C   0  0  0  0  0  0  0  0  0  0  0  0
    1.6500  -14.1540  -36.7140 C   0  0  0  0  0  3  0  0  0  0  0  0
    1.0200  -13.0960  -36.0950 C   0  0  0  0  0  3  0  0  0  0  0  0
   -0.3310  -13.1400  -35.9150 C   0  0  0  0  0  0  0  0  0  0  0  0
   -1.1890  -11.6610  -35.0580 Br  0  0  0  0  0  0  0  0  0  0  0  0
   -1.0450  -14.2360  -36.3520 C   0  0  0  0  0  3  0  0  0  0  0  0
   -0.3810  -15.3010  -36.9800 C   0  0  0  0  0  3  0  0  0  0  0  0
  1 27  1  0  0  0  0
  1 11  1  0  0  0  0
  2  1  2  0  0  0  0
  3  4  1  0  0  0  0
  3  2  1  0  0  0  0
  4  5  1  0  0  0  0
  5  6  2  0  0  0  0
  5 11  1  0  0  0  0
  7  6  1  0  0  0  0
  8  7  2  0  0  0  0
  9  8  1  0  0  0  0
  9  4  2  0  0  0  0
 10  8  1  0  0  0  0
 11 12  2  0  0  0  0
 13  9  1  0  0  0  0
 14 15  1  0  0  0  0
 14 13  1  0  0  0  0
 16 15  1  0  0  0  0
 17 19  1  0  0  0  0
 17 16  1  0  0  0  0
 18 20  1  0  0  0  0
 18 17  1  0  0  0  0
 20 14  1  0  0  0  0
 21 14  1  0  0  0  0
 22  2  1  0  0  0  0
 23 22  2  0  0  0  0
 24 22  1  0  0  0  0
 25 24  1  0  0  0  0
 25 26  1  0  0  0  0
 27 33  2  0  0  0  0
 27 28  1  0  0  0  0
 28 29  2  0  0  0  0
 29 30  1  0  0  0  0
 30 31  1  0  0  0  0
 32 30  2  0  0  0  0
 33 32  1  0  0  0  0
M  END
>  <Pose>
1

>  <Score>
-6.519

$$$$
