MODEL 1
REMARK VINA RESULT:    -6.979      0.000      0.000
REMARK INTER + INTRA:         -11.222
REMARK INTER:                 -10.038
REMARK INTRA:                  -1.184
REMARK UNBOUND:                -1.184
REMARK  8 active torsions:
REMARK  status: ('A' for Active; 'I' for Inactive)
REMARK    1  A    between atoms: C_5  and  C_8 
REMARK    2  A    between atoms: N_15  and  C_16 
REMARK    3  A    between atoms: C_16  and  C_17 
REMARK    4  A    between atoms: C_17  and  C_18 
REMARK    5  A    between atoms: C_18  and  N_19 
REMARK    6  A    between atoms: N_22  and  C_25 
REMARK    7  A    between atoms: C_25  and  C_26 
REMARK    8  A    between atoms: C_26  and  O_27 
ROOT
ATOM      1  C   UNK d   1       0.686 -15.017 -37.452  0.00  0.00     0.078 A 
ATOM      2  C   UNK d   1      -0.704 -14.813 -37.534  0.00  0.00     0.146 A 
ATOM      3  N   UNK d   1      -1.369 -15.898 -37.124  0.00  0.00    -0.153 N 
ATOM      4  C   UNK d   1      -2.606 -16.420 -36.932  0.00  0.00     0.083 A 
ATOM      5  C   UNK d   1      -2.413 -17.692 -36.450  0.00  0.00     0.077 A 
ATOM      6  N   UNK d   1      -1.071 -17.909 -36.361  0.00  0.00    -0.189 N 
ATOM      7  C   UNK d   1      -0.447 -16.793 -36.781  0.00  0.00     0.692 A 
ATOM      8  N   UNK d   1       0.811 -16.259 -36.980  0.00  0.00    -0.180 N 
ATOM      9  C   UNK d   1      -3.527 -18.454 -36.167  0.00  0.00     0.032 A 
ATOM     10  C   UNK d   1      -4.814 -17.967 -36.359  0.00  0.00     0.002 A 
ATOM     11  C   UNK d   1      -5.005 -16.696 -36.841  0.00  0.00     0.002 A 
ATOM     12  C   UNK d   1      -3.873 -15.924 -37.127  0.00  0.00     0.033 A 
ATOM     13  H   UNK d   1      -0.637 -18.796 -36.024  0.00  0.00     0.184 HD
ENDROOT
BRANCH   8  14
ATOM     14  C   UNK d   1       2.025 -17.002 -36.717  0.00  0.00     0.149 C 
BRANCH  14  15
ATOM     15  C   UNK d   1       2.155 -18.272 -37.524  0.00  0.00     0.051 C 
BRANCH  15  16
ATOM     16  C   UNK d   1       2.080 -17.990 -39.003  0.00  0.00     0.274 C 
BRANCH  16  17
ATOM     17  N   UNK d   1       2.286 -19.133 -39.849  0.00  0.00     0.091 N 
ATOM     18  C   UNK d   1       2.613 -20.234 -38.957  0.00  0.00     0.300 C 
ATOM     19  C   UNK d   1       3.766 -21.061 -39.387  0.00  0.00     0.265 C 
ATOM     20  N   UNK d   1       4.922 -20.343 -39.848  0.00  0.00    -0.066 N 
ATOM     21  C   UNK d   1       4.630 -18.994 -40.284  0.00  0.00     0.265 C 
ATOM     22  H   UNK d   1       5.235 -20.844 -40.738  0.00  0.00     0.280 HD
ATOM     23  C   UNK d   1       3.243 -18.980 -40.894  0.00  0.00     0.300 C 
BRANCH  20  24
ATOM     24  C   UNK d   1       6.022 -20.456 -38.944  0.00  0.00     0.260 C 
BRANCH  24  25
ATOM     25  C   UNK d   1       6.065 -19.460 -37.837  0.00  0.00     0.192 C 
BRANCH  25  26
ATOM     26  O   UNK d   1       7.278 -18.780 -37.740  0.00  0.00    -0.399 OA
ATOM     27  H   UNK d   1       7.833 -18.983 -38.513  0.00  0.00     0.209 HD
ENDBRANCH  25  26
ENDBRANCH  24  25
ENDBRANCH  20  24
ENDBRANCH  16  17
ENDBRANCH  15  16
ENDBRANCH  14  15
ENDBRANCH   8  14
BRANCH   1  28
ATOM     28  C   UNK d   1       1.675 -14.021 -37.864  0.00  0.00    -0.007 A 
ATOM     29  C   UNK d   1       2.219 -13.898 -39.102  0.00  0.00     0.015 A 
ATOM     30  C   UNK d   1       3.133 -12.884 -39.436  0.00  0.00     0.020 A 
ATOM     31  C   UNK d   1       3.523 -11.955 -38.507  0.00  0.00     0.011 A 
ATOM     32 Br   UNK d   1       4.770 -10.570 -38.961  0.00  0.00    -0.051 Br
ATOM     33  C   UNK d   1       2.988 -12.063 -37.254  0.00  0.00     0.020 A 
ATOM     34  C   UNK d   1       2.087 -13.066 -36.934  0.00  0.00     0.015 A 
ENDBRANCH   1  28
TORSDOF 8
ENDMDL
