MODEL 1
REMARK VINA RESULT:    -7.130      0.000      0.000
REMARK INTER + INTRA:         -12.543
REMARK INTER:                 -10.464
REMARK INTRA:                  -2.079
REMARK UNBOUND:                -2.079
REMARK  8 active torsions:
REMARK  status: ('A' for Active; 'I' for Inactive)
REMARK    1  A    between atoms: C_5  and  C_8 
REMARK    2  A    between atoms: N_9  and  C_26 
REMARK    3  A    between atoms: C_14  and  C_15 
REMARK    4  A    between atoms: C_15  and  C_17 
REMARK    5  A    between atoms: C_20  and  O_23 
REMARK    6  A    between atoms: C_26  and  C_27 
REMARK    7  A    between atoms: C_27  and  C_28 
REMARK    8  A    between atoms: C_28  and  N_29 
ROOT
ATOM      1  C   UNK d   1       0.312 -15.623 -38.245  0.00  0.00     0.161 A 
ATOM      2  N   UNK d   1      -1.074 -15.243 -38.217  0.00  0.00    -0.332 N 
ATOM      3  C   UNK d   1      -1.789 -15.992 -37.253  0.00  0.00     0.295 A 
ATOM      4  O   UNK d   1      -3.027 -15.938 -36.975  0.00  0.00    -0.264 OA
ATOM      5  C   UNK d   1      -0.852 -16.907 -36.563  0.00  0.00     0.250 A 
ATOM      6  O   UNK d   1      -1.165 -17.710 -35.656  0.00  0.00    -0.282 OA
ATOM      7  C   UNK d   1       0.441 -16.657 -37.166  0.00  0.00     0.062 A 
ENDROOT
BRANCH   7   8
ATOM      8  C   UNK d   1       1.528 -17.307 -36.816  0.00  0.00     0.130 C 
ATOM      9  O   UNK d   1       2.153 -16.935 -35.606  0.00  0.00    -0.190 OA
BRANCH   8  10
ATOM     10  C   UNK d   1       2.151 -18.381 -37.548  0.00  0.00     0.002 A 
ATOM     11  C   UNK d   1       1.668 -18.996 -38.649  0.00  0.00     0.024 A 
ATOM     12  C   UNK d   1       2.387 -19.993 -39.276  0.00  0.00    -0.028 A 
ATOM     13  C   UNK d   1       3.620 -20.424 -38.837  0.00  0.00     0.074 A 
ATOM     14  C   UNK d   1       1.809 -20.645 -40.497  0.00  0.00     0.051 C 
ATOM     15  C   UNK d   1       4.091 -19.780 -37.709  0.00  0.00     0.038 A 
ATOM     16  C   UNK d   1       3.403 -18.789 -37.064  0.00  0.00     0.017 A 
BRANCH  13  17
ATOM     17  O   UNK d   1       4.339 -21.429 -39.473  0.00  0.00    -0.355 OA
ATOM     18  C   UNK d   1       5.712 -21.623 -39.167  0.00  0.00     0.210 C 
ENDBRANCH  13  17
ENDBRANCH   8  10
ENDBRANCH   7   8
BRANCH   1  19
ATOM     19  C   UNK d   1       1.226 -14.496 -38.042  0.00  0.00    -0.030 A 
ATOM     20  C   UNK d   1       2.018 -14.034 -39.071  0.00  0.00     0.011 A 
ATOM     21  C   UNK d   1       2.893 -12.959 -38.881  0.00  0.00     0.019 A 
ATOM     22  C   UNK d   1       2.985 -12.336 -37.656  0.00  0.00     0.011 A 
ATOM     23 Br   UNK d   1       4.200 -10.865 -37.430  0.00  0.00    -0.051 Br
ATOM     24  C   UNK d   1       2.203 -12.789 -36.630  0.00  0.00     0.019 A 
ATOM     25  C   UNK d   1       1.348 -13.846 -36.835  0.00  0.00     0.011 A 
ENDBRANCH   1  19
BRANCH   2  26
ATOM     26  C   UNK d   1      -1.644 -14.226 -39.082  0.00  0.00     0.129 C 
BRANCH  26  27
ATOM     27  C   UNK d   1      -2.325 -13.116 -38.330  0.00  0.00     0.048 C 
BRANCH  27  28
ATOM     28  C   UNK d   1      -1.408 -11.952 -38.107  0.00  0.00     0.236 C 
BRANCH  28  29
ATOM     29  N   UNK d   1      -1.360 -11.521 -36.740  0.00  0.00    -0.067 N 
ATOM     30  C   UNK d   1      -2.435 -12.058 -35.931  0.00  0.00     0.261 C 
ATOM     31  C   UNK d   1      -2.104 -11.714 -34.475  0.00  0.00     0.195 C 
ATOM     32  O   UNK d   1      -1.055 -10.810 -34.411  0.00  0.00    -0.388 OA
ATOM     33  C   UNK d   1      -1.331  -9.683 -35.216  0.00  0.00     0.195 C 
ATOM     34  C   UNK d   1      -1.304 -10.088 -36.686  0.00  0.00     0.261 C 
ATOM     35  H   UNK d   1      -0.459 -11.884 -36.306  0.00  0.00     0.280 HD
ENDBRANCH  28  29
ENDBRANCH  27  28
ENDBRANCH  26  27
ENDBRANCH   2  26
TORSDOF 8
ENDMDL
