/Users/jonathanwahrer/Desktop/Msc/3_Semester/Drug_Design_Praktikum/waehrer_HTS_screening/HTS_experiment/out/docking_results/vina_output/6y4q/0347_docked.pdbqt
 OpenBabel03232217313D

 34 37  0  0  1  0  0  0  0  0999 V2000
    0.5150  -18.4570  -37.6520 C   0  0  2  0  0  3  0  0  0  0  0  0
   -0.3140  -18.6220  -38.8280 N   0  0  0  0  0  0  0  0  0  0  0  0
    0.0440  -17.5670  -39.7230 C   0  0  0  0  0  0  0  0  0  0  0  0
   -0.0730  -17.5680  -40.9740 O   0  0  0  0  0  0  0  0  0  0  0  0
    0.5690  -16.4950  -38.8850 C   0  0  0  0  0  0  0  0  0  0  0  0
    1.0110  -15.3670  -39.2170 O   0  0  0  0  0  0  0  0  0  0  0  0
    0.5060  -16.9550  -37.5010 C   0  0  0  0  0  0  0  0  0  0  0  0
    0.4890  -16.2130  -36.4210 C   0  0  0  0  0  0  0  0  0  0  0  0
    0.4810  -16.9050  -35.1970 O   0  0  0  0  0  1  0  0  0  0  0  0
   -1.3280  -19.6610  -39.0750 C   0  0  0  0  0  2  0  0  0  0  0  0
   -2.0640  -20.0080  -37.7720 C   0  0  0  0  0  2  0  0  0  0  0  0
   -3.4290  -19.3820  -37.7940 C   0  0  0  0  0  2  0  0  0  0  0  0
   -3.7050  -18.8080  -36.5000 N   0  0  0  0  0  4  0  0  0  0  0  0
   -5.0580  -18.3820  -36.3260 C   0  0  0  0  0  2  0  0  0  0  0  0
   -5.3900  -17.1490  -37.0950 C   0  0  0  0  0  2  0  0  0  0  0  0
   -4.5240  -16.1180  -36.7740 O   0  0  0  0  0  0  0  0  0  0  0  0
   -3.2360  -16.5230  -37.1250 C   0  0  0  0  0  2  0  0  0  0  0  0
   -2.8490  -17.6710  -36.2130 C   0  0  0  0  0  2  0  0  0  0  0  0
   -3.4860  -19.5270  -35.7720 H   0  0  0  0  0  0  0  0  0  0  0  0
    1.8610  -18.9660  -37.8750 C   0  0  0  0  0  0  0  0  0  0  0  0
    2.0820  -19.9950  -38.7570 C   0  0  0  0  0  3  0  0  0  0  0  0
    3.3660  -20.5030  -38.9720 C   0  0  0  0  0  3  0  0  0  0  0  0
    4.4410  -19.9740  -38.2970 C   0  0  0  0  0  0  0  0  0  0  0  0
    6.1920  -20.6710  -38.5920 Br  0  0  0  0  0  0  0  0  0  0  0  0
    4.2340  -18.9470  -37.4140 C   0  0  0  0  0  3  0  0  0  0  0  0
    2.9560  -18.4570  -37.2140 C   0  0  0  0  0  3  0  0  0  0  0  0
    0.4700  -14.7540  -36.4470 C   0  0  0  0  0  0  0  0  0  0  0  0
   -0.6780  -13.9960  -36.4820 C   0  0  0  0  0  3  0  0  0  0  0  0
   -0.7030  -12.6140  -36.5280 C   0  0  0  0  0  0  0  0  0  0  0  0
    0.4860  -11.9430  -36.5400 C   0  0  0  0  0  3  0  0  0  0  0  0
    1.6730  -12.6680  -36.5050 C   0  0  0  0  0  3  0  0  0  0  0  0
    1.6590  -14.0460  -36.4590 C   0  0  0  0  0  3  0  0  0  0  0  0
   -1.9440  -12.0190  -36.5580 O   0  0  0  0  0  0  0  0  0  0  0  0
   -3.1570  -12.5980  -36.8990 C   0  0  0  0  0  1  0  0  0  0  0  0
  1 20  1  6  0  0  0
  1  7  1  0  0  0  0
  2  1  1  0  0  0  0
  3  5  1  0  0  0  0
  3  2  1  0  0  0  0
  4  3  2  0  0  0  0
  5  7  1  0  0  0  0
  6  5  2  0  0  0  0
  7  8  2  0  0  0  0
  8  9  1  0  0  0  0
 10  2  1  0  0  0  0
 10 11  1  0  0  0  0
 12 11  1  0  0  0  0
 12 13  1  0  0  0  0
 13 14  1  0  0  0  0
 13 18  1  0  0  0  0
 13 19  1  0  0  0  0
 15 16  1  0  0  0  0
 15 14  1  0  0  0  0
 17 16  1  0  0  0  0
 17 18  1  0  0  0  0
 20 26  1  0  0  0  0
 21 20  2  0  0  0  0
 22 21  1  0  0  0  0
 22 23  2  0  0  0  0
 23 25  1  0  0  0  0
 24 23  1  0  0  0  0
 25 26  2  0  0  0  0
 27  8  1  0  0  0  0
 28 27  2  0  0  0  0
 29 28  1  0  0  0  0
 30 29  2  0  0  0  0
 30 31  1  0  0  0  0
 31 32  2  0  0  0  0
 32 27  1  0  0  0  0
 33 29  1  0  0  0  0
 34 33  1  0  0  0  0
M  END
>  <Pose>
1

>  <Score>
-6.080

$$$$
