MODEL 1
REMARK VINA RESULT:    -6.080      0.000      0.000
REMARK INTER + INTRA:         -10.186
REMARK INTER:                  -8.569
REMARK INTRA:                  -1.617
REMARK UNBOUND:                -1.617
REMARK  7 active torsions:
REMARK  status: ('A' for Active; 'I' for Inactive)
REMARK    1  A    between atoms: C_5  and  C_8 
REMARK    2  A    between atoms: N_9  and  C_25 
REMARK    3  A    between atoms: C_15  and  C_17 
REMARK    4  A    between atoms: C_19  and  O_23 
REMARK    5  A    between atoms: C_25  and  C_26 
REMARK    6  A    between atoms: C_26  and  C_27 
REMARK    7  A    between atoms: C_27  and  N_28 
ROOT
ATOM      1  C   UNK d   1       0.515 -18.457 -37.652  0.00  0.00     0.161 C 
ATOM      2  N   UNK d   1      -0.314 -18.622 -38.828  0.00  0.00    -0.332 N 
ATOM      3  C   UNK d   1       0.044 -17.567 -39.723  0.00  0.00     0.295 C 
ATOM      4  O   UNK d   1      -0.073 -17.568 -40.974  0.00  0.00    -0.264 OA
ATOM      5  C   UNK d   1       0.569 -16.495 -38.885  0.00  0.00     0.250 C 
ATOM      6  O   UNK d   1       1.011 -15.367 -39.217  0.00  0.00    -0.282 OA
ATOM      7  C   UNK d   1       0.506 -16.955 -37.501  0.00  0.00     0.062 C 
ATOM      8  C   UNK d   1       0.489 -16.213 -36.421  0.00  0.00     0.130 C 
ATOM      9  O   UNK d   1       0.481 -16.905 -35.197  0.00  0.00    -0.190 OA
ENDROOT
BRANCH   2  10
ATOM     10  C   UNK d   1      -1.328 -19.661 -39.075  0.00  0.00     0.129 C 
BRANCH  10  11
ATOM     11  C   UNK d   1      -2.064 -20.008 -37.772  0.00  0.00     0.048 C 
BRANCH  11  12
ATOM     12  C   UNK d   1      -3.429 -19.382 -37.794  0.00  0.00     0.236 C 
BRANCH  12  13
ATOM     13  N   UNK d   1      -3.705 -18.808 -36.500  0.00  0.00    -0.067 N 
ATOM     14  C   UNK d   1      -5.058 -18.382 -36.326  0.00  0.00     0.261 C 
ATOM     15  C   UNK d   1      -5.390 -17.149 -37.095  0.00  0.00     0.195 C 
ATOM     16  O   UNK d   1      -4.524 -16.118 -36.774  0.00  0.00    -0.388 OA
ATOM     17  C   UNK d   1      -3.236 -16.523 -37.125  0.00  0.00     0.195 C 
ATOM     18  C   UNK d   1      -2.849 -17.671 -36.213  0.00  0.00     0.261 C 
ATOM     19  H   UNK d   1      -3.486 -19.527 -35.772  0.00  0.00     0.280 HD
ENDBRANCH  12  13
ENDBRANCH  11  12
ENDBRANCH  10  11
ENDBRANCH   2  10
BRANCH   1  20
ATOM     20  C   UNK d   1       1.861 -18.966 -37.875  0.00  0.00    -0.030 A 
ATOM     21  C   UNK d   1       2.082 -19.995 -38.757  0.00  0.00     0.011 A 
ATOM     22  C   UNK d   1       3.366 -20.503 -38.972  0.00  0.00     0.019 A 
ATOM     23  C   UNK d   1       4.441 -19.974 -38.297  0.00  0.00     0.011 A 
ATOM     24 Br   UNK d   1       6.192 -20.671 -38.592  0.00  0.00    -0.051 Br
ATOM     25  C   UNK d   1       4.234 -18.947 -37.414  0.00  0.00     0.019 A 
ATOM     26  C   UNK d   1       2.956 -18.457 -37.214  0.00  0.00     0.011 A 
ENDBRANCH   1  20
BRANCH   8  27
ATOM     27  C   UNK d   1       0.470 -14.754 -36.447  0.00  0.00     0.004 A 
ATOM     28  C   UNK d   1      -0.678 -13.996 -36.482  0.00  0.00     0.051 A 
ATOM     29  C   UNK d   1      -0.703 -12.614 -36.528  0.00  0.00     0.069 A 
ATOM     30  C   UNK d   1       0.486 -11.943 -36.540  0.00  0.00     0.037 A 
ATOM     31  C   UNK d   1       1.673 -12.668 -36.505  0.00  0.00     0.004 A 
ATOM     32  C   UNK d   1       1.659 -14.046 -36.459  0.00  0.00     0.014 A 
BRANCH  29  33
ATOM     33  O   UNK d   1      -1.944 -12.019 -36.558  0.00  0.00    -0.356 OA
ATOM     34  C   UNK d   1      -3.157 -12.598 -36.899  0.00  0.00     0.210 C 
ENDBRANCH  29  33
ENDBRANCH   8  27
TORSDOF 7
ENDMDL
