MODEL 1
REMARK VINA RESULT:    -6.645      0.000      0.000
REMARK INTER + INTRA:          -9.722
REMARK INTER:                  -8.587
REMARK INTRA:                  -1.134
REMARK UNBOUND:                -1.134
REMARK  5 active torsions:
REMARK  status: ('A' for Active; 'I' for Inactive)
REMARK    1  A    between atoms: C_5  and  C_8 
REMARK    2  A    between atoms: N_9  and  C_24 
REMARK    3  A    between atoms: C_15  and  C_17 
REMARK    4  A    between atoms: C_24  and  C_25 
REMARK    5  A    between atoms: C_25  and  N_26 
ROOT
ATOM      1  C   UNK d   1       1.567 -19.433 -38.152  0.00  0.00     0.161 C 
ATOM      2  N   UNK d   1       2.959 -19.466 -38.290  0.00  0.00    -0.331 N 
ATOM      3  C   UNK d   1       3.442 -18.773 -37.078  0.00  0.00     0.295 C 
ATOM      4  O   UNK d   1       4.526 -18.978 -36.465  0.00  0.00    -0.264 OA
ATOM      5  C   UNK d   1       2.382 -17.810 -36.763  0.00  0.00     0.250 C 
ATOM      6  O   UNK d   1       2.340 -16.971 -35.812  0.00  0.00    -0.282 OA
ATOM      7  C   UNK d   1       1.348 -18.003 -37.798  0.00  0.00     0.062 C 
ATOM      8  C   UNK d   1       0.517 -17.106 -38.281  0.00  0.00     0.130 C 
ATOM      9  O   UNK d   1      -0.354 -17.438 -39.311  0.00  0.00    -0.190 OA
ENDROOT
BRANCH   2  10
ATOM     10  C   UNK d   1       3.950 -19.993 -39.217  0.00  0.00     0.155 C 
BRANCH  10  11
ATOM     11  C   UNK d   1       4.311 -21.435 -38.974  0.00  0.00     0.255 C 
BRANCH  11  12
ATOM     12  N   UNK d   1       4.752 -22.125 -40.141  0.00  0.00    -0.066 N 
ATOM     13  C   UNK d   1       5.789 -21.364 -40.812  0.00  0.00     0.261 C 
ATOM     14  C   UNK d   1       6.258 -22.143 -42.013  0.00  0.00     0.195 C 
ATOM     15  O   UNK d   1       5.197 -22.126 -42.933  0.00  0.00    -0.388 OA
ATOM     16  C   UNK d   1       4.145 -22.813 -42.372  0.00  0.00     0.195 C 
ATOM     17  C   UNK d   1       3.635 -22.175 -41.106  0.00  0.00     0.261 C 
ATOM     18  H   UNK d   1       5.062 -23.089 -39.953  0.00  0.00     0.280 HD
ENDBRANCH  11  12
ENDBRANCH  10  11
ENDBRANCH   2  10
BRANCH   1  19
ATOM     19  C   UNK d   1       0.594 -20.111 -38.919  0.00  0.00    -0.030 A 
ATOM     20  C   UNK d   1      -0.511 -20.641 -38.235  0.00  0.00     0.011 A 
ATOM     21  C   UNK d   1      -1.505 -21.325 -38.874  0.00  0.00     0.019 A 
ATOM     22  C   UNK d   1      -1.461 -21.523 -40.237  0.00  0.00     0.011 A 
ATOM     23 Br   UNK d   1      -2.840 -22.477 -41.162  0.00  0.00    -0.051 Br
ATOM     24  C   UNK d   1      -0.381 -21.006 -40.911  0.00  0.00     0.019 A 
ATOM     25  C   UNK d   1       0.633 -20.309 -40.254  0.00  0.00     0.011 A 
ENDBRANCH   1  19
BRANCH   8  26
ATOM     26  C   UNK d   1       0.443 -15.743 -37.781  0.00  0.00     0.001 A 
ATOM     27  C   UNK d   1       1.262 -14.715 -38.130  0.00  0.00     0.015 A 
ATOM     28  C   UNK d   1       1.054 -13.444 -37.611  0.00  0.00     0.007 A 
ATOM     29  C   UNK d   1       0.017 -13.208 -36.737  0.00  0.00    -0.062 A 
ATOM     30  C   UNK d   1      -0.833 -14.220 -36.359  0.00  0.00     0.007 A 
ATOM     31  C   UNK d   1      -0.238 -11.855 -36.159  0.00  0.00     0.048 C 
ATOM     32  C   UNK d   1      -0.606 -15.482 -36.891  0.00  0.00     0.015 A 
ENDBRANCH   8  26
TORSDOF 5
ENDMDL
