MODEL 1
REMARK VINA RESULT:    -6.083      0.000      0.000
REMARK INTER + INTRA:          -8.665
REMARK INTER:                  -7.861
REMARK INTRA:                  -0.804
REMARK UNBOUND:                -0.804
REMARK  5 active torsions:
REMARK  status: ('A' for Active; 'I' for Inactive)
REMARK    1  A    between atoms: C_5  and  C_8 
REMARK    2  A    between atoms: N_9  and  C_24 
REMARK    3  A    between atoms: C_15  and  C_17 
REMARK    4  A    between atoms: C_24  and  C_25 
REMARK    5  A    between atoms: C_25  and  N_26 
ROOT
ATOM      1  C   UNK d   1       1.263 -19.954 -38.227  0.00  0.00     0.161 C 
ATOM      2  N   UNK d   1       2.532 -20.312 -38.745  0.00  0.00    -0.331 N 
ATOM      3  C   UNK d   1       3.465 -19.716 -37.794  0.00  0.00     0.295 C 
ATOM      4  O   UNK d   1       4.621 -20.140 -37.522  0.00  0.00    -0.264 OA
ATOM      5  C   UNK d   1       2.780 -18.548 -37.244  0.00  0.00     0.250 C 
ATOM      6  O   UNK d   1       3.203 -17.724 -36.392  0.00  0.00    -0.282 OA
ATOM      7  C   UNK d   1       1.468 -18.512 -37.894  0.00  0.00     0.062 C 
ATOM      8  C   UNK d   1       0.718 -17.454 -38.143  0.00  0.00     0.130 C 
ATOM      9  O   UNK d   1      -0.478 -17.590 -38.830  0.00  0.00    -0.190 OA
ENDROOT
BRANCH   2  10
ATOM     10  C   UNK d   1       2.973 -21.118 -39.888  0.00  0.00     0.155 C 
BRANCH  10  11
ATOM     11  C   UNK d   1       3.704 -20.346 -40.943  0.00  0.00     0.255 C 
BRANCH  11  12
ATOM     12  N   UNK d   1       5.111 -20.192 -40.650  0.00  0.00    -0.066 N 
ATOM     13  C   UNK d   1       5.809 -19.424 -41.643  0.00  0.00     0.261 C 
ATOM     14  C   UNK d   1       5.964 -20.126 -42.959  0.00  0.00     0.195 C 
ATOM     15  O   UNK d   1       6.517 -21.400 -42.814  0.00  0.00    -0.388 OA
ATOM     16  C   UNK d   1       5.628 -22.121 -42.003  0.00  0.00     0.195 C 
ATOM     17  C   UNK d   1       5.708 -21.516 -40.618  0.00  0.00     0.261 C 
ATOM     18  H   UNK d   1       5.282 -19.759 -39.722  0.00  0.00     0.280 HD
ENDBRANCH  11  12
ENDBRANCH  10  11
ENDBRANCH   2  10
BRANCH   1  19
ATOM     19  C   UNK d   1       0.048 -20.293 -38.862  0.00  0.00    -0.030 A 
ATOM     20  C   UNK d   1      -0.114 -20.292 -40.219  0.00  0.00     0.011 A 
ATOM     21  C   UNK d   1      -1.339 -20.652 -40.798  0.00  0.00     0.019 A 
ATOM     22  C   UNK d   1      -2.420 -21.018 -40.029  0.00  0.00     0.011 A 
ATOM     23 Br   UNK d   1      -4.101 -21.514 -40.765  0.00  0.00    -0.051 Br
ATOM     24  C   UNK d   1      -2.262 -21.019 -38.668  0.00  0.00     0.019 A 
ATOM     25  C   UNK d   1      -1.052 -20.663 -38.116  0.00  0.00     0.011 A 
ENDBRANCH   1  19
BRANCH   8  26
ATOM     26  C   UNK d   1       1.066 -16.103 -37.727  0.00  0.00     0.001 A 
ATOM     27  C   UNK d   1       1.742 -15.350 -38.696  0.00  0.00     0.016 A 
ATOM     28  C   UNK d   1       2.108 -14.042 -38.479  0.00  0.00     0.024 A 
ATOM     29  C   UNK d   1       1.790 -13.465 -37.254  0.00  0.00     0.034 A 
ATOM     30  C   UNK d   1       1.125 -14.211 -36.306  0.00  0.00     0.024 A 
ATOM     31 Cl   UNK d   1       2.261 -11.802 -36.988  0.00  0.00    -0.084 Cl
ATOM     32  C   UNK d   1       0.762 -15.522 -36.535  0.00  0.00     0.016 A 
ENDBRANCH   8  26
TORSDOF 5
ENDMDL
