MODEL 1
REMARK VINA RESULT:    -5.953      0.000      0.000
REMARK INTER + INTRA:          -8.927
REMARK INTER:                  -8.041
REMARK INTRA:                  -0.887
REMARK UNBOUND:                -0.887
REMARK  6 active torsions:
REMARK  status: ('A' for Active; 'I' for Inactive)
REMARK    1  A    between atoms: C_5  and  C_8 
REMARK    2  A    between atoms: N_9  and  C_23 
REMARK    3  A    between atoms: C_15  and  C_17 
REMARK    4  A    between atoms: C_23  and  C_24 
REMARK    5  A    between atoms: C_24  and  C_25 
REMARK    6  A    between atoms: C_25  and  N_26 
ROOT
ATOM      1  C   UNK d   1       2.234 -18.552 -38.402  0.00  0.00     0.161 C 
ATOM      2  N   UNK d   1       3.449 -18.912 -37.745  0.00  0.00    -0.332 N 
ATOM      3  C   UNK d   1       3.301 -18.452 -36.376  0.00  0.00     0.295 C 
ATOM      4  O   UNK d   1       3.972 -18.882 -35.402  0.00  0.00    -0.264 OA
ATOM      5  C   UNK d   1       2.267 -17.435 -36.357  0.00  0.00     0.250 C 
ATOM      6  O   UNK d   1       1.840 -16.781 -35.358  0.00  0.00    -0.282 OA
ATOM      7  C   UNK d   1       1.803 -17.301 -37.723  0.00  0.00     0.062 C 
ATOM      8  C   UNK d   1       1.165 -16.260 -38.227  0.00  0.00     0.130 C 
ATOM      9  O   UNK d   1       0.848 -16.331 -39.605  0.00  0.00    -0.190 OA
ENDROOT
BRANCH   2  10
ATOM     10  C   UNK d   1       4.626 -19.655 -38.197  0.00  0.00     0.129 C 
BRANCH  10  11
ATOM     11  C   UNK d   1       4.390 -21.097 -38.494  0.00  0.00     0.048 C 
BRANCH  11  12
ATOM     12  C   UNK d   1       5.549 -21.717 -39.259  0.00  0.00     0.236 C 
BRANCH  12  13
ATOM     13  N   UNK d   1       5.119 -22.222 -40.542  0.00  0.00    -0.067 N 
ATOM     14  C   UNK d   1       3.766 -21.832 -40.868  0.00  0.00     0.261 C 
ATOM     15  C   UNK d   1       3.598 -22.048 -42.374  0.00  0.00     0.195 C 
ATOM     16  O   UNK d   1       4.257 -21.016 -43.042  0.00  0.00    -0.388 OA
ATOM     17  C   UNK d   1       5.471 -20.702 -42.432  0.00  0.00     0.195 C 
ATOM     18  C   UNK d   1       5.997 -21.863 -41.613  0.00  0.00     0.261 C 
ATOM     19  H   UNK d   1       5.123 -23.267 -40.466  0.00  0.00     0.280 HD
ENDBRANCH  12  13
ENDBRANCH  11  12
ENDBRANCH  10  11
ENDBRANCH   2  10
BRANCH   1  20
ATOM     20  C   UNK d   1       2.232 -18.456 -39.849  0.00  0.00    -0.030 A 
ATOM     21  C   UNK d   1       3.115 -17.789 -40.628  0.00  0.00     0.011 A 
ATOM     22  C   UNK d   1       3.031 -17.784 -42.007  0.00  0.00     0.019 A 
ATOM     23  C   UNK d   1       2.032 -18.465 -42.669  0.00  0.00     0.011 A 
ATOM     24 Br   UNK d   1       1.896 -18.473 -44.574  0.00  0.00    -0.051 Br
ATOM     25  C   UNK d   1       1.115 -19.155 -41.907  0.00  0.00     0.019 A 
ATOM     26  C   UNK d   1       1.219 -19.146 -40.535  0.00  0.00     0.011 A 
ENDBRANCH   1  20
BRANCH   8  27
ATOM     27  C   UNK d   1       0.776 -15.089 -37.467  0.00  0.00     0.004 A 
ATOM     28  C   UNK d   1       1.741 -14.080 -37.354  0.00  0.00     0.033 A 
ATOM     29  C   UNK d   1       1.493 -12.894 -36.696  0.00  0.00     0.117 A 
ATOM     30  N   UNK d   1       0.287 -12.685 -36.138  0.00  0.00    -0.273 NA
ATOM     31  C   UNK d   1      -0.662 -13.639 -36.231  0.00  0.00     0.117 A 
ATOM     32  C   UNK d   1      -0.423 -14.842 -36.894  0.00  0.00     0.033 A 
ENDBRANCH   8  27
TORSDOF 6
ENDMDL
