MODEL 1
REMARK VINA RESULT:    -5.985      0.000      0.000
REMARK INTER + INTRA:          -9.445
REMARK INTER:                  -8.084
REMARK INTRA:                  -1.361
REMARK UNBOUND:                -1.361
REMARK  6 active torsions:
REMARK  status: ('A' for Active; 'I' for Inactive)
REMARK    1  A    between atoms: C_5  and  C_8 
REMARK    2  A    between atoms: N_9  and  C_27 
REMARK    3  A    between atoms: C_15  and  C_17 
REMARK    4  A    between atoms: C_27  and  C_28 
REMARK    5  A    between atoms: C_28  and  C_29 
REMARK    6  A    between atoms: C_29  and  N_30 
ROOT
ATOM      1  C   UNK d   1       2.116 -18.451 -39.030  0.00  0.00     0.161 C 
ATOM      2  N   UNK d   1       2.617 -18.081 -40.366  0.00  0.00    -0.332 N 
ATOM      3  C   UNK d   1       1.603 -17.238 -40.904  0.00  0.00     0.295 C 
ATOM      4  O   UNK d   1       1.404 -17.067 -42.141  0.00  0.00    -0.264 OA
ATOM      5  C   UNK d   1       0.865 -16.628 -39.804  0.00  0.00     0.251 C 
ATOM      6  O   UNK d   1      -0.089 -15.828 -39.892  0.00  0.00    -0.282 OA
ATOM      7  C   UNK d   1       1.483 -17.151 -38.599  0.00  0.00     0.064 C 
ATOM      8  C   UNK d   1       1.525 -16.607 -37.409  0.00  0.00     0.149 C 
ATOM      9  O   UNK d   1       2.207 -17.219 -36.367  0.00  0.00    -0.189 OA
ENDROOT
BRANCH   1  10
ATOM     10  C   UNK d   1       1.024 -19.444 -39.136  0.00  0.00    -0.030 A 
ATOM     11  C   UNK d   1       0.144 -19.653 -38.101  0.00  0.00     0.011 A 
ATOM     12  C   UNK d   1      -0.898 -20.575 -38.186  0.00  0.00     0.019 A 
ATOM     13  C   UNK d   1      -1.075 -21.316 -39.340  0.00  0.00     0.011 A 
ATOM     14 Br   UNK d   1      -2.506 -22.591 -39.479  0.00  0.00    -0.051 Br
ATOM     15  C   UNK d   1      -0.195 -21.105 -40.372  0.00  0.00     0.019 A 
ATOM     16  C   UNK d   1       0.831 -20.193 -40.276  0.00  0.00     0.011 A 
ENDBRANCH   1  10
BRANCH   8  17
ATOM     17  C   UNK d   1       0.863 -15.350 -37.120  0.00  0.00     0.102 A 
ATOM     18  N   UNK d   1       1.247 -14.071 -37.310  0.00  0.00    -0.302 N 
ATOM     19  C   UNK d   1       0.317 -13.220 -36.852  0.00  0.00     0.134 A 
ATOM     20  C   UNK d   1       2.355 -13.531 -37.881  0.00  0.00     0.099 A 
ATOM     21  N   UNK d   1      -0.680 -13.987 -36.360  0.00  0.00    -0.233 NA
ATOM     22  C   UNK d   1       0.447 -11.833 -36.936  0.00  0.00     0.051 A 
ATOM     23  C   UNK d   1      -0.401 -15.268 -36.497  0.00  0.00     0.063 A 
ATOM     24  C   UNK d   1      -1.207 -16.468 -36.102  0.00  0.00     0.073 C 
ATOM     25  C   UNK d   1       1.568 -11.281 -37.512  0.00  0.00     0.005 A 
ATOM     26  C   UNK d   1       2.510 -12.169 -37.979  0.00  0.00     0.018 A 
ENDBRANCH   8  17
BRANCH   2  27
ATOM     27  C   UNK d   1       3.853 -18.511 -40.964  0.00  0.00     0.129 C 
BRANCH  27  28
ATOM     28  C   UNK d   1       4.770 -19.377 -40.193  0.00  0.00     0.048 C 
BRANCH  28  29
ATOM     29  C   UNK d   1       4.772 -20.840 -40.394  0.00  0.00     0.235 C 
BRANCH  29  30
ATOM     30  N   UNK d   1       4.818 -21.679 -39.234  0.00  0.00    -0.079 N 
ATOM     31  C   UNK d   1       6.252 -21.778 -38.839  0.00  0.00     0.269 C 
ATOM     32  C   UNK d   1       4.190 -21.008 -38.115  0.00  0.00     0.269 C 
ATOM     33  H   UNK d   1       4.446 -22.623 -39.331  0.00  0.00     0.278 HD
ENDBRANCH  29  30
ENDBRANCH  28  29
ENDBRANCH  27  28
ENDBRANCH   2  27
TORSDOF 6
ENDMDL
