MODEL 1
REMARK VINA RESULT:    -6.346      0.000      0.000
REMARK INTER + INTRA:          -9.672
REMARK INTER:                  -8.573
REMARK INTRA:                  -1.099
REMARK UNBOUND:                -1.099
REMARK  6 active torsions:
REMARK  status: ('A' for Active; 'I' for Inactive)
REMARK    1  A    between atoms: C_5  and  C_8 
REMARK    2  A    between atoms: N_9  and  C_27 
REMARK    3  A    between atoms: C_15  and  C_17 
REMARK    4  A    between atoms: C_27  and  C_28 
REMARK    5  A    between atoms: C_28  and  C_29 
REMARK    6  A    between atoms: C_29  and  N_30 
ROOT
ATOM      1  C   UNK d   1       1.587 -19.492 -38.290  0.00  0.00     0.161 C 
ATOM      2  N   UNK d   1       2.376 -18.712 -37.432  0.00  0.00    -0.332 N 
ATOM      3  C   UNK d   1       3.471 -19.608 -37.101  0.00  0.00     0.295 C 
ATOM      4  O   UNK d   1       4.201 -19.604 -36.052  0.00  0.00    -0.264 OA
ATOM      5  C   UNK d   1       3.614 -20.554 -38.202  0.00  0.00     0.251 C 
ATOM      6  O   UNK d   1       4.425 -21.520 -38.369  0.00  0.00    -0.282 OA
ATOM      7  C   UNK d   1       2.579 -20.173 -39.161  0.00  0.00     0.064 C 
ATOM      8  C   UNK d   1       2.531 -20.418 -40.457  0.00  0.00     0.149 C 
ATOM      9  O   UNK d   1       1.427 -20.018 -41.198  0.00  0.00    -0.189 OA
ENDROOT
BRANCH   1  10
ATOM     10  C   UNK d   1       0.420 -18.996 -38.952  0.00  0.00    -0.030 A 
ATOM     11  C   UNK d   1       0.387 -17.784 -39.580  0.00  0.00     0.011 A 
ATOM     12  C   UNK d   1      -0.771 -17.349 -40.188  0.00  0.00     0.019 A 
ATOM     13  C   UNK d   1      -1.929 -18.105 -40.191  0.00  0.00     0.011 A 
ATOM     14 Br   UNK d   1      -3.531 -17.502 -41.033  0.00  0.00    -0.051 Br
ATOM     15  C   UNK d   1      -1.886 -19.330 -39.554  0.00  0.00     0.019 A 
ATOM     16  C   UNK d   1      -0.721 -19.747 -38.952  0.00  0.00     0.011 A 
ENDBRANCH   1  10
BRANCH   8  17
ATOM     17  C   UNK d   1       3.602 -21.098 -41.169  0.00  0.00     0.102 A 
ATOM     18  N   UNK d   1       3.584 -22.330 -41.706  0.00  0.00    -0.302 N 
ATOM     19  C   UNK d   1       4.764 -22.587 -42.317  0.00  0.00     0.134 A 
ATOM     20  C   UNK d   1       2.671 -23.344 -41.751  0.00  0.00     0.099 A 
ATOM     21  N   UNK d   1       5.521 -21.490 -42.153  0.00  0.00    -0.233 NA
ATOM     22  C   UNK d   1       5.026 -23.786 -42.946  0.00  0.00     0.051 A 
ATOM     23  C   UNK d   1       4.858 -20.565 -41.463  0.00  0.00     0.063 A 
ATOM     24  C   UNK d   1       5.284 -19.204 -41.042  0.00  0.00     0.073 C 
ATOM     25  C   UNK d   1       4.085 -24.788 -42.976  0.00  0.00     0.005 A 
ATOM     26  C   UNK d   1       2.880 -24.544 -42.356  0.00  0.00     0.018 A 
ENDBRANCH   8  17
BRANCH   2  27
ATOM     27  C   UNK d   1       2.378 -17.418 -36.830  0.00  0.00     0.129 C 
BRANCH  27  28
ATOM     28  C   UNK d   1       1.414 -17.001 -35.834  0.00  0.00     0.048 C 
BRANCH  28  29
ATOM     29  C   UNK d   1       0.308 -16.069 -36.268  0.00  0.00     0.236 C 
BRANCH  29  30
ATOM     30  N   UNK d   1       0.831 -14.948 -37.044  0.00  0.00    -0.067 N 
ATOM     31  C   UNK d   1       1.358 -13.881 -36.246  0.00  0.00     0.261 C 
ATOM     32  C   UNK d   1       0.349 -12.852 -35.827  0.00  0.00     0.195 C 
ATOM     33  O   UNK d   1      -0.950 -13.248 -36.008  0.00  0.00    -0.388 OA
ATOM     34  C   UNK d   1      -1.258 -13.703 -37.263  0.00  0.00     0.195 C 
ATOM     35  C   UNK d   1      -0.142 -14.417 -37.951  0.00  0.00     0.261 C 
ATOM     36  H   UNK d   1       1.631 -15.332 -37.605  0.00  0.00     0.280 HD
ENDBRANCH  29  30
ENDBRANCH  28  29
ENDBRANCH  27  28
ENDBRANCH   2  27
TORSDOF 6
ENDMDL
