MODEL 1
REMARK VINA RESULT:    -6.070      0.000      0.000
REMARK INTER + INTRA:          -9.267
REMARK INTER:                  -7.845
REMARK INTRA:                  -1.422
REMARK UNBOUND:                -1.422
REMARK  5 active torsions:
REMARK  status: ('A' for Active; 'I' for Inactive)
REMARK    1  A    between atoms: C_5  and  C_8 
REMARK    2  A    between atoms: N_9  and  C_27 
REMARK    3  A    between atoms: C_15  and  C_17 
REMARK    4  A    between atoms: C_27  and  C_28 
REMARK    5  A    between atoms: C_28  and  N_29 
ROOT
ATOM      1  C   UNK d   1       0.980 -16.620 -37.184  0.00  0.00     0.161 C 
ATOM      2  N   UNK d   1       1.748 -17.446 -38.074  0.00  0.00    -0.331 N 
ATOM      3  C   UNK d   1       2.010 -16.685 -39.241  0.00  0.00     0.295 C 
ATOM      4  O   UNK d   1       2.484 -17.136 -40.323  0.00  0.00    -0.264 OA
ATOM      5  C   UNK d   1       1.642 -15.288 -38.996  0.00  0.00     0.251 C 
ATOM      6  O   UNK d   1       1.735 -14.321 -39.791  0.00  0.00    -0.282 OA
ATOM      7  C   UNK d   1       1.143 -15.221 -37.634  0.00  0.00     0.064 C 
ATOM      8  C   UNK d   1       0.940 -14.113 -36.941  0.00  0.00     0.149 C 
ATOM      9  O   UNK d   1       0.523 -14.260 -35.603  0.00  0.00    -0.189 OA
ENDROOT
BRANCH   1  10
ATOM     10  C   UNK d   1      -0.451 -17.025 -37.138  0.00  0.00    -0.030 A 
ATOM     11  C   UNK d   1      -1.016 -17.635 -36.042  0.00  0.00     0.011 A 
ATOM     12  C   UNK d   1      -2.334 -18.022 -35.966  0.00  0.00     0.019 A 
ATOM     13  C   UNK d   1      -3.161 -17.799 -37.029  0.00  0.00     0.011 A 
ATOM     14 Br   UNK d   1      -4.989 -18.343 -36.904  0.00  0.00    -0.051 Br
ATOM     15  C   UNK d   1      -2.643 -17.191 -38.148  0.00  0.00     0.019 A 
ATOM     16  C   UNK d   1      -1.323 -16.812 -38.207  0.00  0.00     0.011 A 
ENDBRANCH   1  10
BRANCH   8  17
ATOM     17  C   UNK d   1       1.094 -12.763 -37.422  0.00  0.00     0.102 A 
ATOM     18  N   UNK d   1       2.117 -11.899 -37.412  0.00  0.00    -0.302 N 
ATOM     19  C   UNK d   1       1.756 -10.722 -37.953  0.00  0.00     0.134 A 
ATOM     20  C   UNK d   1       3.390 -12.034 -36.982  0.00  0.00     0.099 A 
ATOM     21  N   UNK d   1       0.468 -10.837 -38.319  0.00  0.00    -0.233 NA
ATOM     22  C   UNK d   1       2.621  -9.642 -38.090  0.00  0.00     0.051 A 
ATOM     23  C   UNK d   1       0.034 -12.061 -38.012  0.00  0.00     0.063 A 
ATOM     24  C   UNK d   1      -1.342 -12.572 -38.265  0.00  0.00     0.073 C 
ATOM     25  C   UNK d   1       3.909  -9.785 -37.652  0.00  0.00     0.005 A 
ATOM     26  C   UNK d   1       4.284 -10.995 -37.097  0.00  0.00     0.018 A 
ENDBRANCH   8  17
BRANCH   2  27
ATOM     27  C   UNK d   1       2.193 -18.835 -37.828  0.00  0.00     0.155 C 
BRANCH  27  28
ATOM     28  C   UNK d   1       3.637 -18.843 -37.376  0.00  0.00     0.254 C 
BRANCH  28  29
ATOM     29  N   UNK d   1       4.509 -19.510 -38.278  0.00  0.00    -0.077 N 
ATOM     30  C   UNK d   1       5.882 -19.221 -37.864  0.00  0.00     0.269 C 
ATOM     31  C   UNK d   1       4.343 -20.929 -38.351  0.00  0.00     0.269 C 
ATOM     32  H   UNK d   1       4.422 -19.135 -39.264  0.00  0.00     0.279 HD
ENDBRANCH  28  29
ENDBRANCH  27  28
ENDBRANCH   2  27
TORSDOF 5
ENDMDL
