MODEL 1
REMARK VINA RESULT:    -7.020      0.000      0.000
REMARK INTER + INTRA:          -9.169
REMARK INTER:                  -8.662
REMARK INTRA:                  -0.507
REMARK UNBOUND:                -0.507
REMARK  4 active torsions:
REMARK  status: ('A' for Active; 'I' for Inactive)
REMARK    1  A    between atoms: C_5  and  N_8 
REMARK       I    between atoms: N_8  and  C_9 
REMARK    2  A    between atoms: C_9  and  C_11 
REMARK    3  A    between atoms: C_11  and  N_12 
REMARK    4  A    between atoms: N_18  and  C_19 
ROOT
ATOM      1  N   UNK d   1       1.176 -16.049 -36.498  0.00  0.00    -0.205 N 
ATOM      2  N   UNK d   1       1.651 -14.946 -37.068  0.00  0.00     0.023 NA
ATOM      3  C   UNK d   1       0.824 -13.974 -37.549  0.00  0.00     0.729 A 
ATOM      4  N   UNK d   1      -0.505 -14.134 -37.448  0.00  0.00    -0.138 N 
ATOM      5  C   UNK d   1      -1.196 -13.008 -38.038  0.00  0.00     0.172 A 
ATOM      6  C   UNK d   1      -0.144 -12.064 -38.539  0.00  0.00     0.169 A 
ATOM      7  N   UNK d   1       1.094 -12.713 -38.152  0.00  0.00    -0.178 N 
ATOM      8  C   UNK d   1      -1.042 -15.224 -36.885  0.00  0.00     0.332 A 
ATOM      9  O   UNK d   1      -2.284 -15.371 -36.792  0.00  0.00    -0.261 OA
ATOM     10  C   UNK d   1      -0.160 -16.175 -36.413  0.00  0.00     0.333 A 
ATOM     11  O   UNK d   1      -0.617 -17.216 -35.877  0.00  0.00    -0.260 OA
ENDROOT
BRANCH   1  12
ATOM     12  C   UNK d   1       2.056 -17.091 -35.944  0.00  0.00     0.258 C 
BRANCH  12  13
ATOM     13  C   UNK d   1       2.596 -17.934 -37.010  0.00  0.00     0.242 C 
ATOM     14  N   UNK d   1       3.684 -18.812 -36.946  0.00  0.00    -0.326 N 
ATOM     15  H   UNK d   1       4.187 -18.871 -36.015  0.00  0.00     0.169 HD
ATOM     16  O   UNK d   1       1.953 -17.814 -38.128  0.00  0.00    -0.271 OA
BRANCH  14  17
ATOM     17  C   UNK d   1       4.159 -19.603 -37.995  0.00  0.00     0.034 A 
ATOM     18  C   UNK d   1       3.624 -20.779 -38.458  0.00  0.00     0.031 A 
ATOM     19  C   UNK d   1       4.161 -21.488 -39.541  0.00  0.00     0.021 A 
ATOM     20  C   UNK d   1       5.269 -21.036 -40.210  0.00  0.00     0.011 A 
ATOM     21 Br   UNK d   1       6.012 -21.986 -41.691  0.00  0.00    -0.051 Br
ATOM     22  C   UNK d   1       5.826 -19.854 -39.762  0.00  0.00     0.021 A 
ATOM     23  C   UNK d   1       5.296 -19.169 -38.704  0.00  0.00     0.031 A 
ENDBRANCH  14  17
ENDBRANCH  12  13
ENDBRANCH   1  12
BRANCH   7  24
ATOM     24  C   UNK d   1       2.364 -12.129 -38.365  0.00  0.00     0.051 A 
ATOM     25  C   UNK d   1       3.037 -12.183 -39.556  0.00  0.00     0.030 A 
ATOM     26  C   UNK d   1       4.287 -11.614 -39.729  0.00  0.00     0.002 A 
ATOM     27  C   UNK d   1       4.892 -10.963 -38.672  0.00  0.00     0.000 A 
ATOM     28  C   UNK d   1       4.240 -10.897 -37.481  0.00  0.00     0.002 A 
ATOM     29  C   UNK d   1       2.996 -11.467 -37.317  0.00  0.00     0.030 A 
ENDBRANCH   7  24
TORSDOF 4
ENDMDL
