MODEL 1
REMARK VINA RESULT:    -7.361      0.000      0.000
REMARK INTER + INTRA:          -9.840
REMARK INTER:                  -9.082
REMARK INTRA:                  -0.758
REMARK UNBOUND:                -0.758
REMARK  4 active torsions:
REMARK  status: ('A' for Active; 'I' for Inactive)
REMARK    1  A    between atoms: C_5  and  N_8 
REMARK       I    between atoms: N_8  and  C_9 
REMARK    2  A    between atoms: C_9  and  C_11 
REMARK    3  A    between atoms: C_11  and  N_12 
REMARK    4  A    between atoms: N_19  and  C_22 
ROOT
ATOM      1  N   UNK d   1       0.828 -16.112 -36.985  0.00  0.00    -0.261 N 
ATOM      2  N   UNK d   1       0.996 -16.085 -35.662  0.00  0.00    -0.239 N 
ATOM      3  N   UNK d   1       1.901 -16.973 -35.319  0.00  0.00    -0.279 N 
ATOM      4  C   UNK d   1       2.337 -17.596 -36.439  0.00  0.00     0.152 A 
ATOM      5  C   UNK d   1       1.664 -17.052 -37.460  0.00  0.00     0.155 A 
ATOM      6  C   UNK d   1       2.134 -17.711 -38.577  0.00  0.00     0.286 A 
ATOM      7  O   UNK d   1       1.716 -17.454 -39.746  0.00  0.00    -0.265 OA
ATOM      8  N   UNK d   1       3.063 -18.628 -38.267  0.00  0.00    -0.241 N 
ATOM      9  C   UNK d   1       3.196 -18.560 -36.912  0.00  0.00     0.286 A 
ATOM     10  O   UNK d   1       3.994 -19.293 -36.266  0.00  0.00    -0.265 OA
ATOM     11  H   UNK d   1       0.470 -15.441 -35.036  0.00  0.00     0.208 HD
ATOM     12  H   UNK d   1       2.262 -17.202 -34.359  0.00  0.00     0.189 HD
ENDROOT
BRANCH   1  13
ATOM     13  C   UNK d   1      -0.097 -15.265 -37.711  0.00  0.00     0.254 C 
BRANCH  13  14
ATOM     14  C   UNK d   1       0.669 -14.072 -38.258  0.00  0.00     0.242 C 
ATOM     15  N   UNK d   1       2.056 -13.988 -38.077  0.00  0.00    -0.326 N 
ATOM     16  H   UNK d   1       2.548 -14.776 -37.547  0.00  0.00     0.169 HD
ATOM     17  O   UNK d   1       0.043 -13.177 -38.863  0.00  0.00    -0.271 OA
BRANCH  15  18
ATOM     18  C   UNK d   1       2.893 -12.946 -38.535  0.00  0.00     0.034 A 
ATOM     19  C   UNK d   1       3.371 -11.907 -37.766  0.00  0.00     0.031 A 
ATOM     20  C   UNK d   1       4.214 -10.920 -38.260  0.00  0.00     0.021 A 
ATOM     21  C   UNK d   1       4.614 -10.942 -39.572  0.00  0.00     0.011 A 
ATOM     22 Br   UNK d   1       5.766  -9.626 -40.315  0.00  0.00    -0.051 Br
ATOM     23  C   UNK d   1       4.148 -11.971 -40.361  0.00  0.00     0.021 A 
ATOM     24  C   UNK d   1       3.324 -12.936 -39.876  0.00  0.00     0.031 A 
ENDBRANCH  15  18
ENDBRANCH  13  14
ENDBRANCH   1  13
BRANCH   8  25
ATOM     25  C   UNK d   1       3.785 -19.509 -39.140  0.00  0.00     0.046 A 
ATOM     26  C   UNK d   1       3.250 -20.718 -39.528  0.00  0.00     0.031 A 
ATOM     27  C   UNK d   1       3.934 -21.566 -40.376  0.00  0.00     0.009 A 
ATOM     28  C   UNK d   1       5.185 -21.251 -40.876  0.00  0.00    -0.062 A 
ATOM     29  C   UNK d   1       5.723 -20.042 -40.489  0.00  0.00     0.009 A 
ATOM     30  C   UNK d   1       5.893 -22.186 -41.792  0.00  0.00     0.048 C 
ATOM     31  C   UNK d   1       5.032 -19.194 -39.638  0.00  0.00     0.031 A 
ENDBRANCH   8  25
TORSDOF 4
ENDMDL
