MODEL 1
REMARK VINA RESULT:    -6.279      0.000      0.000
REMARK INTER + INTRA:          -8.776
REMARK INTER:                  -7.564
REMARK INTRA:                  -1.211
REMARK UNBOUND:                -1.211
REMARK  4 active torsions:
REMARK  status: ('A' for Active; 'I' for Inactive)
REMARK    1  A    between atoms: C_5  and  N_8 
REMARK       I    between atoms: N_8  and  C_9 
REMARK    2  A    between atoms: C_9  and  C_11 
REMARK    3  A    between atoms: C_18  and  N_23 
REMARK    4  A    between atoms: C_20  and  N_22 
ROOT
ATOM      1  C   UNK d   1      -0.240 -16.897 -38.670  0.00  0.00     0.127 C 
ATOM      2  C   UNK d   1      -0.546 -16.344 -37.310  0.00  0.00     0.122 C 
ATOM      3  C   UNK d   1       0.636 -16.070 -36.483  0.00  0.00     0.224 C 
ATOM      4  O   UNK d   1       0.568 -15.127 -35.649  0.00  0.00    -0.273 OA
ATOM      5  N   UNK d   1       1.809 -16.851 -36.633  0.00  0.00    -0.310 N 
ATOM      6  C   UNK d   1       1.976 -17.662 -37.777  0.00  0.00     0.160 A 
ATOM      7  N   UNK d   1       3.111 -18.419 -37.894  0.00  0.00    -0.044 NA
ATOM      8  C   UNK d   1       3.327 -19.217 -38.941  0.00  0.00     0.728 A 
ATOM      9  N   UNK d   1       2.388 -19.260 -39.895  0.00  0.00    -0.045 NA
ATOM     10  C   UNK d   1       1.240 -18.525 -39.828  0.00  0.00     0.151 A 
ATOM     11  C   UNK d   1       0.991 -17.692 -38.755  0.00  0.00     0.048 A 
ATOM     12  H   UNK d   1       2.578 -16.848 -35.903  0.00  0.00     0.170 HD
ENDROOT
BRANCH   1  13
ATOM     13  C   UNK d   1      -0.196 -15.669 -39.605  0.00  0.00     0.231 C 
ATOM     14  N   UNK d   1       0.794 -14.799 -39.499  0.00  0.00    -0.327 N 
ATOM     15  H   UNK d   1       0.165 -13.970 -40.379  0.00  0.00     0.169 HD
ATOM     16  O   UNK d   1      -1.218 -15.694 -40.400  0.00  0.00    -0.272 OA
BRANCH  14  17
ATOM     17  C   UNK d   1       1.821 -13.895 -39.391  0.00  0.00     0.034 A 
ATOM     18  C   UNK d   1       2.586 -13.657 -40.577  0.00  0.00     0.031 A 
ATOM     19  C   UNK d   1       3.571 -12.738 -40.610  0.00  0.00     0.021 A 
ATOM     20  C   UNK d   1       3.890 -11.986 -39.506  0.00  0.00     0.011 A 
ATOM     21 Br   UNK d   1       5.292 -10.677 -39.573  0.00  0.00    -0.051 Br
ATOM     22  C   UNK d   1       3.179 -12.185 -38.343  0.00  0.00     0.021 A 
ATOM     23  C   UNK d   1       2.174 -13.120 -38.308  0.00  0.00     0.031 A 
ENDBRANCH  14  17
ENDBRANCH   1  13
BRANCH  10  24
ATOM     24  N   UNK d   1       0.277 -18.596 -40.874  0.00  0.00    -0.383 N 
ATOM     25  H   UNK d   1      -0.710 -18.819 -40.715  0.00  0.00     0.157 HD
ATOM     26  H   UNK d   1       0.596 -18.417 -41.860  0.00  0.00     0.157 HD
ENDBRANCH  10  24
BRANCH   8  27
ATOM     27  N   UNK d   1       4.536 -20.005 -39.045  0.00  0.00    -0.210 N 
ATOM     28  C   UNK d   1       5.689 -19.512 -38.376  0.00  0.00     0.167 C 
ATOM     29  C   UNK d   1       6.752 -20.545 -38.135  0.00  0.00     0.188 C 
ATOM     30  O   UNK d   1       6.359 -21.817 -38.536  0.00  0.00    -0.388 OA
ATOM     31  C   UNK d   1       5.873 -21.822 -39.837  0.00  0.00     0.188 C 
ATOM     32  C   UNK d   1       4.486 -21.233 -39.811  0.00  0.00     0.167 C 
ENDBRANCH   8  27
TORSDOF 4
ENDMDL
