/Users/jonathanwahrer/Desktop/Msc/3_Semester/Drug_Design_Praktikum/waehrer_HTS_screening/HTS_experiment/out/docking_results/vina_output/6y4q/0385_docked.pdbqt
 OpenBabel03232217343D

 32 35  0  0  1  0  0  0  0  0999 V2000
   -0.2400  -16.8970  -38.6700 C   0  0  2  0  0  3  0  0  0  0  0  0
   -0.5460  -16.3440  -37.3100 C   0  0  0  0  0  2  0  0  0  0  0  0
    0.6360  -16.0700  -36.4830 C   0  0  0  0  0  0  0  0  0  0  0  0
    0.5680  -15.1270  -35.6490 O   0  0  0  0  0  0  0  0  0  0  0  0
    1.8090  -16.8510  -36.6330 N   0  0  0  0  0  0  0  0  0  0  0  0
    1.9760  -17.6620  -37.7770 C   0  0  0  0  0  0  0  0  0  0  0  0
    3.1110  -18.4190  -37.8940 N   0  0  0  0  0  0  0  0  0  0  0  0
    3.3270  -19.2170  -38.9410 C   0  0  0  0  0  0  0  0  0  0  0  0
    2.3880  -19.2600  -39.8950 N   0  0  0  0  0  0  0  0  0  0  0  0
    1.2400  -18.5250  -39.8280 C   0  0  0  0  0  0  0  0  0  0  0  0
    0.9910  -17.6920  -38.7550 C   0  0  0  0  0  0  0  0  0  0  0  0
    2.5780  -16.8480  -35.9030 H   0  0  0  0  0  0  0  0  0  0  0  0
   -0.1960  -15.6690  -39.6050 C   0  0  0  0  0  0  0  0  0  0  0  0
    0.7940  -14.7990  -39.4990 N   0  0  0  0  0  0  0  0  0  0  0  0
    0.1650  -13.9700  -40.3790 H   0  0  0  0  0  0  0  0  0  0  0  0
   -1.2180  -15.6940  -40.4000 O   0  0  0  0  0  0  0  0  0  0  0  0
    1.8210  -13.8950  -39.3910 C   0  0  0  0  0  0  0  0  0  0  0  0
    2.5860  -13.6570  -40.5770 C   0  0  0  0  0  3  0  0  0  0  0  0
    3.5710  -12.7380  -40.6100 C   0  0  0  0  0  3  0  0  0  0  0  0
    3.8900  -11.9860  -39.5060 C   0  0  0  0  0  0  0  0  0  0  0  0
    5.2920  -10.6770  -39.5730 Br  0  0  0  0  0  0  0  0  0  0  0  0
    3.1790  -12.1850  -38.3430 C   0  0  0  0  0  3  0  0  0  0  0  0
    2.1740  -13.1200  -38.3080 C   0  0  0  0  0  3  0  0  0  0  0  0
    0.2770  -18.5960  -40.8740 N   0  0  0  0  0  0  0  0  0  0  0  0
   -0.7100  -18.8190  -40.7150 H   0  0  0  0  0  0  0  0  0  0  0  0
    0.5960  -18.4170  -41.8600 H   0  0  0  0  0  0  0  0  0  0  0  0
    4.5360  -20.0050  -39.0450 N   0  0  0  0  0  0  0  0  0  0  0  0
    5.6890  -19.5120  -38.3760 C   0  0  0  0  0  2  0  0  0  0  0  0
    6.7520  -20.5450  -38.1350 C   0  0  0  0  0  2  0  0  0  0  0  0
    6.3590  -21.8170  -38.5360 O   0  0  0  0  0  0  0  0  0  0  0  0
    5.8730  -21.8220  -39.8370 C   0  0  0  0  0  2  0  0  0  0  0  0
    4.4860  -21.2330  -39.8110 C   0  0  0  0  0  2  0  0  0  0  0  0
  1 13  1  6  0  0  0
  1  2  1  0  0  0  0
  2  3  1  0  0  0  0
  3  4  2  0  0  0  0
  5  3  1  0  0  0  0
  5 12  1  0  0  0  0
  6  5  1  0  0  0  0
  7  6  1  0  0  0  0
  8  7  2  0  0  0  0
  9 10  2  0  0  0  0
  9  8  1  0  0  0  0
 10 11  1  0  0  0  0
 11  1  1  0  0  0  0
 11  6  2  0  0  0  0
 13 14  1  0  0  0  0
 14 17  1  0  0  0  0
 15 14  1  0  0  0  0
 16 13  2  0  0  0  0
 17 23  1  0  0  0  0
 18 17  2  0  0  0  0
 19 18  1  0  0  0  0
 19 20  2  0  0  0  0
 20 22  1  0  0  0  0
 21 20  1  0  0  0  0
 22 23  2  0  0  0  0
 24 25  1  0  0  0  0
 24 10  1  0  0  0  0
 26 24  1  0  0  0  0
 27  8  1  0  0  0  0
 27 28  1  0  0  0  0
 28 29  1  0  0  0  0
 30 29  1  0  0  0  0
 31 32  1  0  0  0  0
 31 30  1  0  0  0  0
 32 27  1  0  0  0  0
M  END
>  <Pose>
1

>  <Score>
-6.279

$$$$
