MODEL 1
REMARK VINA RESULT:    -6.805      0.000      0.000
REMARK INTER + INTRA:         -10.054
REMARK INTER:                  -8.595
REMARK INTRA:                  -1.459
REMARK UNBOUND:                -1.459
REMARK  5 active torsions:
REMARK  status: ('A' for Active; 'I' for Inactive)
REMARK    1  A    between atoms: C_5  and  N_8 
REMARK    2  A    between atoms: C_9  and  C_11 
REMARK    3  A    between atoms: C_18  and  N_23 
REMARK    4  A    between atoms: C_20  and  O_22 
REMARK    5  A    between atoms: C_26  and  C_29 
REMARK       I    between atoms: C_29  and  N_31 
ROOT
ATOM      1  C   UNK d   1       1.302 -15.681 -38.891  0.00  0.00     0.113 C 
ATOM      2  C   UNK d   1       1.579 -15.189 -37.483  0.00  0.00     0.121 C 
ATOM      3  C   UNK d   1       1.150 -16.259 -36.533  0.00  0.00     0.224 C 
ATOM      4  O   UNK d   1       0.444 -15.997 -35.575  0.00  0.00    -0.273 OA
ATOM      5  N   UNK d   1       1.605 -17.557 -36.806  0.00  0.00    -0.310 N 
ATOM      6  C   UNK d   1       2.021 -17.919 -38.108  0.00  0.00     0.160 A 
ATOM      7  N   UNK d   1       2.552 -19.132 -38.363  0.00  0.00    -0.044 NA
ATOM      8  C   UNK d   1       3.052 -19.524 -39.535  0.00  0.00     0.729 A 
ATOM      9  N   UNK d   1       3.002 -18.593 -40.522  0.00  0.00    -0.038 NA
ATOM     10  C   UNK d   1       2.479 -17.353 -40.339  0.00  0.00     0.192 A 
ATOM     11  C   UNK d   1       1.964 -16.956 -39.143  0.00  0.00     0.054 A 
ATOM     12  H   UNK d   1       1.663 -18.310 -36.070  0.00  0.00     0.170 HD
ENDROOT
BRANCH   1  13
ATOM     13  C   UNK d   1       1.340 -14.614 -39.927  0.00  0.00     0.165 C 
ATOM     14  N   UNK d   1       2.304 -13.673 -39.959  0.00  0.00    -0.338 N 
ATOM     15  H   UNK d   1       1.824 -13.208 -41.128  0.00  0.00     0.168 HD
ATOM     16  O   UNK d   1       0.332 -14.761 -40.744  0.00  0.00    -0.176 OA
BRANCH  14  17
ATOM     17  C   UNK d   1       3.285 -12.713 -39.991  0.00  0.00     0.033 A 
ATOM     18  C   UNK d   1       3.986 -12.635 -41.237  0.00  0.00     0.031 A 
ATOM     19  C   UNK d   1       5.015 -11.758 -41.324  0.00  0.00     0.021 A 
ATOM     20  C   UNK d   1       5.413 -10.944 -40.278  0.00  0.00     0.011 A 
ATOM     21 Br   UNK d   1       6.865  -9.754 -40.511  0.00  0.00    -0.051 Br
ATOM     22  C   UNK d   1       4.754 -11.008 -39.083  0.00  0.00     0.021 A 
ATOM     23  C   UNK d   1       3.704 -11.892 -38.972  0.00  0.00     0.031 A 
ENDBRANCH  14  17
ENDBRANCH   1  13
BRANCH  10  24
ATOM     24  O   UNK d   1       2.470 -16.457 -41.404  0.00  0.00    -0.344 OA
ATOM     25  H   UNK d   1       1.642 -16.295 -41.973  0.00  0.00     0.219 HD
ENDBRANCH  10  24
BRANCH   8  26
ATOM     26  N   UNK d   1       3.558 -20.821 -39.790  0.00  0.00    -0.214 N 
ATOM     27  C   UNK d   1       3.313 -21.623 -40.961  0.00  0.00     0.142 C 
ATOM     28  C   UNK d   1       4.604 -22.355 -41.317  0.00  0.00     0.034 C 
ATOM     29  C   UNK d   1       5.825 -21.588 -40.901  0.00  0.00     0.081 C 
ATOM     30  C   UNK d   1       5.848 -21.350 -39.433  0.00  0.00     0.034 C 
ATOM     31  C   UNK d   1       4.441 -21.444 -38.798  0.00  0.00     0.142 C 
BRANCH  29  32
ATOM     32  C   UNK d   1       5.996 -20.347 -41.693  0.00  0.00     0.219 C 
ATOM     33  O   UNK d   1       5.989 -20.446 -42.937  0.00  0.00    -0.273 OA
ATOM     34  N   UNK d   1       6.172 -19.067 -41.121  0.00  0.00    -0.370 N 
ATOM     35  H   UNK d   1       5.696 -18.774 -40.248  0.00  0.00     0.159 HD
ATOM     36  H   UNK d   1       6.806 -18.391 -41.596  0.00  0.00     0.159 HD
ENDBRANCH  29  32
ENDBRANCH   8  26
TORSDOF 5
ENDMDL
