/Users/jonathanwahrer/Desktop/Msc/3_Semester/Drug_Design_Praktikum/waehrer_HTS_screening/HTS_experiment/out/docking_results/vina_output/6y4q/0393_docked.pdbqt
 OpenBabel03232217353D

 27 30  0  0  0  0  0  0  0  0999 V2000
    2.4730  -17.9370  -37.1670 N   0  0  0  0  0  0  0  0  0  0  0  0
    3.4280  -18.1280  -36.2910 N   0  0  0  0  0  0  0  0  0  0  0  0
    4.2710  -19.1150  -36.6540 C   0  0  0  0  0  3  0  0  0  0  0  0
    3.8070  -19.5790  -37.8550 C   0  0  0  0  0  0  0  0  0  0  0  0
    2.6880  -18.8320  -38.1540 C   0  0  0  0  0  0  0  0  0  0  0  0
    4.4100  -20.6560  -38.6300 C   0  0  0  0  0  0  0  0  0  0  0  0
    4.2590  -21.8190  -38.1850 O   0  0  0  0  0  0  0  0  0  0  0  0
    5.1350  -20.4460  -39.8230 N   0  0  0  0  0  0  0  0  0  0  0  0
    5.6920  -21.5840  -40.5150 C   0  0  0  0  0  2  0  0  0  0  0  0
    5.3770  -19.1590  -40.4330 C   0  0  0  0  0  2  0  0  0  0  0  0
    4.9710  -21.7290  -41.8220 C   0  0  0  0  0  2  0  0  0  0  0  0
    4.3290  -20.4880  -42.2390 N   0  0  0  0  0  0  0  0  0  0  0  0
    4.7580  -19.2110  -41.7790 C   0  0  0  0  0  0  0  0  0  0  0  0
    3.5090  -20.5640  -42.9130 H   0  0  0  0  0  0  0  0  0  0  0  0
    4.6020  -18.2010  -42.5060 O   0  0  0  0  0  0  0  0  0  0  0  0
    1.8610  -18.9680  -39.3320 N   0  0  0  0  0  0  0  0  0  0  0  0
    1.7490  -18.1390  -40.3580 C   0  0  0  0  0  3  0  0  0  0  0  0
    0.8550  -18.6310  -41.2810 C   0  0  0  0  0  3  0  0  0  0  0  0
    0.4150  -19.8250  -40.7600 C   0  0  0  0  0  3  0  0  0  0  0  0
    1.0500  -20.0160  -39.5530 C   0  0  0  0  0  3  0  0  0  0  0  0
    1.4300  -16.9640  -37.0630 C   0  0  0  0  0  0  0  0  0  0  0  0
    1.6340  -15.6340  -37.3770 C   0  0  0  0  0  3  0  0  0  0  0  0
    0.6440  -14.6770  -37.2860 C   0  0  0  0  0  3  0  0  0  0  0  0
   -0.6180  -15.0390  -36.8630 C   0  0  0  0  0  0  0  0  0  0  0  0
   -2.0070  -13.7310  -36.7270 Br  0  0  0  0  0  0  0  0  0  0  0  0
   -0.8410  -16.3650  -36.5430 C   0  0  0  0  0  3  0  0  0  0  0  0
    0.1600  -17.3110  -36.6400 C   0  0  0  0  0  3  0  0  0  0  0  0
  1 21  1  0  0  0  0
  1  2  1  0  0  0  0
  3  2  2  0  0  0  0
  4  3  1  0  0  0  0
  5  4  2  0  0  0  0
  5  1  1  0  0  0  0
  6  7  2  0  0  0  0
  6  4  1  0  0  0  0
  8  6  1  0  0  0  0
  9  8  1  0  0  0  0
 10  8  1  0  0  0  0
 11  9  1  0  0  0  0
 12 11  1  0  0  0  0
 12 13  1  0  0  0  0
 13 10  1  0  0  0  0
 14 12  1  0  0  0  0
 15 13  2  0  0  0  0
 16  5  1  0  0  0  0
 17 16  1  0  0  0  0
 18 19  1  0  0  0  0
 18 17  2  0  0  0  0
 19 20  2  0  0  0  0
 20 16  1  0  0  0  0
 21 27  1  0  0  0  0
 22 23  1  0  0  0  0
 22 21  2  0  0  0  0
 23 24  2  0  0  0  0
 24 25  1  0  0  0  0
 24 26  1  0  0  0  0
 27 26  2  0  0  0  0
M  END
>  <Pose>
1

>  <Score>
-5.863

$$$$
