MODEL 1
REMARK VINA RESULT:    -5.863      0.000      0.000
REMARK INTER + INTRA:          -8.122
REMARK INTER:                  -6.891
REMARK INTRA:                  -1.231
REMARK UNBOUND:                -1.231
REMARK  3 active torsions:
REMARK  status: ('A' for Active; 'I' for Inactive)
REMARK    1  A    between atoms: C_5  and  N_8 
REMARK    2  A    between atoms: C_11  and  C_18 
REMARK    3  A    between atoms: C_12  and  N_13 
REMARK       I    between atoms: C_18  and  N_20 
ROOT
ATOM      1  N   UNK d   1       2.473 -17.937 -37.167  0.00  0.00    -0.216 N 
ATOM      2  N   UNK d   1       3.428 -18.128 -36.291  0.00  0.00    -0.177 NA
ATOM      3  C   UNK d   1       4.271 -19.115 -36.654  0.00  0.00     0.160 A 
ATOM      4  C   UNK d   1       3.807 -19.579 -37.855  0.00  0.00     0.097 A 
ATOM      5  C   UNK d   1       2.688 -18.832 -38.154  0.00  0.00     0.153 A 
ENDROOT
BRANCH   4   6
ATOM      6  C   UNK d   1       4.410 -20.656 -38.630  0.00  0.00     0.259 C 
ATOM      7  O   UNK d   1       4.259 -21.819 -38.185  0.00  0.00    -0.267 OA
ATOM      8  N   UNK d   1       5.135 -20.446 -39.823  0.00  0.00    -0.338 N 
ATOM      9  C   UNK d   1       5.692 -21.584 -40.515  0.00  0.00     0.146 C 
ATOM     10  C   UNK d   1       5.377 -19.159 -40.433  0.00  0.00     0.228 C 
ATOM     11  C   UNK d   1       4.971 -21.729 -41.822  0.00  0.00     0.142 C 
ATOM     12  N   UNK d   1       4.329 -20.488 -42.239  0.00  0.00    -0.358 N 
ATOM     13  C   UNK d   1       4.758 -19.211 -41.779  0.00  0.00     0.235 C 
ATOM     14  H   UNK d   1       3.509 -20.564 -42.913  0.00  0.00     0.162 HD
ATOM     15  O   UNK d   1       4.602 -18.201 -42.506  0.00  0.00    -0.272 OA
ENDBRANCH   4   6
BRANCH   5  16
ATOM     16  N   UNK d   1       1.861 -18.968 -39.332  0.00  0.00    -0.317 N 
ATOM     17  C   UNK d   1       1.749 -18.139 -40.358  0.00  0.00     0.098 A 
ATOM     18  C   UNK d   1       0.855 -18.631 -41.281  0.00  0.00     0.019 A 
ATOM     19  C   UNK d   1       0.415 -19.825 -40.760  0.00  0.00     0.019 A 
ATOM     20  C   UNK d   1       1.050 -20.016 -39.553  0.00  0.00     0.098 A 
ENDBRANCH   5  16
BRANCH   1  21
ATOM     21  C   UNK d   1       1.430 -16.964 -37.063  0.00  0.00     0.060 A 
ATOM     22  C   UNK d   1       1.634 -15.634 -37.377  0.00  0.00     0.033 A 
ATOM     23  C   UNK d   1       0.644 -14.677 -37.286  0.00  0.00     0.021 A 
ATOM     24  C   UNK d   1      -0.618 -15.039 -36.863  0.00  0.00     0.011 A 
ATOM     25 Br   UNK d   1      -2.007 -13.731 -36.727  0.00  0.00    -0.051 Br
ATOM     26  C   UNK d   1      -0.841 -16.365 -36.543  0.00  0.00     0.021 A 
ATOM     27  C   UNK d   1       0.160 -17.311 -36.640  0.00  0.00     0.033 A 
ENDBRANCH   1  21
TORSDOF 3
ENDMDL
