MODEL 1
REMARK VINA RESULT:    -6.550      0.000      0.000
REMARK INTER + INTRA:          -8.237
REMARK INTER:                  -7.699
REMARK INTRA:                  -0.538
REMARK UNBOUND:                -0.538
REMARK  3 active torsions:
REMARK  status: ('A' for Active; 'I' for Inactive)
REMARK    1  A    between atoms: C_5  and  N_8 
REMARK    2  A    between atoms: N_15  and  C_18 
REMARK    3  A    between atoms: C_18  and  C_19 
REMARK       I    between atoms: C_19  and  N_21 
ROOT
ATOM      1  N   UNK d   1       3.052 -19.637 -38.107  0.00  0.00    -0.218 N 
ATOM      2  N   UNK d   1       3.445 -20.641 -37.342  0.00  0.00     0.012 NA
ATOM      3  N   UNK d   1       4.340 -21.396 -37.958  0.00  0.00    -0.150 NA
ATOM      4  C   UNK d   1       4.564 -20.881 -39.196  0.00  0.00     0.190 A 
ATOM      5  C   UNK d   1       3.736 -19.775 -39.257  0.00  0.00     0.185 A 
ATOM      6  N   UNK d   1       3.754 -19.064 -40.390  0.00  0.00    -0.222 NA
ATOM      7  C   UNK d   1       4.547 -19.421 -41.415  0.00  0.00     0.215 A 
ATOM      8  N   UNK d   1       5.360 -20.501 -41.364  0.00  0.00    -0.298 N 
ATOM      9  C   UNK d   1       5.372 -21.241 -40.249  0.00  0.00     0.283 A 
ATOM     10  O   UNK d   1       6.122 -22.240 -40.198  0.00  0.00    -0.265 OA
ENDROOT
BRANCH   8  11
ATOM     11  C   UNK d   1       6.178 -20.807 -42.523  0.00  0.00     0.236 C 
BRANCH  11  12
ATOM     12  C   UNK d   1       5.464 -21.785 -43.419  0.00  0.00     0.238 C 
ATOM     13  O   UNK d   1       4.381 -21.469 -43.981  0.00  0.00    -0.272 OA
ATOM     14  N   UNK d   1       5.993 -23.078 -43.649  0.00  0.00    -0.346 N 
ATOM     15  C   UNK d   1       5.317 -24.024 -44.504  0.00  0.00     0.157 C 
ATOM     16  C   UNK d   1       7.231 -23.479 -43.022  0.00  0.00     0.157 C 
ATOM     17  C   UNK d   1       5.333 -25.360 -43.783  0.00  0.00     0.136 C 
ATOM     18  O   UNK d   1       6.590 -25.775 -43.424  0.00  0.00    -0.378 OA
ATOM     19  C   UNK d   1       4.789 -26.388 -44.781  0.00  0.00     0.041 C 
ATOM     20  C   UNK d   1       7.579 -24.838 -43.593  0.00  0.00     0.136 C 
ATOM     21  C   UNK d   1       8.915 -25.277 -43.071  0.00  0.00     0.041 C 
ENDBRANCH  11  12
ENDBRANCH   8  11
BRANCH   1  22
ATOM     22  C   UNK d   1       2.103 -18.613 -37.802  0.00  0.00     0.057 A 
ATOM     23  C   UNK d   1       2.433 -17.598 -36.929  0.00  0.00     0.032 A 
ATOM     24  C   UNK d   1       1.517 -16.601 -36.629  0.00  0.00     0.021 A 
ATOM     25  C   UNK d   1       0.253 -16.578 -37.180  0.00  0.00     0.011 A 
ATOM     26 Br   UNK d   1      -0.993 -15.190 -36.749  0.00  0.00    -0.051 Br
ATOM     27  C   UNK d   1      -0.077 -17.593 -38.053  0.00  0.00     0.021 A 
ATOM     28  C   UNK d   1       0.836 -18.584 -38.350  0.00  0.00     0.032 A 
ENDBRANCH   1  22
TORSDOF 3
ENDMDL
