MODEL 1
REMARK VINA RESULT:    -7.451      0.000      0.000
REMARK INTER + INTRA:          -9.199
REMARK INTER:                  -8.758
REMARK INTRA:                  -0.441
REMARK UNBOUND:                -0.441
REMARK  3 active torsions:
REMARK  status: ('A' for Active; 'I' for Inactive)
REMARK    1  A    between atoms: C_5  and  N_8 
REMARK    2  A    between atoms: C_11  and  N_15 
REMARK    3  A    between atoms: N_18  and  C_21 
ROOT
ATOM      1  N   UNK d   1       0.541 -15.212 -36.973  0.00  0.00    -0.251 N 
ATOM      2  C   UNK d   1      -0.867 -15.302 -37.160  0.00  0.00     0.262 C 
ATOM      3  O   UNK d   1      -1.576 -14.423 -37.695  0.00  0.00    -0.270 OA
ATOM      4  C   UNK d   1      -1.394 -16.571 -36.639  0.00  0.00     0.289 C 
ATOM      5  C   UNK d   1      -0.335 -16.959 -35.613  0.00  0.00     0.146 C 
ATOM      6  C   UNK d   1       0.910 -16.368 -36.197  0.00  0.00     0.233 C 
ATOM      7  O   UNK d   1       2.026 -16.878 -35.981  0.00  0.00    -0.273 OA
ENDROOT
BRANCH   4   8
ATOM      8  N   UNK d   1      -1.551 -17.622 -37.619  0.00  0.00    -0.055 N 
ATOM      9  C   UNK d   1      -1.034 -17.249 -38.914  0.00  0.00     0.255 C 
ATOM     10  C   UNK d   1       0.361 -17.758 -39.199  0.00  0.00     0.150 C 
ATOM     11  N   UNK d   1       0.534 -19.109 -38.730  0.00  0.00    -0.378 N 
ATOM     12  C   UNK d   1      -0.688 -19.761 -38.324  0.00  0.00     0.150 C 
ATOM     13  C   UNK d   1      -1.191 -18.909 -37.143  0.00  0.00     0.255 C 
ATOM     14  H   UNK d   1      -2.615 -17.659 -37.776  0.00  0.00     0.281 HD
BRANCH  11  15
ATOM     15  C   UNK d   1       1.772 -19.754 -38.645  0.00  0.00     0.030 A 
ATOM     16  C   UNK d   1       2.591 -19.771 -37.534  0.00  0.00     0.032 A 
ATOM     17  C   UNK d   1       3.822 -20.407 -37.512  0.00  0.00     0.042 A 
ATOM     18  C   UNK d   1       4.280 -21.057 -38.626  0.00  0.00     0.107 A 
ATOM     19  C   UNK d   1       3.501 -21.070 -39.766  0.00  0.00     0.042 A 
ATOM     20  O   UNK d   1       5.509 -21.716 -38.671  0.00  0.00    -0.192 OA
ATOM     21  C   UNK d   1       2.276 -20.429 -39.764  0.00  0.00     0.032 A 
ENDBRANCH  11  15
ENDBRANCH   4   8
BRANCH   1  22
ATOM     22  C   UNK d   1       1.450 -14.211 -37.438  0.00  0.00     0.045 A 
ATOM     23  C   UNK d   1       1.906 -13.221 -36.617  0.00  0.00     0.031 A 
ATOM     24  C   UNK d   1       2.794 -12.243 -37.077  0.00  0.00     0.021 A 
ATOM     25  C   UNK d   1       3.242 -12.239 -38.370  0.00  0.00     0.011 A 
ATOM     26 Br   UNK d   1       4.458 -10.905 -39.008  0.00  0.00    -0.051 Br
ATOM     27  C   UNK d   1       2.786 -13.236 -39.201  0.00  0.00     0.021 A 
ATOM     28  C   UNK d   1       1.895 -14.212 -38.729  0.00  0.00     0.031 A 
ENDBRANCH   1  22
TORSDOF 3
ENDMDL
