MODEL 1
REMARK VINA RESULT:    -6.511      0.000      0.000
REMARK INTER + INTRA:          -9.611
REMARK INTER:                  -8.034
REMARK INTRA:                  -1.577
REMARK UNBOUND:                -1.577
REMARK  4 active torsions:
REMARK  status: ('A' for Active; 'I' for Inactive)
REMARK    1  A    between atoms: C_5  and  N_8 
REMARK    2  A    between atoms: C_11  and  N_15 
REMARK    3  A    between atoms: C_18  and  N_21 
REMARK    4  A    between atoms: C_18  and  C_27 
REMARK       I    between atoms: C_27  and  N_29 
ROOT
ATOM      1  N   UNK d   1      -0.689 -14.647 -37.035  0.00  0.00    -0.399 N 
ATOM      2  C   UNK d   1       0.023 -14.471 -38.236  0.00  0.00     0.120 C 
ATOM      3  C   UNK d   1      -0.066 -12.995 -38.646  0.00  0.00     0.060 C 
ATOM      4  C   UNK d   1       0.684 -12.112 -37.674  0.00  0.00     0.112 C 
ATOM      5  C   UNK d   1       0.441 -12.576 -36.294  0.00  0.00     0.060 C 
ATOM      6  C   UNK d   1      -0.746 -13.502 -36.208  0.00  0.00     0.120 C 
ENDROOT
BRANCH   1   7
ATOM      7  C   UNK d   1      -0.657 -15.897 -36.389  0.00  0.00     0.181 C 
ATOM      8  C   UNK d   1       0.727 -16.439 -36.416  0.00  0.00     0.254 C 
ATOM      9  N   UNK d   1       0.730 -17.577 -37.284  0.00  0.00    -0.251 N 
ATOM     10  O   UNK d   1       1.695 -15.957 -35.780  0.00  0.00    -0.270 OA
ATOM     11  C   UNK d   1      -0.603 -18.072 -37.254  0.00  0.00     0.233 C 
ATOM     12  C   UNK d   1      -1.545 -16.944 -37.021  0.00  0.00     0.138 C 
ATOM     13  O   UNK d   1      -0.921 -19.304 -37.406  0.00  0.00    -0.273 OA
BRANCH   9  14
ATOM     14  C   UNK d   1       1.845 -18.093 -38.016  0.00  0.00     0.045 A 
ATOM     15  C   UNK d   1       1.933 -17.885 -39.366  0.00  0.00     0.031 A 
ATOM     16  C   UNK d   1       3.018 -18.381 -40.099  0.00  0.00     0.021 A 
ATOM     17  C   UNK d   1       4.032 -19.092 -39.499  0.00  0.00     0.011 A 
ATOM     18 Br   UNK d   1       5.519 -19.775 -40.490  0.00  0.00    -0.051 Br
ATOM     19  C   UNK d   1       3.944 -19.302 -38.140  0.00  0.00     0.021 A 
ATOM     20  C   UNK d   1       2.866 -18.805 -37.426  0.00  0.00     0.031 A 
ENDBRANCH   9  14
ENDBRANCH   1   7
BRANCH   4  21
ATOM     21  N   UNK d   1       2.022 -12.030 -38.090  0.00  0.00    -0.396 N 
ATOM     22  C   UNK d   1       3.038 -12.229 -37.144  0.00  0.00     0.118 C 
ATOM     23  C   UNK d   1       3.946 -10.988 -37.198  0.00  0.00     0.019 C 
ATOM     24  C   UNK d   1       4.585 -11.008 -38.572  0.00  0.00     0.003 C 
ATOM     25  C   UNK d   1       3.888 -11.906 -39.540  0.00  0.00     0.019 C 
ATOM     26  C   UNK d   1       2.358 -11.842 -39.417  0.00  0.00     0.118 C 
ENDBRANCH   4  21
BRANCH   4  27
ATOM     27  C   UNK d   1       0.073 -10.744 -37.827  0.00  0.00     0.243 C 
ATOM     28  O   UNK d   1      -0.904 -10.574 -38.617  0.00  0.00    -0.271 OA
ATOM     29  N   UNK d   1       0.540  -9.610 -37.120  0.00  0.00    -0.368 N 
ATOM     30  H   UNK d   1       0.926  -8.811 -37.637  0.00  0.00     0.159 HD
ATOM     31  H   UNK d   1       0.497  -9.572 -36.083  0.00  0.00     0.159 HD
ENDBRANCH   4  27
TORSDOF 4
ENDMDL
