/Users/jonathanwahrer/Desktop/Msc/3_Semester/Drug_Design_Praktikum/waehrer_HTS_screening/HTS_experiment/out/docking_results/vina_output/6y4q/0400_docked.pdbqt
 OpenBabel03232217353D

 31 34  0  0  1  0  0  0  0  0999 V2000
   -0.6890  -14.6470  -37.0350 N   0  0  2  0  0  0  0  0  0  0  0  0
    0.0230  -14.4710  -38.2360 C   0  0  0  0  0  2  0  0  0  0  0  0
   -0.0660  -12.9950  -38.6460 C   0  0  0  0  0  2  0  0  0  0  0  0
    0.6840  -12.1120  -37.6740 C   0  0  1  0  0  0  0  0  0  0  0  0
    0.4410  -12.5760  -36.2940 C   0  0  0  0  0  2  0  0  0  0  0  0
   -0.7460  -13.5020  -36.2080 C   0  0  0  0  0  2  0  0  0  0  0  0
   -0.6570  -15.8970  -36.3890 C   0  0  2  0  0  3  0  0  0  0  0  0
    0.7270  -16.4390  -36.4160 C   0  0  0  0  0  0  0  0  0  0  0  0
    0.7300  -17.5770  -37.2840 N   0  0  0  0  0  0  0  0  0  0  0  0
    1.6950  -15.9570  -35.7800 O   0  0  0  0  0  0  0  0  0  0  0  0
   -0.6030  -18.0720  -37.2540 C   0  0  0  0  0  0  0  0  0  0  0  0
   -1.5450  -16.9440  -37.0210 C   0  0  0  0  0  2  0  0  0  0  0  0
   -0.9210  -19.3040  -37.4060 O   0  0  0  0  0  0  0  0  0  0  0  0
    1.8450  -18.0930  -38.0160 C   0  0  0  0  0  0  0  0  0  0  0  0
    1.9330  -17.8850  -39.3660 C   0  0  0  0  0  3  0  0  0  0  0  0
    3.0180  -18.3810  -40.0990 C   0  0  0  0  0  3  0  0  0  0  0  0
    4.0320  -19.0920  -39.4990 C   0  0  0  0  0  0  0  0  0  0  0  0
    5.5190  -19.7750  -40.4900 Br  0  0  0  0  0  0  0  0  0  0  0  0
    3.9440  -19.3020  -38.1400 C   0  0  0  0  0  3  0  0  0  0  0  0
    2.8660  -18.8050  -37.4260 C   0  0  0  0  0  3  0  0  0  0  0  0
    2.0220  -12.0300  -38.0900 N   0  0  0  0  0  0  0  0  0  0  0  0
    3.0380  -12.2290  -37.1440 C   0  0  0  0  0  2  0  0  0  0  0  0
    3.9460  -10.9880  -37.1980 C   0  0  0  0  0  2  0  0  0  0  0  0
    4.5850  -11.0080  -38.5720 C   0  0  0  0  0  2  0  0  0  0  0  0
    3.8880  -11.9060  -39.5400 C   0  0  0  0  0  2  0  0  0  0  0  0
    2.3580  -11.8420  -39.4170 C   0  0  0  0  0  2  0  0  0  0  0  0
    0.0730  -10.7440  -37.8270 C   0  0  0  0  0  0  0  0  0  0  0  0
   -0.9040  -10.5740  -38.6170 O   0  0  0  0  0  0  0  0  0  0  0  0
    0.5400   -9.6100  -37.1200 N   0  0  0  0  0  0  0  0  0  0  0  0
    0.9260   -8.8110  -37.6370 H   0  0  0  0  0  0  0  0  0  0  0  0
    0.4970   -9.5720  -36.0830 H   0  0  0  0  0  0  0  0  0  0  0  0
  1  2  1  1  0  0  0
  1  7  1  0  0  0  0
  1  6  1  0  0  0  0
  3  2  1  0  0  0  0
  3  4  1  0  0  0  0
  4 27  1  6  0  0  0
  4  5  1  0  0  0  0
  5  6  1  0  0  0  0
  7 12  1  6  0  0  0
  8  7  1  0  0  0  0
  8 10  2  0  0  0  0
  9 11  1  0  0  0  0
  9  8  1  0  0  0  0
 11 12  1  0  0  0  0
 13 11  2  0  0  0  0
 14 20  1  0  0  0  0
 14  9  1  0  0  0  0
 15 14  2  0  0  0  0
 16 17  2  0  0  0  0
 16 15  1  0  0  0  0
 17 19  1  0  0  0  0
 18 17  1  0  0  0  0
 19 20  2  0  0  0  0
 21  4  1  0  0  0  0
 21 22  1  0  0  0  0
 23 22  1  0  0  0  0
 24 23  1  0  0  0  0
 25 26  1  0  0  0  0
 25 24  1  0  0  0  0
 26 21  1  0  0  0  0
 27 29  1  0  0  0  0
 28 27  2  0  0  0  0
 29 31  1  0  0  0  0
 30 29  1  0  0  0  0
M  END
>  <Pose>
1

>  <Score>
-6.511

$$$$
