MODEL 1
REMARK VINA RESULT:    -7.484      0.000      0.000
REMARK INTER + INTRA:         -10.188
REMARK INTER:                  -9.234
REMARK INTRA:                  -0.954
REMARK UNBOUND:                -0.954
REMARK  4 active torsions:
REMARK  status: ('A' for Active; 'I' for Inactive)
REMARK    1  A    between atoms: C_5  and  N_8 
REMARK    2  A    between atoms: N_15  and  C_16 
REMARK    3  A    between atoms: C_16  and  C_17 
REMARK       I    between atoms: C_17  and  N_19 
REMARK    4  A    between atoms: N_19  and  C_20 
ROOT
ATOM      1  N   UNK d   1       3.023 -18.586 -38.438  0.00  0.00    -0.241 N 
ATOM      2  C   UNK d   1       2.203 -17.565 -38.742  0.00  0.00     0.286 A 
ATOM      3  O   UNK d   1       1.878 -17.252 -39.928  0.00  0.00    -0.265 OA
ATOM      4  C   UNK d   1       1.769 -16.912 -37.588  0.00  0.00     0.155 A 
ATOM      5  C   UNK d   1       2.343 -17.559 -36.578  0.00  0.00     0.152 A 
ATOM      6  N   UNK d   1       1.912 -16.913 -35.479  0.00  0.00    -0.279 N 
ATOM      7  N   UNK d   1       1.110 -15.918 -35.816  0.00  0.00    -0.239 N 
ATOM      8  N   UNK d   1       1.014 -15.908 -37.123  0.00  0.00    -0.261 N 
ATOM      9  C   UNK d   1       3.113 -18.585 -37.088  0.00  0.00     0.286 A 
ATOM     10  O   UNK d   1       3.800 -19.407 -36.443  0.00  0.00    -0.265 OA
ATOM     11  H   UNK d   1       2.212 -17.214 -34.517  0.00  0.00     0.189 HD
ATOM     12  H   UNK d   1       0.661 -15.284 -35.115  0.00  0.00     0.208 HD
ENDROOT
BRANCH   8  13
ATOM     13  C   UNK d   1       0.247 -14.999 -37.937  0.00  0.00     0.254 C 
BRANCH  13  14
ATOM     14  C   UNK d   1       0.976 -13.708 -38.171  0.00  0.00     0.242 C 
ATOM     15  O   UNK d   1       0.229 -12.713 -38.331  0.00  0.00    -0.271 OA
ATOM     16  N   UNK d   1       2.370 -13.627 -38.208  0.00  0.00    -0.325 N 
ATOM     17  H   UNK d   1       2.873 -14.565 -38.054  0.00  0.00     0.169 HD
BRANCH  16  18
ATOM     18  C   UNK d   1       3.148 -12.482 -38.418  0.00  0.00     0.040 A 
ATOM     19  C   UNK d   1       3.653 -12.278 -39.712  0.00  0.00    -0.035 A 
ATOM     20  C   UNK d   1       4.420 -11.168 -39.963  0.00  0.00     0.009 A 
ATOM     21  C   UNK d   1       3.375 -13.230 -40.805  0.00  0.00     0.050 C 
ATOM     22  C   UNK d   1       4.723 -10.233 -38.997  0.00  0.00     0.001 A 
ATOM     23  C   UNK d   1       4.237 -10.425 -37.737  0.00  0.00     0.002 A 
ATOM     24  C   UNK d   1       3.465 -11.537 -37.473  0.00  0.00     0.030 A 
ENDBRANCH  16  18
ENDBRANCH  13  14
ENDBRANCH   8  13
BRANCH   1  25
ATOM     25  C   UNK d   1       3.663 -19.481 -39.343  0.00  0.00     0.046 A 
ATOM     26  C   UNK d   1       4.912 -19.184 -39.861  0.00  0.00     0.031 A 
ATOM     27  C   UNK d   1       5.552 -20.037 -40.740  0.00  0.00     0.021 A 
ATOM     28  C   UNK d   1       4.969 -21.221 -41.136  0.00  0.00     0.011 A 
ATOM     29 Br   UNK d   1       5.861 -22.405 -42.358  0.00  0.00    -0.051 Br
ATOM     30  C   UNK d   1       3.727 -21.528 -40.627  0.00  0.00     0.021 A 
ATOM     31  C   UNK d   1       3.098 -20.672 -39.752  0.00  0.00     0.031 A 
ENDBRANCH   1  25
TORSDOF 4
ENDMDL
