/Users/jonathanwahrer/Desktop/Msc/3_Semester/Drug_Design_Praktikum/waehrer_HTS_screening/HTS_experiment/out/docking_results/vina_output/6y4q/0411_docked.pdbqt
 OpenBabel03232217363D

 34 37  0  0  0  0  0  0  0  0999 V2000
    2.9350  -18.5420  -38.4050 N   0  0  0  0  0  0  0  0  0  0  0  0
    2.0410  -17.5780  -38.6800 C   0  0  0  0  0  0  0  0  0  0  0  0
    1.6530  -17.3310  -39.8510 O   0  0  0  0  0  0  0  0  0  0  0  0
    1.6340  -16.9290  -37.5270 C   0  0  0  0  0  0  0  0  0  0  0  0
    2.2930  -17.5110  -36.5330 C   0  0  0  0  0  0  0  0  0  0  0  0
    1.8980  -16.8810  -35.4150 N   0  0  0  0  0  0  0  0  0  0  0  0
    1.0220  -15.9400  -35.7190 N   0  0  0  0  0  0  0  0  0  0  0  0
    0.8450  -15.9540  -37.0130 N   0  0  0  0  0  0  0  0  0  0  0  0
    3.0930  -18.5000  -37.0630 C   0  0  0  0  0  0  0  0  0  0  0  0
    3.8650  -19.2630  -36.3940 O   0  0  0  0  0  0  0  0  0  0  0  0
    2.2110  -17.0750  -34.4430 H   0  0  0  0  0  0  0  0  0  0  0  0
    0.5310  -15.2760  -35.0490 H   0  0  0  0  0  0  0  0  0  0  0  0
   -0.0200  -15.1030  -37.7940 C   0  0  0  0  0  2  0  0  0  0  0  0
    0.7610  -13.8960  -38.2590 C   0  0  0  0  0  0  0  0  0  0  0  0
    0.1480  -12.8370  -38.5210 O   0  0  0  0  0  0  0  0  0  0  0  0
    2.1550  -13.9680  -38.3920 N   0  0  0  0  0  0  0  0  0  0  0  0
    2.6120  -14.9070  -38.1500 H   0  0  0  0  0  0  0  0  0  0  0  0
    3.0010  -12.9210  -38.8080 C   0  0  0  0  0  0  0  0  0  0  0  0
    3.4500  -11.8890  -38.0240 C   0  0  0  0  0  3  0  0  0  0  0  0
    4.2640  -10.8810  -38.4970 C   0  0  0  0  0  0  0  0  0  0  0  0
    4.6410  -10.9210  -39.8230 C   0  0  0  0  0  0  0  0  0  0  0  0
    4.2100  -11.9470  -40.6490 C   0  0  0  0  0  3  0  0  0  0  0  0
    3.4010  -12.9350  -40.1580 C   0  0  0  0  0  3  0  0  0  0  0  0
    4.7050   -9.8450  -37.6760 O   0  0  0  0  0  0  0  0  0  0  0  0
    3.8460   -8.7070  -37.5270 C   0  0  0  0  0  1  0  0  0  0  0  0
    5.4640   -9.9140  -40.3210 O   0  0  0  0  0  0  0  0  0  0  0  0
    6.8400  -10.1780  -40.5090 C   0  0  0  0  0  1  0  0  0  0  0  0
    3.6060  -19.4440  -39.2770 C   0  0  0  0  0  0  0  0  0  0  0  0
    3.1360  -20.7110  -39.5530 C   0  0  0  0  0  3  0  0  0  0  0  0
    3.8200  -21.5670  -40.4110 C   0  0  0  0  0  3  0  0  0  0  0  0
    4.9980  -21.1770  -41.0170 C   0  0  0  0  0  0  0  0  0  0  0  0
    5.9440  -22.3500  -42.1990 Br  0  0  0  0  0  0  0  0  0  0  0  0
    5.4620  -19.9080  -40.7350 C   0  0  0  0  0  3  0  0  0  0  0  0
    4.7820  -19.0600  -39.8840 C   0  0  0  0  0  3  0  0  0  0  0  0
  1  9  1  0  0  0  0
  2  1  1  0  0  0  0
  2  4  1  0  0  0  0
  3  2  2  0  0  0  0
  4  8  1  0  0  0  0
  4  5  2  0  0  0  0
  5  6  1  0  0  0  0
  6 11  1  0  0  0  0
  7  6  1  0  0  0  0
  7 12  1  0  0  0  0
  8  7  1  0  0  0  0
  9  5  1  0  0  0  0
  9 10  2  0  0  0  0
 13  8  1  0  0  0  0
 14 13  1  0  0  0  0
 15 14  2  0  0  0  0
 16 14  1  0  0  0  0
 16 17  1  0  0  0  0
 18 16  1  0  0  0  0
 18 19  1  0  0  0  0
 20 19  2  0  0  0  0
 20 24  1  0  0  0  0
 21 20  1  0  0  0  0
 22 23  1  0  0  0  0
 22 21  2  0  0  0  0
 23 18  2  0  0  0  0
 24 25  1  0  0  0  0
 26 21  1  0  0  0  0
 27 26  1  0  0  0  0
 28  1  1  0  0  0  0
 29 28  1  0  0  0  0
 30 29  2  0  0  0  0
 31 33  2  0  0  0  0
 31 30  1  0  0  0  0
 32 31  1  0  0  0  0
 33 34  1  0  0  0  0
 34 28  2  0  0  0  0
M  END
>  <Pose>
1

>  <Score>
-7.017

$$$$
