MODEL 1
REMARK VINA RESULT:    -7.017      0.000      0.000
REMARK INTER + INTRA:         -10.424
REMARK INTER:                  -9.478
REMARK INTRA:                  -0.945
REMARK UNBOUND:                -0.945
REMARK  6 active torsions:
REMARK  status: ('A' for Active; 'I' for Inactive)
REMARK    1  A    between atoms: C_5  and  N_8 
REMARK    2  A    between atoms: N_15  and  C_16 
REMARK    3  A    between atoms: C_16  and  C_17 
REMARK       I    between atoms: C_17  and  N_19 
REMARK    4  A    between atoms: N_19  and  C_20 
REMARK    5  A    between atoms: C_22  and  O_28 
REMARK    6  A    between atoms: C_23  and  O_26 
ROOT
ATOM      1  N   UNK d   1       2.935 -18.542 -38.405  0.00  0.00    -0.241 N 
ATOM      2  C   UNK d   1       2.041 -17.578 -38.680  0.00  0.00     0.286 A 
ATOM      3  O   UNK d   1       1.653 -17.331 -39.851  0.00  0.00    -0.265 OA
ATOM      4  C   UNK d   1       1.634 -16.929 -37.527  0.00  0.00     0.155 A 
ATOM      5  C   UNK d   1       2.293 -17.511 -36.533  0.00  0.00     0.152 A 
ATOM      6  N   UNK d   1       1.898 -16.881 -35.415  0.00  0.00    -0.279 N 
ATOM      7  N   UNK d   1       1.022 -15.940 -35.719  0.00  0.00    -0.239 N 
ATOM      8  N   UNK d   1       0.845 -15.954 -37.013  0.00  0.00    -0.261 N 
ATOM      9  C   UNK d   1       3.093 -18.500 -37.063  0.00  0.00     0.286 A 
ATOM     10  O   UNK d   1       3.865 -19.263 -36.394  0.00  0.00    -0.265 OA
ATOM     11  H   UNK d   1       2.211 -17.075 -34.443  0.00  0.00     0.189 HD
ATOM     12  H   UNK d   1       0.531 -15.276 -35.049  0.00  0.00     0.208 HD
ENDROOT
BRANCH   8  13
ATOM     13  C   UNK d   1      -0.020 -15.103 -37.794  0.00  0.00     0.254 C 
BRANCH  13  14
ATOM     14  C   UNK d   1       0.761 -13.896 -38.259  0.00  0.00     0.242 C 
ATOM     15  O   UNK d   1       0.148 -12.837 -38.521  0.00  0.00    -0.271 OA
ATOM     16  N   UNK d   1       2.155 -13.968 -38.392  0.00  0.00    -0.326 N 
ATOM     17  H   UNK d   1       2.612 -14.907 -38.150  0.00  0.00     0.169 HD
BRANCH  16  18
ATOM     18  C   UNK d   1       3.001 -12.921 -38.808  0.00  0.00     0.037 A 
ATOM     19  C   UNK d   1       3.450 -11.889 -38.024  0.00  0.00     0.069 A 
ATOM     20  C   UNK d   1       4.264 -10.881 -38.497  0.00  0.00     0.103 A 
ATOM     21  C   UNK d   1       4.641 -10.921 -39.823  0.00  0.00     0.101 A 
ATOM     22  C   UNK d   1       4.210 -11.947 -40.649  0.00  0.00     0.042 A 
ATOM     23  C   UNK d   1       3.401 -12.935 -40.158  0.00  0.00     0.032 A 
BRANCH  20  24
ATOM     24  O   UNK d   1       4.705  -9.845 -37.676  0.00  0.00    -0.353 OA
ATOM     25  C   UNK d   1       3.846  -8.707 -37.527  0.00  0.00     0.210 C 
ENDBRANCH  20  24
BRANCH  21  26
ATOM     26  O   UNK d   1       5.464  -9.914 -40.321  0.00  0.00    -0.353 OA
ATOM     27  C   UNK d   1       6.840 -10.178 -40.509  0.00  0.00     0.210 C 
ENDBRANCH  21  26
ENDBRANCH  16  18
ENDBRANCH  13  14
ENDBRANCH   8  13
BRANCH   1  28
ATOM     28  C   UNK d   1       3.606 -19.444 -39.277  0.00  0.00     0.046 A 
ATOM     29  C   UNK d   1       3.136 -20.711 -39.553  0.00  0.00     0.031 A 
ATOM     30  C   UNK d   1       3.820 -21.567 -40.411  0.00  0.00     0.021 A 
ATOM     31  C   UNK d   1       4.998 -21.177 -41.017  0.00  0.00     0.011 A 
ATOM     32 Br   UNK d   1       5.944 -22.350 -42.199  0.00  0.00    -0.051 Br
ATOM     33  C   UNK d   1       5.462 -19.908 -40.735  0.00  0.00     0.021 A 
ATOM     34  C   UNK d   1       4.782 -19.060 -39.884  0.00  0.00     0.031 A 
ENDBRANCH   1  28
TORSDOF 6
ENDMDL
