MODEL 1
REMARK VINA RESULT:    -6.599      0.000      0.000
REMARK INTER + INTRA:          -9.786
REMARK INTER:                  -8.914
REMARK INTRA:                  -0.872
REMARK UNBOUND:                -0.872
REMARK  6 active torsions:
REMARK  status: ('A' for Active; 'I' for Inactive)
REMARK    1  A    between atoms: C_5  and  N_8 
REMARK    2  A    between atoms: N_15  and  C_16 
REMARK    3  A    between atoms: C_16  and  C_17 
REMARK       I    between atoms: C_17  and  N_19 
REMARK    4  A    between atoms: N_19  and  C_20 
REMARK    5  A    between atoms: C_22  and  O_28 
REMARK    6  A    between atoms: C_24  and  O_26 
ROOT
ATOM      1  N   UNK d   1       2.894 -18.448 -38.499  0.00  0.00    -0.241 N 
ATOM      2  C   UNK d   1       2.092 -17.419 -38.785  0.00  0.00     0.286 A 
ATOM      3  O   UNK d   1       1.756 -17.082 -39.969  0.00  0.00    -0.265 OA
ATOM      4  C   UNK d   1       1.656 -16.739 -37.672  0.00  0.00     0.155 A 
ATOM      5  C   UNK d   1       2.226 -17.396 -36.643  0.00  0.00     0.152 A 
ATOM      6  N   UNK d   1       1.811 -16.745 -35.530  0.00  0.00    -0.279 N 
ATOM      7  N   UNK d   1       1.022 -15.738 -35.861  0.00  0.00    -0.239 N 
ATOM      8  N   UNK d   1       0.923 -15.730 -37.175  0.00  0.00    -0.261 N 
ATOM      9  C   UNK d   1       2.981 -18.436 -37.133  0.00  0.00     0.286 A 
ATOM     10  O   UNK d   1       3.662 -19.275 -36.495  0.00  0.00    -0.265 OA
ATOM     11  H   UNK d   1       2.092 -17.020 -34.560  0.00  0.00     0.189 HD
ATOM     12  H   UNK d   1       0.584 -15.092 -35.150  0.00  0.00     0.208 HD
ENDROOT
BRANCH   8  13
ATOM     13  C   UNK d   1       0.149 -14.788 -37.930  0.00  0.00     0.254 C 
BRANCH  13  14
ATOM     14  C   UNK d   1       0.940 -13.707 -38.513  0.00  0.00     0.242 C 
ATOM     15  O   UNK d   1       0.414 -12.725 -39.112  0.00  0.00    -0.271 OA
ATOM     16  N   UNK d   1       2.347 -13.777 -38.403  0.00  0.00    -0.326 N 
ATOM     17  H   UNK d   1       2.813 -14.599 -37.909  0.00  0.00     0.169 HD
BRANCH  16  18
ATOM     18  C   UNK d   1       3.131 -12.736 -38.964  0.00  0.00     0.040 A 
ATOM     19  C   UNK d   1       3.476 -12.872 -40.286  0.00  0.00     0.066 A 
ATOM     20  C   UNK d   1       4.274 -11.903 -40.905  0.00  0.00     0.073 A 
ATOM     21  C   UNK d   1       4.711 -10.820 -40.189  0.00  0.00     0.073 A 
ATOM     22  C   UNK d   1       4.371 -10.670 -38.846  0.00  0.00     0.073 A 
ATOM     23  C   UNK d   1       3.578 -11.646 -38.263  0.00  0.00     0.066 A 
BRANCH  20  24
ATOM     24  O   UNK d   1       4.553 -12.138 -42.230  0.00  0.00    -0.356 OA
ATOM     25  C   UNK d   1       4.906 -13.366 -42.751  0.00  0.00     0.210 C 
ENDBRANCH  20  24
BRANCH  22  26
ATOM     26  O   UNK d   1       4.852  -9.557 -38.188  0.00  0.00    -0.356 OA
ATOM     27  C   UNK d   1       4.285  -8.923 -37.084  0.00  0.00     0.210 C 
ENDBRANCH  22  26
ENDBRANCH  16  18
ENDBRANCH  13  14
ENDBRANCH   8  13
BRANCH   1  28
ATOM     28  C   UNK d   1       3.536 -19.383 -39.371  0.00  0.00     0.046 A 
ATOM     29  C   UNK d   1       4.822 -19.172 -39.806  0.00  0.00     0.031 A 
ATOM     30  C   UNK d   1       5.446 -20.094 -40.660  0.00  0.00     0.021 A 
ATOM     31  C   UNK d   1       4.791 -21.226 -41.081  0.00  0.00     0.011 A 
ATOM     32 Br   UNK d   1       5.647 -22.497 -42.251  0.00  0.00    -0.051 Br
ATOM     33  C   UNK d   1       3.503 -21.435 -40.644  0.00  0.00     0.021 A 
ATOM     34  C   UNK d   1       2.899 -20.525 -39.809  0.00  0.00     0.031 A 
ENDBRANCH   1  28
TORSDOF 6
ENDMDL
