MODEL 1
REMARK VINA RESULT:    -7.102      0.000      0.000
REMARK INTER + INTRA:         -11.115
REMARK INTER:                 -10.009
REMARK INTRA:                  -1.107
REMARK UNBOUND:                -1.107
REMARK  7 active torsions:
REMARK  status: ('A' for Active; 'I' for Inactive)
REMARK    1  A    between atoms: C_5  and  N_8 
REMARK    2  A    between atoms: N_15  and  C_16 
REMARK    3  A    between atoms: C_16  and  C_17 
REMARK       I    between atoms: C_17  and  N_19 
REMARK    4  A    between atoms: N_19  and  C_20 
REMARK    5  A    between atoms: C_23  and  C_26 
REMARK    6  A    between atoms: C_26  and  O_28 
REMARK    7  A    between atoms: O_28  and  C_29 
ROOT
ATOM      1  N   UNK d   1       3.177 -18.678 -38.206  0.00  0.00    -0.241 N 
ATOM      2  C   UNK d   1       2.223 -17.780 -38.558  0.00  0.00     0.286 A 
ATOM      3  O   UNK d   1       1.804 -17.555 -39.736  0.00  0.00    -0.265 OA
ATOM      4  C   UNK d   1       1.760 -17.129 -37.427  0.00  0.00     0.155 A 
ATOM      5  C   UNK d   1       2.444 -17.647 -36.411  0.00  0.00     0.152 A 
ATOM      6  N   UNK d   1       2.009 -17.025 -35.289  0.00  0.00    -0.279 N 
ATOM      7  N   UNK d   1       1.075 -16.152 -35.655  0.00  0.00    -0.239 N 
ATOM      8  N   UNK d   1       0.896 -16.187 -36.961  0.00  0.00    -0.261 N 
ATOM      9  C   UNK d   1       3.319 -18.600 -36.875  0.00  0.00     0.286 A 
ATOM     10  O   UNK d   1       4.117 -19.287 -36.199  0.00  0.00    -0.265 OA
ATOM     11  H   UNK d   1       2.351 -17.208 -34.324  0.00  0.00     0.189 HD
ATOM     12  H   UNK d   1       0.566 -15.533 -35.001  0.00  0.00     0.208 HD
ENDROOT
BRANCH   8  13
ATOM     13  C   UNK d   1      -0.018 -15.410 -37.790  0.00  0.00     0.254 C 
BRANCH  13  14
ATOM     14  C   UNK d   1       0.681 -14.154 -38.250  0.00  0.00     0.242 C 
ATOM     15  O   UNK d   1      -0.122 -13.221 -38.503  0.00  0.00    -0.271 OA
ATOM     16  N   UNK d   1       2.070 -14.128 -38.350  0.00  0.00    -0.326 N 
ATOM     17  H   UNK d   1       2.569 -15.036 -38.085  0.00  0.00     0.169 HD
BRANCH  16  18
ATOM     18  C   UNK d   1       2.881 -13.041 -38.762  0.00  0.00     0.034 A 
ATOM     19  C   UNK d   1       3.357 -12.846 -40.037  0.00  0.00     0.030 A 
ATOM     20  C   UNK d   1       4.156 -11.742 -40.365  0.00  0.00     0.020 A 
ATOM     21  C   UNK d   1       4.499 -10.802 -39.423  0.00  0.00     0.039 A 
ATOM     22  C   UNK d   1       4.028 -10.987 -38.146  0.00  0.00     0.020 A 
ATOM     23  C   UNK d   1       3.241 -12.076 -37.825  0.00  0.00     0.030 A 
BRANCH  21  24
ATOM     24  C   UNK d   1       5.333  -9.669 -39.811  0.00  0.00     0.293 C 
ATOM     25  O   UNK d   1       5.461  -8.721 -38.995  0.00  0.00    -0.259 OA
BRANCH  24  26
ATOM     26  O   UNK d   1       5.988  -9.565 -41.006  0.00  0.00    -0.318 OA
BRANCH  26  27
ATOM     27  C   UNK d   1       7.363  -9.384 -41.184  0.00  0.00     0.174 C 
ATOM     28  C   UNK d   1       8.052 -10.563 -40.482  0.00  0.00     0.034 C 
ENDBRANCH  26  27
ENDBRANCH  24  26
ENDBRANCH  21  24
ENDBRANCH  16  18
ENDBRANCH  13  14
ENDBRANCH   8  13
BRANCH   1  29
ATOM     29  C   UNK d   1       3.858 -19.514 -39.139  0.00  0.00     0.046 A 
ATOM     30  C   UNK d   1       3.270 -20.699 -39.551  0.00  0.00     0.031 A 
ATOM     31  C   UNK d   1       3.891 -21.521 -40.440  0.00  0.00     0.021 A 
ATOM     32  C   UNK d   1       5.127 -21.215 -40.969  0.00  0.00     0.011 A 
ATOM     33 Br   UNK d   1       6.031 -22.334 -42.214  0.00  0.00    -0.051 Br
ATOM     34  C   UNK d   1       5.700 -20.035 -40.551  0.00  0.00     0.021 A 
ATOM     35  C   UNK d   1       5.088 -19.198 -39.658  0.00  0.00     0.031 A 
ENDBRANCH   1  29
TORSDOF 7
ENDMDL
