/Users/jonathanwahrer/Desktop/Msc/3_Semester/Drug_Design_Praktikum/waehrer_HTS_screening/HTS_experiment/out/docking_results/vina_output/6y4q/0416_docked.pdbqt
 OpenBabel03232217373D

 33 36  0  0  0  0  0  0  0  0999 V2000
    3.0180  -18.6000  -38.4110 N   0  0  0  0  0  0  0  0  0  0  0  0
    2.1630  -17.5880  -38.7320 C   0  0  0  0  0  0  0  0  0  0  0  0
    1.8300  -17.3040  -39.9070 O   0  0  0  0  0  0  0  0  0  0  0  0
    1.7270  -16.9350  -37.5990 C   0  0  0  0  0  0  0  0  0  0  0  0
    2.3140  -17.5460  -36.5800 C   0  0  0  0  0  0  0  0  0  0  0  0
    1.9070  -16.9270  -35.4570 N   0  0  0  0  0  0  0  0  0  0  0  0
    1.0800  -15.9510  -35.8040 N   0  0  0  0  0  0  0  0  0  0  0  0
    0.9470  -15.9280  -37.1160 N   0  0  0  0  0  0  0  0  0  0  0  0
    3.1010  -18.5610  -37.0740 C   0  0  0  0  0  0  0  0  0  0  0  0
    3.8160  -19.3660  -36.3970 O   0  0  0  0  0  0  0  0  0  0  0  0
    2.1670  -17.1470  -34.4800 H   0  0  0  0  0  0  0  0  0  0  0  0
    0.6020  -15.2950  -35.1200 H   0  0  0  0  0  0  0  0  0  0  0  0
    0.1610  -15.0310  -37.9120 C   0  0  0  0  0  2  0  0  0  0  0  0
    0.9070  -13.7830  -38.3240 C   0  0  0  0  0  0  0  0  0  0  0  0
    0.1980  -12.8450  -38.7470 O   0  0  0  0  0  0  0  0  0  0  0  0
    2.2940  -13.6910  -38.2320 N   0  0  0  0  0  0  0  0  0  0  0  0
    2.7890  -14.5740  -37.8570 H   0  0  0  0  0  0  0  0  0  0  0  0
    3.1540  -12.6270  -38.5530 C   0  0  0  0  0  0  0  0  0  0  0  0
    3.6460  -12.4930  -39.8510 C   0  0  0  0  0  3  0  0  0  0  0  0
    4.5000  -11.4830  -40.2030 C   0  0  0  0  0  3  0  0  0  0  0  0
    4.9080  -10.5430  -39.2550 C   0  0  0  0  0  0  0  0  0  0  0  0
    4.4050  -10.7010  -37.9870 C   0  0  0  0  0  3  0  0  0  0  0  0
    3.5460  -11.7130  -37.6280 C   0  0  0  0  0  3  0  0  0  0  0  0
    5.7700   -9.5470  -39.6510 O   0  0  0  0  0  0  0  0  0  0  0  0
    6.6470   -9.5830  -40.7290 C   0  0  0  0  0  2  0  0  0  0  0  0
    7.9060  -10.3400  -40.4760 C   0  0  0  0  0  1  0  0  0  0  0  0
    3.6820  -19.4960  -39.2980 C   0  0  0  0  0  0  0  0  0  0  0  0
    3.1310  -20.6800  -39.7430 C   0  0  0  0  0  3  0  0  0  0  0  0
    3.8120  -21.5280  -40.6030 C   0  0  0  0  0  3  0  0  0  0  0  0
    5.0790  -21.2270  -41.0570 C   0  0  0  0  0  0  0  0  0  0  0  0
    6.0360  -22.3820  -42.2370 Br  0  0  0  0  0  0  0  0  0  0  0  0
    5.6300  -20.0340  -40.6080 C   0  0  0  0  0  3  0  0  0  0  0  0
    4.9520  -19.1900  -39.7520 C   0  0  0  0  0  3  0  0  0  0  0  0
  1  9  1  0  0  0  0
  2  1  1  0  0  0  0
  2  4  1  0  0  0  0
  3  2  2  0  0  0  0
  4  8  1  0  0  0  0
  4  5  2  0  0  0  0
  5  6  1  0  0  0  0
  6 11  1  0  0  0  0
  7  6  1  0  0  0  0
  7 12  1  0  0  0  0
  8  7  1  0  0  0  0
  9  5  1  0  0  0  0
  9 10  2  0  0  0  0
 13  8  1  0  0  0  0
 14 16  1  0  0  0  0
 14 13  1  0  0  0  0
 15 14  2  0  0  0  0
 16 17  1  0  0  0  0
 18 16  1  0  0  0  0
 18 23  1  0  0  0  0
 19 18  2  0  0  0  0
 20 19  1  0  0  0  0
 20 21  2  0  0  0  0
 21 22  1  0  0  0  0
 22 23  2  0  0  0  0
 24 21  1  0  0  0  0
 25 26  1  0  0  0  0
 25 24  1  0  0  0  0
 27  1  1  0  0  0  0
 28 27  1  0  0  0  0
 29 28  2  0  0  0  0
 30 32  2  0  0  0  0
 30 29  1  0  0  0  0
 31 30  1  0  0  0  0
 32 33  1  0  0  0  0
 33 27  2  0  0  0  0
M  END
>  <Pose>
1

>  <Score>
-7.260

$$$$
