MODEL 1
REMARK VINA RESULT:    -7.260      0.000      0.000
REMARK INTER + INTRA:         -10.850
REMARK INTER:                  -9.807
REMARK INTRA:                  -1.044
REMARK UNBOUND:                -1.044
REMARK  6 active torsions:
REMARK  status: ('A' for Active; 'I' for Inactive)
REMARK    1  A    between atoms: C_5  and  N_8 
REMARK    2  A    between atoms: N_15  and  C_16 
REMARK    3  A    between atoms: C_16  and  C_17 
REMARK       I    between atoms: C_17  and  N_19 
REMARK    4  A    between atoms: N_19  and  C_20 
REMARK    5  A    between atoms: C_23  and  O_26 
REMARK    6  A    between atoms: O_26  and  C_27 
ROOT
ATOM      1  N   UNK d   1       3.018 -18.600 -38.411  0.00  0.00    -0.241 N 
ATOM      2  C   UNK d   1       2.163 -17.588 -38.732  0.00  0.00     0.286 A 
ATOM      3  O   UNK d   1       1.830 -17.304 -39.907  0.00  0.00    -0.265 OA
ATOM      4  C   UNK d   1       1.727 -16.935 -37.599  0.00  0.00     0.155 A 
ATOM      5  C   UNK d   1       2.314 -17.546 -36.580  0.00  0.00     0.152 A 
ATOM      6  N   UNK d   1       1.907 -16.927 -35.457  0.00  0.00    -0.279 N 
ATOM      7  N   UNK d   1       1.080 -15.951 -35.804  0.00  0.00    -0.239 N 
ATOM      8  N   UNK d   1       0.947 -15.928 -37.116  0.00  0.00    -0.261 N 
ATOM      9  C   UNK d   1       3.101 -18.561 -37.074  0.00  0.00     0.286 A 
ATOM     10  O   UNK d   1       3.816 -19.366 -36.397  0.00  0.00    -0.265 OA
ATOM     11  H   UNK d   1       2.167 -17.147 -34.480  0.00  0.00     0.189 HD
ATOM     12  H   UNK d   1       0.602 -15.295 -35.120  0.00  0.00     0.208 HD
ENDROOT
BRANCH   8  13
ATOM     13  C   UNK d   1       0.161 -15.031 -37.912  0.00  0.00     0.254 C 
BRANCH  13  14
ATOM     14  C   UNK d   1       0.907 -13.783 -38.324  0.00  0.00     0.242 C 
ATOM     15  O   UNK d   1       0.198 -12.845 -38.747  0.00  0.00    -0.271 OA
ATOM     16  N   UNK d   1       2.294 -13.691 -38.232  0.00  0.00    -0.326 N 
ATOM     17  H   UNK d   1       2.789 -14.574 -37.857  0.00  0.00     0.169 HD
BRANCH  16  18
ATOM     18  C   UNK d   1       3.154 -12.627 -38.553  0.00  0.00     0.034 A 
ATOM     19  C   UNK d   1       3.646 -12.493 -39.851  0.00  0.00     0.032 A 
ATOM     20  C   UNK d   1       4.500 -11.483 -40.203  0.00  0.00     0.039 A 
ATOM     21  C   UNK d   1       4.908 -10.543 -39.255  0.00  0.00     0.068 A 
ATOM     22  C   UNK d   1       4.405 -10.701 -37.987  0.00  0.00     0.039 A 
ATOM     23  C   UNK d   1       3.546 -11.713 -37.628  0.00  0.00     0.032 A 
BRANCH  21  24
ATOM     24  O   UNK d   1       5.770  -9.547 -39.651  0.00  0.00    -0.352 OA
BRANCH  24  25
ATOM     25  C   UNK d   1       6.647  -9.583 -40.729  0.00  0.00     0.171 C 
ATOM     26  C   UNK d   1       7.906 -10.340 -40.476  0.00  0.00     0.034 C 
ENDBRANCH  24  25
ENDBRANCH  21  24
ENDBRANCH  16  18
ENDBRANCH  13  14
ENDBRANCH   8  13
BRANCH   1  27
ATOM     27  C   UNK d   1       3.682 -19.496 -39.298  0.00  0.00     0.046 A 
ATOM     28  C   UNK d   1       3.131 -20.680 -39.743  0.00  0.00     0.031 A 
ATOM     29  C   UNK d   1       3.812 -21.528 -40.603  0.00  0.00     0.021 A 
ATOM     30  C   UNK d   1       5.079 -21.227 -41.057  0.00  0.00     0.011 A 
ATOM     31 Br   UNK d   1       6.036 -22.382 -42.237  0.00  0.00    -0.051 Br
ATOM     32  C   UNK d   1       5.630 -20.034 -40.608  0.00  0.00     0.021 A 
ATOM     33  C   UNK d   1       4.952 -19.190 -39.752  0.00  0.00     0.031 A 
ENDBRANCH   1  27
TORSDOF 6
ENDMDL
