/Users/jonathanwahrer/Desktop/Msc/3_Semester/Drug_Design_Praktikum/waehrer_HTS_screening/HTS_experiment/out/docking_results/vina_output/6y4q/0421_docked.pdbqt
 OpenBabel03232217373D

 28 31  0  0  0  0  0  0  0  0999 V2000
   -0.2390  -16.2070  -37.3610 N   0  0  0  0  0  0  0  0  0  0  0  0
    0.7430  -17.0580  -37.7310 C   0  0  0  0  0  0  0  0  0  0  0  0
    1.9370  -16.7670  -38.0640 O   0  0  0  0  0  0  0  0  0  0  0  0
    0.2940  -18.3660  -37.7140 C   0  0  0  0  0  0  0  0  0  0  0  0
   -0.9810  -18.2880  -37.3240 C   0  0  0  0  0  0  0  0  0  0  0  0
   -1.4240  -19.5690  -37.3050 N   0  0  0  0  0  0  0  0  0  0  0  0
   -0.4330  -20.3630  -37.6740 N   0  0  0  0  0  0  0  0  0  0  0  0
    0.6470  -19.6440  -37.9340 N   0  0  0  0  0  0  0  0  0  0  0  0
   -1.3160  -16.9690  -37.1060 C   0  0  0  0  0  0  0  0  0  0  0  0
   -2.4200  -16.5010  -36.7320 O   0  0  0  0  0  0  0  0  0  0  0  0
   -2.4020  -19.8540  -37.0380 H   0  0  0  0  0  0  0  0  0  0  0  0
   -0.4530  -21.4120  -37.7620 H   0  0  0  0  0  0  0  0  0  0  0  0
    1.9230  -20.1360  -38.3600 C   0  0  0  0  0  0  0  0  0  0  0  0
    2.1460  -20.4900  -39.6750 C   0  0  0  0  0  3  0  0  0  0  0  0
    3.3730  -20.9690  -40.1190 C   0  0  0  0  0  3  0  0  0  0  0  0
    4.4210  -21.1060  -39.2340 C   0  0  0  0  0  0  0  0  0  0  0  0
    4.2010  -20.7530  -37.9200 C   0  0  0  0  0  3  0  0  0  0  0  0
    2.9760  -20.2750  -37.4800 C   0  0  0  0  0  3  0  0  0  0  0  0
    5.6900  -21.5950  -39.6590 N   0  0  0  0  0  0  0  0  0  0  0  0
    5.9940  -21.6950  -40.8620 O   0  0  0  0  0  0  0  0  0  0  0  0
    6.6050  -21.9660  -38.7250 O   0  0  0  0  0  0  0  0  0  0  0  0
   -0.1280  -14.7810  -37.2660 C   0  0  0  0  0  0  0  0  0  0  0  0
    0.4210  -14.1520  -36.1690 C   0  0  0  0  0  3  0  0  0  0  0  0
    0.5140  -12.7640  -36.1070 C   0  0  0  0  0  3  0  0  0  0  0  0
    0.0610  -11.9740  -37.1440 C   0  0  0  0  0  0  0  0  0  0  0  0
    0.1810  -10.0640  -37.0780 Br  0  0  0  0  0  0  0  0  0  0  0  0
   -0.4870  -12.6000  -38.2430 C   0  0  0  0  0  3  0  0  0  0  0  0
   -0.5760  -13.9780  -38.2950 C   0  0  0  0  0  3  0  0  0  0  0  0
  1 22  1  0  0  0  0
  1  9  1  0  0  0  0
  2  4  1  0  0  0  0
  2  1  1  0  0  0  0
  3  2  2  0  0  0  0
  4  5  2  0  0  0  0
  5  6  1  0  0  0  0
  5  9  1  0  0  0  0
  6 11  1  0  0  0  0
  7  6  1  0  0  0  0
  8  4  1  0  0  0  0
  8  7  1  0  0  0  0
  9 10  2  0  0  0  0
 12  7  1  0  0  0  0
 13  8  1  0  0  0  0
 13 18  1  0  0  0  0
 14 13  2  0  0  0  0
 15 14  1  0  0  0  0
 15 16  2  0  0  0  0
 16 17  1  0  0  0  0
 17 18  2  0  0  0  0
 19 16  1  0  0  0  0
 19 21  2  0  0  0  0
 20 19  2  0  0  0  0
 22 23  1  0  0  0  0
 23 24  2  0  0  0  0
 25 26  1  0  0  0  0
 25 24  1  0  0  0  0
 27 25  2  0  0  0  0
 28 27  1  0  0  0  0
 28 22  2  0  0  0  0
M  END
>  <Pose>
1

>  <Score>
-6.268

$$$$
