MODEL 1
REMARK VINA RESULT:    -6.268      0.000      0.000
REMARK INTER + INTRA:          -8.082
REMARK INTER:                  -7.367
REMARK INTRA:                  -0.715
REMARK UNBOUND:                -0.715
REMARK  3 active torsions:
REMARK  status: ('A' for Active; 'I' for Inactive)
REMARK    1  A    between atoms: C_5  and  N_8 
REMARK    2  A    between atoms: N_15  and  C_16 
REMARK    3  A    between atoms: C_19  and  N_22 
ROOT
ATOM      1  N   UNK d   1      -0.239 -16.207 -37.361  0.00  0.00    -0.241 N 
ATOM      2  C   UNK d   1       0.743 -17.058 -37.731  0.00  0.00     0.286 A 
ATOM      3  O   UNK d   1       1.937 -16.767 -38.064  0.00  0.00    -0.265 OA
ATOM      4  C   UNK d   1       0.294 -18.366 -37.714  0.00  0.00     0.160 A 
ATOM      5  C   UNK d   1      -0.981 -18.288 -37.324  0.00  0.00     0.152 A 
ATOM      6  N   UNK d   1      -1.424 -19.569 -37.305  0.00  0.00    -0.278 N 
ATOM      7  N   UNK d   1      -0.433 -20.363 -37.674  0.00  0.00    -0.234 N 
ATOM      8  N   UNK d   1       0.647 -19.644 -37.934  0.00  0.00    -0.234 N 
ATOM      9  C   UNK d   1      -1.316 -16.969 -37.106  0.00  0.00     0.286 A 
ATOM     10  O   UNK d   1      -2.420 -16.501 -36.732  0.00  0.00    -0.265 OA
ATOM     11  H   UNK d   1      -2.402 -19.854 -37.038  0.00  0.00     0.189 HD
ATOM     12  H   UNK d   1      -0.453 -21.412 -37.762  0.00  0.00     0.209 HD
ENDROOT
BRANCH   8  13
ATOM     13  C   UNK d   1       1.923 -20.136 -38.360  0.00  0.00     0.058 A 
ATOM     14  C   UNK d   1       2.146 -20.490 -39.675  0.00  0.00     0.034 A 
ATOM     15  C   UNK d   1       3.373 -20.969 -40.119  0.00  0.00     0.038 A 
ATOM     16  C   UNK d   1       4.421 -21.106 -39.234  0.00  0.00     0.103 A 
ATOM     17  C   UNK d   1       4.201 -20.753 -37.920  0.00  0.00     0.038 A 
ATOM     18  C   UNK d   1       2.976 -20.275 -37.480  0.00  0.00     0.034 A 
BRANCH  16  19
ATOM     19  N   UNK d   1       5.690 -21.595 -39.659  0.00  0.00    -0.116 N 
ATOM     20  O   UNK d   1       5.994 -21.695 -40.862  0.00  0.00    -0.532 OA
ATOM     21  O   UNK d   1       6.605 -21.966 -38.725  0.00  0.00    -0.532 OA
ENDBRANCH  16  19
ENDBRANCH   8  13
BRANCH   1  22
ATOM     22  C   UNK d   1      -0.128 -14.781 -37.266  0.00  0.00     0.046 A 
ATOM     23  C   UNK d   1       0.421 -14.152 -36.169  0.00  0.00     0.031 A 
ATOM     24  C   UNK d   1       0.514 -12.764 -36.107  0.00  0.00     0.021 A 
ATOM     25  C   UNK d   1       0.061 -11.974 -37.144  0.00  0.00     0.011 A 
ATOM     26 Br   UNK d   1       0.181 -10.064 -37.078  0.00  0.00    -0.051 Br
ATOM     27  C   UNK d   1      -0.487 -12.600 -38.243  0.00  0.00     0.021 A 
ATOM     28  C   UNK d   1      -0.576 -13.978 -38.295  0.00  0.00     0.031 A 
ENDBRANCH   1  22
TORSDOF 3
ENDMDL
