MODEL 1
REMARK VINA RESULT:    -7.095      0.000      0.000
REMARK INTER + INTRA:         -10.107
REMARK INTER:                  -9.169
REMARK INTRA:                  -0.937
REMARK UNBOUND:                -0.937
REMARK  5 active torsions:
REMARK  status: ('A' for Active; 'I' for Inactive)
REMARK    1  A    between atoms: C_5  and  N_8 
REMARK    2  A    between atoms: C_14  and  C_18 
REMARK    3  A    between atoms: C_18  and  O_20 
REMARK    4  A    between atoms: O_20  and  C_21 
REMARK    5  A    between atoms: C_21  and  C_22 
ROOT
ATOM      1  N   UNK d   1       3.338 -18.899 -38.459  0.00  0.00    -0.247 N 
ATOM      2  C   UNK d   1       3.631 -18.663 -37.068  0.00  0.00     0.255 C 
ATOM      3  O   UNK d   1       4.758 -18.789 -36.511  0.00  0.00    -0.270 OA
ATOM      4  C   UNK d   1       2.363 -18.246 -36.428  0.00  0.00     0.210 C 
ATOM      5  N   UNK d   1       2.519 -17.280 -35.359  0.00  0.00    -0.222 NA
ATOM      6  N   UNK d   1       1.339 -16.507 -35.592  0.00  0.00    -0.314 N 
ATOM      7  C   UNK d   1       1.177 -16.340 -37.000  0.00  0.00     0.132 C 
ATOM      8  C   UNK d   1       1.793 -17.388 -37.535  0.00  0.00     0.073 C 
ATOM      9  C   UNK d   1       2.186 -18.098 -38.746  0.00  0.00     0.266 C 
ATOM     10  O   UNK d   1       1.549 -17.962 -39.827  0.00  0.00    -0.267 OA
ATOM     11  H   UNK d   1       3.313 -16.652 -35.671  0.00  0.00     0.147 HD
ATOM     12  H   UNK d   1       0.701 -16.126 -34.867  0.00  0.00     0.181 HD
ENDROOT
BRANCH   7  13
ATOM     13  C   UNK d   1       0.486 -15.269 -37.710  0.00  0.00     0.312 C 
ATOM     14  O   UNK d   1      -0.733 -15.341 -37.988  0.00  0.00    -0.258 OA
BRANCH  13  15
ATOM     15  O   UNK d   1       1.137 -14.113 -38.115  0.00  0.00    -0.312 OA
BRANCH  15  16
ATOM     16  C   UNK d   1       1.743 -13.230 -37.181  0.00  0.00     0.217 C 
BRANCH  16  17
ATOM     17  C   UNK d   1       2.823 -12.447 -37.870  0.00  0.00    -0.034 A 
ATOM     18  C   UNK d   1       3.080 -12.643 -39.226  0.00  0.00     0.009 A 
ATOM     19  C   UNK d   1       4.052 -11.947 -39.892  0.00  0.00     0.001 A 
ATOM     20  C   UNK d   1       4.811 -11.012 -39.194  0.00  0.00     0.000 A 
ATOM     21  C   UNK d   1       4.554 -10.822 -37.854  0.00  0.00     0.001 A 
ATOM     22  C   UNK d   1       3.559 -11.537 -37.184  0.00  0.00     0.009 A 
ENDBRANCH  16  17
ENDBRANCH  15  16
ENDBRANCH  13  15
ENDBRANCH   7  13
BRANCH   1  23
ATOM     23  C   UNK d   1       4.023 -19.730 -39.373  0.00  0.00     0.045 A 
ATOM     24  C   UNK d   1       5.019 -19.199 -40.201  0.00  0.00     0.031 A 
ATOM     25  C   UNK d   1       5.723 -19.927 -41.105  0.00  0.00     0.021 A 
ATOM     26  C   UNK d   1       5.453 -21.266 -41.228  0.00  0.00     0.011 A 
ATOM     27 Br   UNK d   1       6.440 -22.322 -42.503  0.00  0.00    -0.051 Br
ATOM     28  C   UNK d   1       4.477 -21.829 -40.429  0.00  0.00     0.021 A 
ATOM     29  C   UNK d   1       3.772 -21.069 -39.515  0.00  0.00     0.031 A 
ENDBRANCH   1  23
TORSDOF 5
ENDMDL
