/Users/jonathanwahrer/Desktop/Msc/3_Semester/Drug_Design_Praktikum/waehrer_HTS_screening/HTS_experiment/out/docking_results/vina_output/6y4q/0426_docked.pdbqt
 OpenBabel03232217373D

 29 32  0  0  1  0  0  0  0  0999 V2000
    3.3380  -18.8990  -38.4590 N   0  0  0  0  0  0  0  0  0  0  0  0
    3.6310  -18.6630  -37.0680 C   0  0  0  0  0  0  0  0  0  0  0  0
    4.7580  -18.7890  -36.5110 O   0  0  0  0  0  0  0  0  0  0  0  0
    2.3630  -18.2460  -36.4280 C   0  0  1  0  0  3  0  0  0  0  0  0
    2.5190  -17.2800  -35.3590 N   0  0  0  0  0  0  0  0  0  0  0  0
    1.3390  -16.5070  -35.5920 N   0  0  0  0  0  0  0  0  0  0  0  0
    1.1770  -16.3400  -37.0000 C   0  0  0  0  0  0  0  0  0  0  0  0
    1.7930  -17.3880  -37.5350 C   0  0  0  0  0  0  0  0  0  0  0  0
    2.1860  -18.0980  -38.7460 C   0  0  0  0  0  0  0  0  0  0  0  0
    1.5490  -17.9620  -39.8270 O   0  0  0  0  0  0  0  0  0  0  0  0
    3.3130  -16.6520  -35.6710 H   0  0  0  0  0  0  0  0  0  0  0  0
    0.7010  -16.1260  -34.8670 H   0  0  0  0  0  0  0  0  0  0  0  0
    0.4860  -15.2690  -37.7100 C   0  0  0  0  0  0  0  0  0  0  0  0
   -0.7330  -15.3410  -37.9880 O   0  0  0  0  0  0  0  0  0  0  0  0
    1.1370  -14.1130  -38.1150 O   0  0  0  0  0  0  0  0  0  0  0  0
    1.7430  -13.2300  -37.1810 C   0  0  0  0  0  2  0  0  0  0  0  0
    2.8230  -12.4470  -37.8700 C   0  0  0  0  0  0  0  0  0  0  0  0
    3.0800  -12.6430  -39.2260 C   0  0  0  0  0  3  0  0  0  0  0  0
    4.0520  -11.9470  -39.8920 C   0  0  0  0  0  3  0  0  0  0  0  0
    4.8110  -11.0120  -39.1940 C   0  0  0  0  0  3  0  0  0  0  0  0
    4.5540  -10.8220  -37.8540 C   0  0  0  0  0  3  0  0  0  0  0  0
    3.5590  -11.5370  -37.1840 C   0  0  0  0  0  3  0  0  0  0  0  0
    4.0230  -19.7300  -39.3730 C   0  0  0  0  0  0  0  0  0  0  0  0
    5.0190  -19.1990  -40.2010 C   0  0  0  0  0  3  0  0  0  0  0  0
    5.7230  -19.9270  -41.1050 C   0  0  0  0  0  3  0  0  0  0  0  0
    5.4530  -21.2660  -41.2280 C   0  0  0  0  0  0  0  0  0  0  0  0
    6.4400  -22.3220  -42.5030 Br  0  0  0  0  0  0  0  0  0  0  0  0
    4.4770  -21.8290  -40.4290 C   0  0  0  0  0  3  0  0  0  0  0  0
    3.7720  -21.0690  -39.5150 C   0  0  0  0  0  3  0  0  0  0  0  0
  1  2  1  0  0  0  0
  2  3  2  0  0  0  0
  2  4  1  0  0  0  0
  4  8  1  6  0  0  0
  4  5  1  0  0  0  0
  6  5  1  0  0  0  0
  6 12  1  0  0  0  0
  7  6  1  0  0  0  0
  8  7  2  0  0  0  0
  9  1  1  0  0  0  0
  9  8  1  0  0  0  0
 10  9  2  0  0  0  0
 11  5  1  0  0  0  0
 13  7  1  0  0  0  0
 14 13  2  0  0  0  0
 15 13  1  0  0  0  0
 15 16  1  0  0  0  0
 17 22  1  0  0  0  0
 17 16  1  0  0  0  0
 18 17  2  0  0  0  0
 19 18  1  0  0  0  0
 19 20  2  0  0  0  0
 20 21  1  0  0  0  0
 21 22  2  0  0  0  0
 23  1  1  0  0  0  0
 24 23  2  0  0  0  0
 25 24  1  0  0  0  0
 26 25  2  0  0  0  0
 26 28  1  0  0  0  0
 27 26  1  0  0  0  0
 28 29  2  0  0  0  0
 29 23  1  0  0  0  0
M  END
>  <Pose>
1

>  <Score>
-7.095

$$$$
