MODEL 1
REMARK VINA RESULT:    -6.604      0.000      0.000
REMARK INTER + INTRA:          -7.372
REMARK INTER:                  -6.990
REMARK INTRA:                  -0.382
REMARK UNBOUND:                -0.382
REMARK  1 active torsions:
REMARK  status: ('A' for Active; 'I' for Inactive)
REMARK    1  A    between atoms: C_5  and  N_8 
ROOT
ATOM      1  N   UNK d   1       0.640 -17.088 -37.651  0.00  0.00    -0.231 N 
ATOM      2  C   UNK d   1      -0.556 -17.656 -37.087  0.00  0.00     0.357 A 
ATOM      3  O   UNK d   1      -0.565 -18.870 -36.742  0.00  0.00    -0.244 OA
ATOM      4  N   UNK d   1      -1.670 -16.803 -36.951  0.00  0.00    -0.169 NA
ATOM      5  C   UNK d   1      -1.684 -15.581 -37.290  0.00  0.00     0.202 A 
ATOM      6  C   UNK d   1      -0.553 -14.827 -37.884  0.00  0.00     0.140 A 
ATOM      7  C   UNK d   1      -1.017 -14.222 -39.163  0.00  0.00     0.269 C 
ATOM      8  N   UNK d   1      -0.384 -13.024 -39.579  0.00  0.00    -0.043 N 
ATOM      9  C   UNK d   1       0.780 -12.663 -38.871  0.00  0.00     0.140 A 
ATOM     10  C   UNK d   1       0.906 -12.969 -37.510  0.00  0.00    -0.021 A 
ATOM     11  C   UNK d   1       2.043 -12.611 -36.841  0.00  0.00     0.016 A 
ATOM     12  C   UNK d   1       3.100 -11.954 -37.428  0.00  0.00    -0.061 A 
ATOM     13  C   UNK d   1       2.971 -11.656 -38.769  0.00  0.00     0.009 A 
ATOM     14  C   UNK d   1       1.829 -12.006 -39.476  0.00  0.00     0.038 A 
ATOM     15  C   UNK d   1       4.318 -11.584 -36.670  0.00  0.00     0.048 C 
ATOM     16  C   UNK d   1      -0.256 -13.678 -36.916  0.00  0.00     0.070 C 
ATOM     17  C   UNK d   1      -1.320 -11.889 -39.638  0.00  0.00     0.276 C 
ATOM     18  C   UNK d   1       0.620 -15.716 -38.031  0.00  0.00     0.251 A 
ATOM     19  O   UNK d   1       1.711 -15.276 -38.525  0.00  0.00    -0.271 OA
ATOM     20  O   UNK d   1      -2.871 -14.843 -37.096  0.00  0.00    -0.173 OA
ATOM     21  H   UNK d   1      -0.084 -13.157 -40.591  0.00  0.00     0.286 HD
ENDROOT
BRANCH   1  22
ATOM     22  C   UNK d   1       1.804 -17.884 -37.818  0.00  0.00     0.047 A 
ATOM     23  C   UNK d   1       1.984 -18.518 -39.026  0.00  0.00     0.031 A 
ATOM     24  C   UNK d   1       3.092 -19.318 -39.276  0.00  0.00     0.021 A 
ATOM     25  C   UNK d   1       4.036 -19.485 -38.299  0.00  0.00     0.011 A 
ATOM     26 Br   UNK d   1       5.554 -20.584 -38.652  0.00  0.00    -0.051 Br
ATOM     27  C   UNK d   1       3.880 -18.857 -37.074  0.00  0.00     0.021 A 
ATOM     28  C   UNK d   1       2.766 -18.064 -36.849  0.00  0.00     0.031 A 
ENDBRANCH   1  22
TORSDOF 1
ENDMDL
