MODEL 1
REMARK VINA RESULT:    -7.000      0.000      0.000
REMARK INTER + INTRA:          -9.801
REMARK INTER:                  -8.637
REMARK INTRA:                  -1.164
REMARK UNBOUND:                -1.164
REMARK  4 active torsions:
REMARK  status: ('A' for Active; 'I' for Inactive)
REMARK    1  A    between atoms: C_5  and  N_8 
REMARK    2  A    between atoms: C_15  and  N_16 
REMARK    3  A    between atoms: N_16  and  N_17 
REMARK    4  A    between atoms: N_17  and  C_18 
ROOT
ATOM      1  N   UNK d   1       0.890 -19.001 -37.805  0.00  0.00    -0.229 N 
ATOM      2  C   UNK d   1      -0.342 -19.723 -37.749  0.00  0.00     0.337 A 
ATOM      3  O   UNK d   1      -0.380 -20.861 -38.316  0.00  0.00    -0.246 OA
ATOM      4  N   UNK d   1      -1.456 -19.160 -37.081  0.00  0.00    -0.274 N 
ATOM      5  C   UNK d   1      -1.437 -17.888 -36.441  0.00  0.00     0.266 A 
ATOM      6  O   UNK d   1      -2.447 -17.412 -35.851  0.00  0.00    -0.267 OA
ATOM      7  C   UNK d   1      -0.182 -17.116 -36.478  0.00  0.00     0.117 A 
ATOM      8  C   UNK d   1      -0.100 -15.926 -35.902  0.00  0.00     0.130 C 
ATOM      9  C   UNK d   1       0.948 -17.723 -37.173  0.00  0.00     0.273 A 
ATOM     10  O   UNK d   1       2.040 -17.101 -37.231  0.00  0.00    -0.266 OA
ATOM     11  H   UNK d   1      -2.339 -19.721 -37.063  0.00  0.00     0.173 HD
ENDROOT
BRANCH   8  12
ATOM     12  N   UNK d   1       1.123 -15.206 -35.955  0.00  0.00    -0.296 N 
ATOM     13  H   UNK d   1       1.950 -15.686 -35.507  0.00  0.00     0.186 HD
BRANCH  12  14
ATOM     14  N   UNK d   1       1.294 -13.960 -36.535  0.00  0.00    -0.130 N 
ATOM     15  H   UNK d   1       0.917 -13.147 -35.965  0.00  0.00     0.205 HD
BRANCH  14  16
ATOM     16  C   UNK d   1       1.917 -13.732 -37.794  0.00  0.00     0.723 A 
ATOM     17  N   UNK d   1       2.832 -12.790 -38.041  0.00  0.00    -0.175 N 
ATOM     18  C   UNK d   1       3.209 -12.857 -39.328  0.00  0.00     0.166 A 
ATOM     19  C   UNK d   1       3.404 -11.792 -37.129  0.00  0.00     0.176 C 
ATOM     20  C   UNK d   1       2.493 -13.893 -39.913  0.00  0.00     0.186 A 
ATOM     21  C   UNK d   1       4.082 -12.175 -40.133  0.00  0.00     0.282 A 
ATOM     22  N   UNK d   1       1.729 -14.386 -38.940  0.00  0.00    -0.042 NA
ATOM     23  N   UNK d   1       2.648 -14.214 -41.210  0.00  0.00    -0.285 N 
ATOM     24  C   UNK d   1       3.512 -13.517 -41.948  0.00  0.00     0.332 A 
ATOM     25  C   UNK d   1       1.873 -15.296 -41.743  0.00  0.00     0.163 C 
ATOM     26  O   UNK d   1       3.688 -13.788 -43.175  0.00  0.00    -0.246 OA
ATOM     27  N   UNK d   1       4.245 -12.491 -41.439  0.00  0.00    -0.269 N 
ATOM     28  C   UNK d   1       5.168 -11.768 -42.278  0.00  0.00     0.164 C 
ATOM     29  O   UNK d   1       4.752 -11.233 -39.663  0.00  0.00    -0.265 OA
ENDBRANCH  14  16
ENDBRANCH  12  14
ENDBRANCH   8  12
BRANCH   1  30
ATOM     30  C   UNK d   1       1.990 -19.557 -38.467  0.00  0.00     0.047 A 
ATOM     31  C   UNK d   1       2.937 -20.266 -37.755  0.00  0.00     0.031 A 
ATOM     32  C   UNK d   1       4.038 -20.835 -38.366  0.00  0.00     0.021 A 
ATOM     33  C   UNK d   1       4.225 -20.705 -39.732  0.00  0.00     0.011 A 
ATOM     34 Br   UNK d   1       5.747 -21.487 -40.591  0.00  0.00    -0.051 Br
ATOM     35  C   UNK d   1       3.268 -19.993 -40.422  0.00  0.00     0.021 A 
ATOM     36  C   UNK d   1       2.162 -19.419 -39.828  0.00  0.00     0.031 A 
ENDBRANCH   1  30
TORSDOF 4
ENDMDL
