MODEL 1
REMARK VINA RESULT:    -6.010      0.000      0.000
REMARK INTER + INTRA:          -7.622
REMARK INTER:                  -7.064
REMARK INTRA:                  -0.558
REMARK UNBOUND:                -0.558
REMARK  3 active torsions:
REMARK  status: ('A' for Active; 'I' for Inactive)
REMARK    1  A    between atoms: C_5  and  N_8 
REMARK    2  A    between atoms: N_19  and  C_24 
REMARK    3  A    between atoms: C_24  and  C_25 
REMARK       I    between atoms: C_25  and  N_27 
ROOT
ATOM      1  N   UNK d   1       1.122 -14.870 -37.212  0.00  0.00    -0.181 N 
ATOM      2  C   UNK d   1       0.468 -15.250 -35.976  0.00  0.00     0.149 C 
ATOM      3  C   UNK d   1       0.494 -16.740 -35.729  0.00  0.00     0.042 C 
ATOM      4  C   UNK d   1       1.918 -17.219 -36.051  0.00  0.00     0.150 C 
ATOM      5  N   UNK d   1       2.033 -17.106 -37.482  0.00  0.00    -0.172 N 
ATOM      6  C   UNK d   1       1.627 -15.920 -38.028  0.00  0.00     0.712 A 
ATOM      7  N   UNK d   1       1.797 -15.984 -39.358  0.00  0.00    -0.043 NA
ATOM      8  C   UNK d   1       2.311 -17.212 -39.624  0.00  0.00     0.185 A 
ATOM      9  C   UNK d   1       2.463 -17.926 -38.446  0.00  0.00     0.166 A 
ATOM     10  C   UNK d   1       2.971 -19.211 -38.461  0.00  0.00     0.283 A 
ATOM     11  O   UNK d   1       3.096 -19.835 -37.354  0.00  0.00    -0.265 OA
ATOM     12  N   UNK d   1       3.319 -19.768 -39.635  0.00  0.00    -0.255 N 
ATOM     13  C   UNK d   1       3.161 -19.052 -40.762  0.00  0.00     0.333 A 
ATOM     14  O   UNK d   1       3.501 -19.612 -41.839  0.00  0.00    -0.246 OA
ATOM     15  N   UNK d   1       2.674 -17.812 -40.771  0.00  0.00    -0.285 N 
ATOM     16  C   UNK d   1       2.516 -17.066 -42.011  0.00  0.00     0.163 C 
ENDROOT
BRANCH   1  17
ATOM     17  C   UNK d   1       1.226 -13.500 -37.544  0.00  0.00     0.051 A 
ATOM     18  C   UNK d   1       0.238 -12.783 -38.178  0.00  0.00     0.031 A 
ATOM     19  C   UNK d   1       0.433 -11.430 -38.463  0.00  0.00     0.021 A 
ATOM     20  C   UNK d   1       1.605 -10.790 -38.119  0.00  0.00     0.011 A 
ATOM     21 Br   UNK d   1       1.902  -8.965 -38.489  0.00  0.00    -0.051 Br
ATOM     22  C   UNK d   1       2.601 -11.504 -37.483  0.00  0.00     0.021 A 
ATOM     23  C   UNK d   1       2.382 -12.828 -37.217  0.00  0.00     0.031 A 
ENDBRANCH   1  17
BRANCH  12  24
ATOM     24  C   UNK d   1       3.855 -21.118 -39.661  0.00  0.00     0.239 C 
BRANCH  24  25
ATOM     25  C   UNK d   1       5.333 -21.050 -39.413  0.00  0.00     0.233 C 
ATOM     26  O   UNK d   1       5.874 -21.812 -38.579  0.00  0.00    -0.272 OA
ATOM     27  N   UNK d   1       6.154 -20.131 -40.106  0.00  0.00    -0.369 N 
ATOM     28  H   UNK d   1       7.127 -20.360 -40.409  0.00  0.00     0.159 HD
ATOM     29  H   UNK d   1       5.812 -19.168 -40.347  0.00  0.00     0.159 HD
ENDBRANCH  24  25
ENDBRANCH  12  24
TORSDOF 3
ENDMDL
