MODEL 1
REMARK VINA RESULT:    -6.367      0.000      0.000
REMARK INTER + INTRA:          -8.695
REMARK INTER:                  -7.856
REMARK INTRA:                  -0.839
REMARK UNBOUND:                -0.839
REMARK  4 active torsions:
REMARK  status: ('A' for Active; 'I' for Inactive)
REMARK    1  A    between atoms: C_5  and  N_8 
REMARK    2  A    between atoms: C_12  and  C_13 
REMARK    3  A    between atoms: C_13  and  N_14 
REMARK    4  A    between atoms: N_14  and  C_15 
ROOT
ATOM      1  N   UNK d   1       1.117 -16.112 -38.351  0.00  0.00    -0.220 N 
ATOM      2  N   UNK d   1      -0.047 -16.429 -38.908  0.00  0.00    -0.291 N 
ATOM      3  C   UNK d   1      -0.195 -17.766 -38.960  0.00  0.00     0.056 A 
ATOM      4  C   UNK d   1      -1.238 -18.422 -39.452  0.00  0.00     0.045 C 
ATOM      5  C   UNK d   1       0.925 -18.353 -38.409  0.00  0.00     0.076 A 
ATOM      6  C   UNK d   1       1.721 -17.278 -38.041  0.00  0.00     0.280 A 
ATOM      7  O   UNK d   1       2.844 -17.395 -37.499  0.00  0.00    -0.265 OA
ATOM      8  H   UNK d   1      -0.745 -15.741 -39.255  0.00  0.00     0.187 HD
ENDROOT
BRANCH   5   9
ATOM      9  C   UNK d   1       1.197 -19.652 -38.258  0.00  0.00     0.103 C 
BRANCH   9  10
ATOM     10  N   UNK d   1       1.825 -20.330 -39.340  0.00  0.00    -0.384 N 
ATOM     11  H   UNK d   1       1.221 -20.754 -40.059  0.00  0.00     0.159 HD
BRANCH  10  12
ATOM     12  C   UNK d   1       3.251 -20.437 -39.451  0.00  0.00     0.109 C 
ATOM     13  C   UNK d   1       3.822 -19.240 -40.144  0.00  0.00     0.311 C 
ATOM     14  N   UNK d   1       5.275 -19.341 -40.149  0.00  0.00     0.147 N 
ATOM     15  C   UNK d   1       5.720 -19.386 -38.762  0.00  0.00     0.547 C 
ATOM     16  C   UNK d   1       5.663 -20.536 -40.854  0.00  0.00     0.547 C 
ATOM     17  N   UNK d   1       5.242 -20.566 -38.085  0.00  0.00     0.147 N 
ATOM     18  C   UNK d   1       5.630 -21.753 -38.841  0.00  0.00     0.547 C 
ATOM     19  C   UNK d   1       3.804 -20.536 -38.026  0.00  0.00     0.311 C 
ATOM     20  N   UNK d   1       5.133 -21.708 -40.198  0.00  0.00     0.147 N 
ATOM     21  C   UNK d   1       3.690 -21.671 -40.204  0.00  0.00     0.311 C 
ENDBRANCH  10  12
ENDBRANCH   9  10
ENDBRANCH   5   9
BRANCH   1  22
ATOM     22  C   UNK d   1       1.646 -14.812 -38.116  0.00  0.00     0.060 A 
ATOM     23  C   UNK d   1       2.294 -14.135 -39.128  0.00  0.00     0.033 A 
ATOM     24  C   UNK d   1       2.824 -12.862 -38.933  0.00  0.00     0.021 A 
ATOM     25  C   UNK d   1       2.711 -12.253 -37.719  0.00  0.00     0.011 A 
ATOM     26 Br   UNK d   1       3.425 -10.497 -37.395  0.00  0.00    -0.051 Br
ATOM     27  C   UNK d   1       2.065 -12.908 -36.683  0.00  0.00     0.021 A 
ATOM     28  C   UNK d   1       1.550 -14.165 -36.903  0.00  0.00     0.033 A 
ENDBRANCH   1  22
TORSDOF 4
ENDMDL
