MODEL 1
REMARK VINA RESULT:    -6.710      0.000      0.000
REMARK INTER + INTRA:         -10.341
REMARK INTER:                  -9.848
REMARK INTRA:                  -0.492
REMARK UNBOUND:                -0.492
REMARK  10 active torsions:
REMARK  status: ('A' for Active; 'I' for Inactive)
REMARK    1  A    between atoms: C_5  and  O_8 
REMARK    2  A    between atoms: O_8  and  C_9 
REMARK    3  A    between atoms: C_9  and  C_10 
REMARK       I    between atoms: C_10  and  N_12 
REMARK    4  A    between atoms: N_12  and  C_13 
REMARK    5  A    between atoms: N_16  and  C_23 
REMARK    6  A    between atoms: C_20  and  O_22 
REMARK    7  A    between atoms: C_25  and  C_30 
REMARK    8  A    between atoms: C_26  and  O_29 
REMARK    9  A    between atoms: C_27  and  O_28 
REMARK   10  A    between atoms: C_30  and  O_31 
ROOT
ATOM      1  C   UNK d   1       0.346 -16.308 -36.459  0.00  0.00     0.733 A 
ATOM      2  N   UNK d   1       1.129 -17.116 -37.198  0.00  0.00    -0.042 NA
ATOM      3  C   UNK d   1       0.701 -18.325 -37.521  0.00  0.00     0.185 A 
ATOM      4  N   UNK d   1       1.288 -19.296 -38.234  0.00  0.00    -0.293 N 
ATOM      5  C   UNK d   1       0.405 -20.320 -38.252  0.00  0.00     0.214 A 
ATOM      6  N   UNK d   1      -0.696 -19.991 -37.570  0.00  0.00    -0.235 NA
ATOM      7  C   UNK d   1      -0.562 -18.752 -37.093  0.00  0.00     0.158 A 
ATOM      8  C   UNK d   1      -1.372 -17.928 -36.334  0.00  0.00     0.214 A 
ATOM      9  N   UNK d   1      -0.887 -16.718 -36.039  0.00  0.00    -0.036 NA
ENDROOT
BRANCH   1  10
ATOM     10  N   UNK d   1       0.774 -15.000 -36.088  0.00  0.00    -0.154 N 
ATOM     11  C   UNK d   1       0.476 -13.854 -36.853  0.00  0.00     0.260 C 
ATOM     12  O   UNK d   1      -0.183 -13.955 -37.903  0.00  0.00    -0.270 OA
ATOM     13  H   UNK d   1       1.336 -14.914 -35.192  0.00  0.00     0.187 HD
BRANCH  11  14
ATOM     14  C   UNK d   1       0.952 -12.532 -36.406  0.00  0.00     0.279 C 
BRANCH  14  15
ATOM     15  O   UNK d   1       2.344 -12.450 -36.312  0.00  0.00    -0.342 OA
BRANCH  15  16
ATOM     16  C   UNK d   1       3.081 -12.085 -37.418  0.00  0.00     0.069 A 
ATOM     17  C   UNK d   1       3.982 -11.050 -37.347  0.00  0.00     0.038 A 
ATOM     18  C   UNK d   1       4.734 -10.672 -38.463  0.00  0.00     0.022 A 
ATOM     19  C   UNK d   1       4.571 -11.345 -39.654  0.00  0.00     0.011 A 
ATOM     20 Br   UNK d   1       5.603 -10.827 -41.188  0.00  0.00    -0.051 Br
ATOM     21  C   UNK d   1       3.665 -12.383 -39.721  0.00  0.00     0.022 A 
ATOM     22  C   UNK d   1       2.933 -12.743 -38.614  0.00  0.00     0.038 A 
ENDBRANCH  15  16
ENDBRANCH  14  15
ENDBRANCH  11  14
ENDBRANCH   1  10
BRANCH   8  23
ATOM     23  O   UNK d   1      -2.613 -18.402 -35.936  0.00  0.00    -0.343 OA
ATOM     24  H   UNK d   1      -2.637 -19.382 -35.632  0.00  0.00     0.219 HD
ENDBRANCH   8  23
BRANCH   4  25
ATOM     25  C   UNK d   1       2.546 -19.352 -38.874  0.00  0.00     0.262 C 
ATOM     26  O   UNK d   1       2.444 -19.836 -40.185  0.00  0.00    -0.353 OA
ATOM     27  C   UNK d   1       2.792 -21.177 -40.043  0.00  0.00     0.179 C 
ATOM     28  C   UNK d   1       4.098 -21.038 -39.275  0.00  0.00     0.182 C 
ATOM     29  C   UNK d   1       3.631 -20.070 -38.191  0.00  0.00     0.198 C 
BRANCH  27  30
ATOM     30  C   UNK d   1       2.981 -21.865 -41.364  0.00  0.00     0.198 C 
BRANCH  30  31
ATOM     31  O   UNK d   1       3.824 -22.942 -41.312  0.00  0.00    -0.398 OA
ATOM     32  H   UNK d   1       4.753 -22.622 -41.452  0.00  0.00     0.209 HD
ENDBRANCH  30  31
ENDBRANCH  27  30
BRANCH  28  33
ATOM     33  O   UNK d   1       4.572 -22.221 -38.782  0.00  0.00    -0.390 OA
ATOM     34  H   UNK d   1       5.577 -22.235 -38.679  0.00  0.00     0.210 HD
ENDBRANCH  28  33
BRANCH  29  35
ATOM     35  O   UNK d   1       4.692 -19.210 -37.827  0.00  0.00    -0.388 OA
ATOM     36  H   UNK d   1       5.168 -19.009 -38.671  0.00  0.00     0.210 HD
ENDBRANCH  29  35
ENDBRANCH   4  25
TORSDOF 10
ENDMDL
