MODEL 1
REMARK VINA RESULT:    -6.571      0.000      0.000
REMARK INTER + INTRA:         -10.167
REMARK INTER:                  -9.067
REMARK INTRA:                  -1.100
REMARK UNBOUND:                -1.100
REMARK  7 active torsions:
REMARK  status: ('A' for Active; 'I' for Inactive)
REMARK    1  A    between atoms: C_5  and  O_8 
REMARK    2  A    between atoms: O_8  and  C_9 
REMARK    3  A    between atoms: C_9  and  C_10 
REMARK    4  A    between atoms: C_10  and  O_11 
REMARK    5  A    between atoms: C_10  and  C_12 
REMARK    6  A    between atoms: C_12  and  N_13 
REMARK    7  A    between atoms: C_17  and  N_18 
ROOT
ATOM      1  N   UNK d   1       0.861 -17.757 -38.155  0.00  0.00    -0.170 N 
ATOM      2  C   UNK d   1      -0.464 -18.030 -38.157  0.00  0.00     0.166 A 
ATOM      3  C   UNK d   1      -0.625 -19.396 -38.204  0.00  0.00     0.185 A 
ATOM      4  N   UNK d   1       0.595 -19.890 -38.233  0.00  0.00    -0.044 NA
ATOM      5  C   UNK d   1       1.550 -18.908 -38.207  0.00  0.00     0.707 A 
ATOM      6  N   UNK d   1      -1.839 -20.021 -38.219  0.00  0.00    -0.286 N 
ATOM      7  C   UNK d   1      -2.926 -19.249 -38.185  0.00  0.00     0.330 A 
ATOM      8  O   UNK d   1      -4.056 -19.808 -38.197  0.00  0.00    -0.246 OA
ATOM      9  N   UNK d   1      -2.800 -17.916 -38.141  0.00  0.00    -0.273 N 
ATOM     10  C   UNK d   1      -1.612 -17.268 -38.125  0.00  0.00     0.280 A 
ATOM     11  O   UNK d   1      -1.526 -16.032 -38.084  0.00  0.00    -0.265 OA
ATOM     12  C   UNK d   1      -1.907 -21.482 -38.260  0.00  0.00     0.163 C 
ATOM     13  H   UNK d   1      -3.672 -17.347 -38.116  0.00  0.00     0.173 HD
ENDROOT
BRANCH   1  14
ATOM     14  C   UNK d   1       1.459 -16.443 -38.054  0.00  0.00     0.182 C 
BRANCH  14  15
ATOM     15  C   UNK d   1       1.696 -15.947 -36.658  0.00  0.00     0.161 C 
BRANCH  15  16
ATOM     16  C   UNK d   1       1.089 -14.628 -36.298  0.00  0.00     0.209 C 
BRANCH  16  17
ATOM     17  O   UNK d   1       1.555 -13.588 -36.957  0.00  0.00    -0.349 OA
BRANCH  17  18
ATOM     18  C   UNK d   1       2.453 -12.869 -37.585  0.00  0.00     0.069 A 
ATOM     19  C   UNK d   1       3.240 -11.898 -36.999  0.00  0.00     0.038 A 
ATOM     20  C   UNK d   1       4.168 -11.172 -37.713  0.00  0.00     0.022 A 
ATOM     21  C   UNK d   1       4.320 -11.417 -39.051  0.00  0.00     0.011 A 
ATOM     22 Br   UNK d   1       5.601 -10.412 -40.030  0.00  0.00    -0.051 Br
ATOM     23  C   UNK d   1       3.549 -12.383 -39.665  0.00  0.00     0.022 A 
ATOM     24  C   UNK d   1       2.635 -13.100 -38.968  0.00  0.00     0.038 A 
ENDBRANCH  17  18
ENDBRANCH  16  17
ENDBRANCH  15  16
BRANCH  15  25
ATOM     25  O   UNK d   1       1.289 -16.876 -35.690  0.00  0.00    -0.392 OA
ATOM     26  H   UNK d   1       0.654 -16.419 -35.049  0.00  0.00     0.210 HD
ENDBRANCH  15  25
ENDBRANCH  14  15
ENDBRANCH   1  14
BRANCH   5  27
ATOM     27  N   UNK d   1       2.964 -19.168 -38.300  0.00  0.00    -0.212 N 
ATOM     28  C   UNK d   1       3.451 -19.279 -39.693  0.00  0.00     0.171 C 
ATOM     29  C   UNK d   1       4.919 -19.241 -39.837  0.00  0.00     0.292 C 
ATOM     30  N   UNK d   1       5.620 -19.871 -38.746  0.00  0.00     0.087 N 
ATOM     31  C   UNK d   1       5.309 -19.105 -37.581  0.00  0.00     0.292 C 
ATOM     32  C   UNK d   1       5.352 -21.268 -38.652  0.00  0.00     0.310 C 
ATOM     33  C   UNK d   1       3.840 -19.253 -37.186  0.00  0.00     0.171 C 
ENDBRANCH   5  27
TORSDOF 7
ENDMDL
