MODEL 1
REMARK VINA RESULT:    -5.154      0.000      0.000
REMARK INTER + INTRA:          -6.176
REMARK INTER:                  -5.757
REMARK INTRA:                  -0.419
REMARK UNBOUND:                -0.419
REMARK  2 active torsions:
REMARK  status: ('A' for Active; 'I' for Inactive)
REMARK    1  A    between atoms: C_7  and  C_8 
REMARK    2  A    between atoms: C_8  and  N_9 
ROOT
ATOM      1  C   UNK d   1       0.681 -16.933 -36.676  0.00  0.00     0.284 C 
ENDROOT
BRANCH   1   2
ATOM      2  C   UNK d   1       1.383 -17.958 -37.449  0.00  0.00    -0.012 A 
ATOM      3  C   UNK d   1       0.605 -18.835 -38.223  0.00  0.00     0.021 A 
ATOM      4 Br   UNK d   1      -1.287 -18.645 -38.440  0.00  0.00    -0.050 Br
ATOM      5  C   UNK d   1       1.275 -19.881 -38.829  0.00  0.00     0.059 A 
ATOM      6  C   UNK d   1       2.638 -20.035 -38.677  0.00  0.00     0.106 A 
ATOM      7  C   UNK d   1       3.429 -19.197 -37.927  0.00  0.00     0.105 A 
ATOM      8  O   UNK d   1       3.484 -21.048 -39.223  0.00  0.00    -0.323 OA
ATOM      9  C   UNK d   1       2.759 -18.165 -37.328  0.00  0.00     0.050 A 
ATOM     10  O   UNK d   1       4.709 -19.717 -38.034  0.00  0.00    -0.323 OA
ATOM     11  C   UNK d   1       4.586 -21.147 -38.271  0.00  0.00     0.352 C 
ENDBRANCH   1   2
BRANCH   1  12
ATOM     12  N   UNK d   1       0.583 -15.621 -37.162  0.00  0.00     0.016 N 
ATOM     13  C   UNK d   1       1.638 -14.934 -36.333  0.00  0.00     0.517 C 
ATOM     14  N   UNK d   1       1.592 -13.534 -36.367  0.00  0.00     0.171 N 
ATOM     15  C   UNK d   1       0.262 -13.135 -35.941  0.00  0.00     0.551 C 
ATOM     16  C   UNK d   1       1.889 -13.151 -37.752  0.00  0.00     0.551 C 
ATOM     17  N   UNK d   1      -0.668 -13.623 -36.929  0.00  0.00     0.171 N 
ATOM     18  C   UNK d   1      -0.739 -15.048 -36.917  0.00  0.00     0.517 C 
ATOM     19  C   UNK d   1      -0.357 -13.188 -38.295  0.00  0.00     0.551 C 
ATOM     20  N   UNK d   1       0.932 -13.766 -38.641  0.00  0.00     0.171 N 
ATOM     21  C   UNK d   1       0.919 -15.237 -38.498  0.00  0.00     0.517 C 
ENDBRANCH   1  12
TORSDOF 2
ENDMDL
