MODEL 1
REMARK VINA RESULT:    -5.819      0.000      0.000
REMARK INTER + INTRA:          -8.203
REMARK INTER:                  -7.520
REMARK INTRA:                  -0.682
REMARK UNBOUND:                -0.682
REMARK  5 active torsions:
REMARK  status: ('A' for Active; 'I' for Inactive)
REMARK    1  A    between atoms: C_7  and  C_8 
REMARK    2  A    between atoms: C_8  and  N_9 
REMARK    3  A    between atoms: N_12  and  C_15 
REMARK    4  A    between atoms: C_15  and  C_16 
REMARK       I    between atoms: C_16  and  N_18 
REMARK    5  A    between atoms: N_18  and  C_19 
ROOT
ATOM      1  N   UNK d   1      -0.296 -17.462 -38.017  0.00  0.00     0.095 N 
ATOM      2  C   UNK d   1      -1.362 -16.497 -38.394  0.00  0.00     0.292 C 
ATOM      3  C   UNK d   1      -1.225 -15.401 -37.343  0.00  0.00     0.147 C 
ATOM      4  N   UNK d   1      -0.384 -15.748 -36.256  0.00  0.00    -0.401 N 
ATOM      5  C   UNK d   1      -0.686 -17.041 -35.700  0.00  0.00     0.147 C 
ATOM      6  C   UNK d   1      -0.838 -18.057 -36.794  0.00  0.00     0.292 C 
ENDROOT
BRANCH   1   7
ATOM      7  C   UNK d   1      -0.166 -18.463 -39.058  0.00  0.00     0.312 C 
BRANCH   7   8
ATOM      8  C   UNK d   1       1.262 -18.809 -39.269  0.00  0.00    -0.010 A 
ATOM      9  C   UNK d   1       2.048 -18.102 -40.177  0.00  0.00     0.021 A 
ATOM     10 Br   UNK d   1       1.201 -16.695 -41.153  0.00  0.00    -0.050 Br
ATOM     11  C   UNK d   1       3.379 -18.386 -40.377  0.00  0.00     0.059 A 
ATOM     12  C   UNK d   1       4.002 -19.393 -39.683  0.00  0.00     0.103 A 
ATOM     13  C   UNK d   1       3.259 -20.106 -38.785  0.00  0.00     0.102 A 
ATOM     14  O   UNK d   1       5.343 -19.709 -39.856  0.00  0.00    -0.346 OA
ATOM     15  C   UNK d   1       1.911 -19.815 -38.585  0.00  0.00     0.050 A 
ATOM     16  O   UNK d   1       3.870 -21.127 -38.074  0.00  0.00    -0.346 OA
ATOM     17  C   UNK d   1       5.131 -21.654 -38.397  0.00  0.00     0.202 C 
ATOM     18  C   UNK d   1       6.012 -20.619 -39.020  0.00  0.00     0.202 C 
ENDBRANCH   7   8
ENDBRANCH   1   7
BRANCH   4  19
ATOM     19  C   UNK d   1       0.988 -15.418 -36.344  0.00  0.00     0.219 C 
BRANCH  19  20
ATOM     20  C   UNK d   1       1.309 -14.005 -36.417  0.00  0.00     0.235 C 
ATOM     21  O   UNK d   1       0.890 -13.202 -35.556  0.00  0.00    -0.272 OA
ATOM     22  N   UNK d   1       2.108 -13.493 -37.465  0.00  0.00    -0.355 N 
ATOM     23  H   UNK d   1       2.504 -14.110 -38.232  0.00  0.00     0.162 HD
BRANCH  22  24
ATOM     24  C   UNK d   1       2.450 -12.080 -37.571  0.00  0.00     0.084 A 
ATOM     25  C   UNK d   1       3.526 -11.636 -38.472  0.00  0.00     0.027 A 
ATOM     26  C   UNK d   1       3.818 -11.711 -37.004  0.00  0.00     0.027 A 
ENDBRANCH  22  24
ENDBRANCH  19  20
ENDBRANCH   4  19
TORSDOF 5
ENDMDL
