/Users/jonathanwahrer/Desktop/Msc/3_Semester/Drug_Design_Praktikum/waehrer_HTS_screening/HTS_experiment/out/docking_results/vina_output/6y4q/0455_docked.pdbqt
 OpenBabel03232217393D

 26 29  0  0  0  0  0  0  0  0999 V2000
   -0.2960  -17.4620  -38.0170 N   0  0  0  0  0  0  0  0  0  0  0  0
   -1.3620  -16.4970  -38.3940 C   0  0  0  0  0  2  0  0  0  0  0  0
   -1.2250  -15.4010  -37.3430 C   0  0  0  0  0  2  0  0  0  0  0  0
   -0.3840  -15.7480  -36.2560 N   0  0  0  0  0  0  0  0  0  0  0  0
   -0.6860  -17.0410  -35.7000 C   0  0  0  0  0  2  0  0  0  0  0  0
   -0.8380  -18.0570  -36.7940 C   0  0  0  0  0  2  0  0  0  0  0  0
   -0.1660  -18.4630  -39.0580 C   0  0  0  0  0  2  0  0  0  0  0  0
    1.2620  -18.8090  -39.2690 C   0  0  0  0  0  0  0  0  0  0  0  0
    2.0480  -18.1020  -40.1770 C   0  0  0  0  0  0  0  0  0  0  0  0
    1.2010  -16.6950  -41.1530 Br  0  0  0  0  0  0  0  0  0  0  0  0
    3.3790  -18.3860  -40.3770 C   0  0  0  0  0  3  0  0  0  0  0  0
    4.0020  -19.3930  -39.6830 C   0  0  0  0  0  0  0  0  0  0  0  0
    3.2590  -20.1060  -38.7850 C   0  0  0  0  0  0  0  0  0  0  0  0
    5.3430  -19.7090  -39.8560 O   0  0  0  0  0  0  0  0  0  0  0  0
    1.9110  -19.8150  -38.5850 C   0  0  0  0  0  3  0  0  0  0  0  0
    3.8700  -21.1270  -38.0740 O   0  0  0  0  0  0  0  0  0  0  0  0
    5.1310  -21.6540  -38.3970 C   0  0  0  0  0  2  0  0  0  0  0  0
    6.0120  -20.6190  -39.0200 C   0  0  0  0  0  2  0  0  0  0  0  0
    0.9880  -15.4180  -36.3440 C   0  0  0  0  0  2  0  0  0  0  0  0
    1.3090  -14.0050  -36.4170 C   0  0  0  0  0  0  0  0  0  0  0  0
    0.8900  -13.2020  -35.5560 O   0  0  0  0  0  0  0  0  0  0  0  0
    2.1080  -13.4930  -37.4650 N   0  0  0  0  0  0  0  0  0  0  0  0
    2.5040  -14.1100  -38.2320 H   0  0  0  0  0  0  0  0  0  0  0  0
    2.4500  -12.0800  -37.5710 C   0  0  0  0  0  3  0  0  0  0  0  0
    3.5260  -11.6360  -38.4720 C   0  0  0  0  0  2  0  0  0  0  0  0
    3.8180  -11.7110  -37.0040 C   0  0  0  0  0  2  0  0  0  0  0  0
  1  6  1  0  0  0  0
  2  1  1  0  0  0  0
  2  3  1  0  0  0  0
  3  4  1  0  0  0  0
  4  5  1  0  0  0  0
  6  5  1  0  0  0  0
  7  1  1  0  0  0  0
  8  7  1  0  0  0  0
  8 15  1  0  0  0  0
  9  8  2  0  0  0  0
 10  9  1  0  0  0  0
 11  9  1  0  0  0  0
 11 12  2  0  0  0  0
 12 13  1  0  0  0  0
 13 15  2  0  0  0  0
 13 16  1  0  0  0  0
 14 12  1  0  0  0  0
 14 18  1  0  0  0  0
 17 16  1  0  0  0  0
 18 17  1  0  0  0  0
 19  4  1  0  0  0  0
 20 19  1  0  0  0  0
 20 21  2  0  0  0  0
 22 20  1  0  0  0  0
 23 22  1  0  0  0  0
 24 22  1  0  0  0  0
 24 26  1  0  0  0  0
 25 24  1  0  0  0  0
 25 26  1  0  0  0  0
M  END
>  <Pose>
1

>  <Score>
-5.819

$$$$
