/Users/jonathanwahrer/Desktop/Msc/3_Semester/Drug_Design_Praktikum/waehrer_HTS_screening/HTS_experiment/out/docking_results/vina_output/6y4q/0459_docked.pdbqt
 OpenBabel03232217403D

 29 32  0  0  0  0  0  0  0  0999 V2000
    0.7470  -16.6920  -36.5170 C   0  0  0  0  0  0  0  0  0  0  0  0
    0.2650  -17.5160  -37.5430 C   0  0  0  0  0  3  0  0  0  0  0  0
    1.0070  -18.5350  -38.0940 C   0  0  0  0  0  3  0  0  0  0  0  0
    2.2860  -18.7890  -37.6480 C   0  0  0  0  0  0  0  0  0  0  0  0
    2.7770  -17.9880  -36.6400 C   0  0  0  0  0  3  0  0  0  0  0  0
    2.0260  -16.9540  -36.0790 C   0  0  0  0  0  3  0  0  0  0  0  0
   -0.0410  -15.6790  -36.0000 O   0  0  0  0  0  0  0  0  0  0  0  0
   -0.3880  -14.5240  -36.7050 C   0  0  0  0  0  2  0  0  0  0  0  0
    0.7540  -13.8250  -37.3170 C   0  0  0  0  0  0  0  0  0  0  0  0
    0.8930  -13.7790  -38.7110 C   0  0  0  0  0  0  0  0  0  0  0  0
   -0.4260  -14.7020  -39.7490 Br  0  0  0  0  0  0  0  0  0  0  0  0
    1.9300  -13.1020  -39.3020 C   0  0  0  0  0  3  0  0  0  0  0  0
    2.8710  -12.4420  -38.5380 C   0  0  0  0  0  0  0  0  0  0  0  0
    2.7590  -12.4710  -37.1640 C   0  0  0  0  0  0  0  0  0  0  0  0
    4.0070  -11.6880  -38.8390 O   0  0  0  0  0  0  0  0  0  0  0  0
    1.7020  -13.1610  -36.5720 C   0  0  0  0  0  3  0  0  0  0  0  0
    3.8170  -11.7420  -36.6590 O   0  0  0  0  0  0  0  0  0  0  0  0
    4.4380  -10.9930  -37.6880 C   0  0  0  0  0  2  0  0  0  0  0  0
    3.0880  -19.8700  -38.2260 C   0  0  0  0  0  0  0  0  0  0  0  0
    3.2790  -20.1780  -39.5200 N   0  0  0  0  0  0  0  0  0  0  0  0
    4.0860  -21.2410  -39.5930 N   0  0  0  0  0  0  0  0  0  0  0  0
    4.4050  -21.6090  -38.3600 N   0  0  0  0  0  0  0  0  0  0  0  0
    3.7970  -20.7760  -37.5330 N   0  0  0  0  0  0  0  0  0  0  0  0
    4.5650  -21.9230  -40.7770 C   0  0  0  0  0  2  0  0  0  0  0  0
    5.8130  -21.2910  -41.2600 C   0  0  0  0  0  0  0  0  0  0  0  0
    6.4830  -21.8520  -42.1420 O   0  0  0  0  0  0  0  0  0  0  0  0
    6.2210  -20.0580  -40.7080 N   0  0  0  0  0  0  0  0  0  0  0  0
    6.0000  -19.7760  -39.7130 H   0  0  0  0  0  0  0  0  0  0  0  0
    6.7650  -19.3830  -41.2870 H   0  0  0  0  0  0  0  0  0  0  0  0
  1  6  1  0  0  0  0
  1  7  1  0  0  0  0
  2  1  2  0  0  0  0
  3  4  2  0  0  0  0
  3  2  1  0  0  0  0
  4  5  1  0  0  0  0
  5  6  2  0  0  0  0
  8  7  1  0  0  0  0
  9  8  1  0  0  0  0
  9 16  1  0  0  0  0
 10  9  2  0  0  0  0
 11 10  1  0  0  0  0
 12 10  1  0  0  0  0
 12 13  2  0  0  0  0
 13 14  1  0  0  0  0
 14 17  1  0  0  0  0
 14 16  2  0  0  0  0
 15 13  1  0  0  0  0
 15 18  1  0  0  0  0
 18 17  1  0  0  0  0
 19  4  1  0  0  0  0
 19 23  1  0  0  0  0
 20 19  2  0  0  0  0
 21 20  1  0  0  0  0
 21 22  1  0  0  0  0
 22 23  2  0  0  0  0
 24 21  1  0  0  0  0
 25 24  1  0  0  0  0
 25 27  1  0  0  0  0
 26 25  2  0  0  0  0
 27 28  1  0  0  0  0
 29 27  1  0  0  0  0
M  END
>  <Pose>
1

>  <Score>
-6.661

$$$$
