MODEL 1
REMARK VINA RESULT:    -6.661      0.000      0.000
REMARK INTER + INTRA:         -10.451
REMARK INTER:                  -8.998
REMARK INTRA:                  -1.454
REMARK UNBOUND:                -1.454
REMARK  6 active torsions:
REMARK  status: ('A' for Active; 'I' for Inactive)
REMARK    1  A    between atoms: C_7  and  C_8 
REMARK    2  A    between atoms: C_8  and  O_9 
REMARK    3  A    between atoms: O_9  and  C_10 
REMARK    4  A    between atoms: C_13  and  C_16 
REMARK    5  A    between atoms: N_18  and  C_21 
REMARK    6  A    between atoms: C_21  and  C_22 
REMARK       I    between atoms: C_22  and  N_24 
ROOT
ATOM      1  C   UNK d   1       0.747 -16.692 -36.517  0.00  0.00     0.069 A 
ATOM      2  C   UNK d   1       0.265 -17.516 -37.543  0.00  0.00     0.038 A 
ATOM      3  C   UNK d   1       1.007 -18.535 -38.094  0.00  0.00     0.018 A 
ATOM      4  C   UNK d   1       2.286 -18.789 -37.648  0.00  0.00     0.015 A 
ATOM      5  C   UNK d   1       2.777 -17.988 -36.640  0.00  0.00     0.018 A 
ATOM      6  C   UNK d   1       2.026 -16.954 -36.079  0.00  0.00     0.038 A 
ENDROOT
BRANCH   1   7
ATOM      7  O   UNK d   1      -0.041 -15.679 -36.000  0.00  0.00    -0.347 OA
BRANCH   7   8
ATOM      8  C   UNK d   1      -0.388 -14.524 -36.705  0.00  0.00     0.215 C 
BRANCH   8   9
ATOM      9  C   UNK d   1       0.754 -13.825 -37.317  0.00  0.00    -0.014 A 
ATOM     10  C   UNK d   1       0.893 -13.779 -38.711  0.00  0.00     0.022 A 
ATOM     11 Br   UNK d   1      -0.426 -14.702 -39.749  0.00  0.00    -0.050 Br
ATOM     12  C   UNK d   1       1.930 -13.102 -39.302  0.00  0.00     0.059 A 
ATOM     13  C   UNK d   1       2.871 -12.442 -38.538  0.00  0.00     0.106 A 
ATOM     14  C   UNK d   1       2.759 -12.471 -37.164  0.00  0.00     0.105 A 
ATOM     15  O   UNK d   1       4.007 -11.688 -38.839  0.00  0.00    -0.323 OA
ATOM     16  C   UNK d   1       1.702 -13.161 -36.572  0.00  0.00     0.050 A 
ATOM     17  O   UNK d   1       3.817 -11.742 -36.659  0.00  0.00    -0.323 OA
ATOM     18  C   UNK d   1       4.438 -10.993 -37.688  0.00  0.00     0.352 C 
ENDBRANCH   8   9
ENDBRANCH   7   8
ENDBRANCH   1   7
BRANCH   4  19
ATOM     19  C   UNK d   1       3.088 -19.870 -38.226  0.00  0.00     0.198 A 
ATOM     20  N   UNK d   1       3.279 -20.178 -39.520  0.00  0.00    -0.136 NA
ATOM     21  N   UNK d   1       4.086 -21.241 -39.593  0.00  0.00    -0.182 N 
ATOM     22  N   UNK d   1       4.405 -21.609 -38.360  0.00  0.00     0.025 NA
ATOM     23  N   UNK d   1       3.797 -20.776 -37.533  0.00  0.00    -0.136 NA
BRANCH  21  24
ATOM     24  C   UNK d   1       4.565 -21.923 -40.777  0.00  0.00     0.272 C 
BRANCH  24  25
ATOM     25  C   UNK d   1       5.813 -21.291 -41.260  0.00  0.00     0.236 C 
ATOM     26  O   UNK d   1       6.483 -21.852 -42.142  0.00  0.00    -0.272 OA
ATOM     27  N   UNK d   1       6.221 -20.058 -40.708  0.00  0.00    -0.369 N 
ATOM     28  H   UNK d   1       6.000 -19.776 -39.713  0.00  0.00     0.159 HD
ATOM     29  H   UNK d   1       6.765 -19.383 -41.287  0.00  0.00     0.159 HD
ENDBRANCH  24  25
ENDBRANCH  21  24
ENDBRANCH   4  19
TORSDOF 6
ENDMDL
