/Users/jonathanwahrer/Desktop/Msc/3_Semester/Drug_Design_Praktikum/waehrer_HTS_screening/HTS_experiment/out/docking_results/vina_output/6y4q/0467_docked.pdbqt
 OpenBabel03232217403D

 28 31  0  0  1  0  0  0  0  0999 V2000
    1.2790  -17.8680  -39.8090 C   0  0  1  0  0  3  0  0  0  0  0  0
    2.4310  -18.4460  -39.4320 N   0  0  0  0  0  0  0  0  0  0  0  0
    2.4760  -19.5370  -38.6210 C   0  0  0  0  0  0  0  0  0  0  0  0
    1.2980  -20.0090  -38.2160 N   0  0  0  0  0  0  0  0  0  0  0  0
    0.1220  -19.4840  -38.5530 C   0  0  0  0  0  0  0  0  0  0  0  0
    0.1330  -18.3890  -39.3700 N   0  0  0  0  0  0  0  0  0  0  0  0
    1.3880  -16.7220  -40.6260 N   0  0  0  0  0  0  0  0  0  0  0  0
    0.9790  -16.7510  -41.5850 H   0  0  0  0  0  0  0  0  0  0  0  0
    2.0140  -15.5650  -40.2080 N   0  0  0  0  0  0  0  0  0  0  0  0
    1.6960  -14.8010  -39.2520 C   0  0  0  0  0  3  0  0  0  0  0  0
    2.4600  -13.6110  -38.9380 C   0  0  0  0  0  0  0  0  0  0  0  0
    2.4050  -13.0150  -37.6980 C   0  0  0  0  0  0  0  0  0  0  0  0
    1.3040  -13.7720  -36.3540 Br  0  0  0  0  0  0  0  0  0  0  0  0
    3.1420  -11.8770  -37.4310 C   0  0  0  0  0  3  0  0  0  0  0  0
    3.9660  -11.2830  -38.3900 C   0  0  0  0  0  0  0  0  0  0  0  0
    4.0280  -11.8780  -39.6470 C   0  0  0  0  0  0  0  0  0  0  0  0
    4.7940  -10.1720  -38.4070 O   0  0  0  0  0  0  0  0  0  0  0  0
    3.2830  -13.0130  -39.8900 C   0  0  0  0  0  3  0  0  0  0  0  0
    4.8930  -11.1140  -40.3980 O   0  0  0  0  0  0  0  0  0  0  0  0
    5.2530   -9.9320  -39.7120 C   0  0  0  0  0  2  0  0  0  0  0  0
    3.7170  -20.0820  -38.2850 N   0  0  0  0  0  0  0  0  0  0  0  0
    4.1740  -21.3230  -38.8640 C   0  0  0  0  0  2  0  0  0  0  0  0
    5.6660  -21.4970  -38.6740 C   0  0  0  0  0  2  0  0  0  0  0  0
    6.4020  -20.3580  -38.7010 O   0  0  0  0  0  0  0  0  0  0  0  0
    5.9000  -19.2280  -38.1350 C   0  0  0  0  0  2  0  0  0  0  0  0
    4.6000  -19.4190  -37.3600 C   0  0  0  0  0  2  0  0  0  0  0  0
   -1.0860  -19.9980  -38.1150 O   0  0  0  0  0  0  0  0  0  0  0  0
   -1.7620  -19.4160  -37.0320 C   0  0  0  0  0  1  0  0  0  0  0  0
  1  7  1  1  0  0  0
  1  2  1  0  0  0  0
  1  6  1  0  0  0  0
  2  3  2  0  0  0  0
  3 21  1  0  0  0  0
  3  4  1  0  0  0  0
  5  4  2  0  0  0  0
  5 27  1  0  0  0  0
  6  5  2  0  0  0  0
  7  9  1  0  0  0  0
  8  7  1  0  0  0  0
  9 10  2  0  0  0  0
 10 11  1  0  0  0  0
 11 12  1  0  0  0  0
 12 14  2  0  0  0  0
 12 13  1  0  0  0  0
 15 14  1  0  0  0  0
 16 15  2  0  0  0  0
 17 15  1  0  0  0  0
 18 16  1  0  0  0  0
 18 11  2  0  0  0  0
 19 20  1  0  0  0  0
 19 16  1  0  0  0  0
 20 17  1  0  0  0  0
 21 26  1  0  0  0  0
 22 23  1  0  0  0  0
 22 21  1  0  0  0  0
 24 23  1  0  0  0  0
 24 25  1  0  0  0  0
 25 26  1  0  0  0  0
 27 28  1  0  0  0  0
M  END
>  <Pose>
1

>  <Score>
-6.415

$$$$
