MODEL 1
REMARK VINA RESULT:    -6.415      0.000      0.000
REMARK INTER + INTRA:          -9.013
REMARK INTER:                  -8.290
REMARK INTRA:                  -0.723
REMARK UNBOUND:                -0.723
REMARK  5 active torsions:
REMARK  status: ('A' for Active; 'I' for Inactive)
REMARK    1  A    between atoms: C_7  and  C_8 
REMARK    2  A    between atoms: N_9  and  N_10 
REMARK    3  A    between atoms: N_10  and  C_11 
REMARK    4  A    between atoms: C_13  and  N_19 
REMARK    5  A    between atoms: C_15  and  O_17 
ROOT
ATOM      1  C   UNK d   1       1.279 -17.868 -39.809  0.00  0.00     0.762 A 
ATOM      2  N   UNK d   1       2.431 -18.446 -39.432  0.00  0.00     0.132 NA
ATOM      3  C   UNK d   1       2.476 -19.537 -38.621  0.00  0.00     0.744 A 
ATOM      4  N   UNK d   1       1.298 -20.009 -38.216  0.00  0.00    -0.017 NA
ATOM      5  C   UNK d   1       0.122 -19.484 -38.553  0.00  0.00     0.302 A 
ATOM      6  N   UNK d   1       0.133 -18.389 -39.370  0.00  0.00    -0.016 NA
ENDROOT
BRANCH   1   7
ATOM      7  N   UNK d   1       1.388 -16.722 -40.626  0.00  0.00    -0.105 N 
ATOM      8  H   UNK d   1       0.979 -16.751 -41.585  0.00  0.00     0.208 HD
BRANCH   7   9
ATOM      9  N   UNK d   1       2.014 -15.565 -40.208  0.00  0.00    -0.172 NA
ATOM     10  C   UNK d   1       1.696 -14.801 -39.252  0.00  0.00     0.152 C 
BRANCH  10  11
ATOM     11  C   UNK d   1       2.460 -13.611 -38.938  0.00  0.00     0.003 A 
ATOM     12  C   UNK d   1       2.405 -13.015 -37.698  0.00  0.00     0.025 A 
ATOM     13 Br   UNK d   1       1.304 -13.772 -36.354  0.00  0.00    -0.050 Br
ATOM     14  C   UNK d   1       3.142 -11.877 -37.431  0.00  0.00     0.059 A 
ATOM     15  C   UNK d   1       3.966 -11.283 -38.390  0.00  0.00     0.106 A 
ATOM     16  C   UNK d   1       4.028 -11.878 -39.647  0.00  0.00     0.105 A 
ATOM     17  O   UNK d   1       4.794 -10.172 -38.407  0.00  0.00    -0.323 OA
ATOM     18  C   UNK d   1       3.283 -13.013 -39.890  0.00  0.00     0.054 A 
ATOM     19  O   UNK d   1       4.893 -11.114 -40.398  0.00  0.00    -0.323 OA
ATOM     20  C   UNK d   1       5.253  -9.932 -39.712  0.00  0.00     0.352 C 
ENDBRANCH  10  11
ENDBRANCH   7   9
ENDBRANCH   1   7
BRANCH   3  21
ATOM     21  N   UNK d   1       3.717 -20.082 -38.285  0.00  0.00    -0.209 N 
ATOM     22  C   UNK d   1       4.174 -21.323 -38.864  0.00  0.00     0.167 C 
ATOM     23  C   UNK d   1       5.666 -21.497 -38.674  0.00  0.00     0.188 C 
ATOM     24  O   UNK d   1       6.402 -20.358 -38.701  0.00  0.00    -0.388 OA
ATOM     25  C   UNK d   1       5.900 -19.228 -38.135  0.00  0.00     0.188 C 
ATOM     26  C   UNK d   1       4.600 -19.419 -37.360  0.00  0.00     0.167 C 
ENDBRANCH   3  21
BRANCH   5  27
ATOM     27  O   UNK d   1      -1.086 -19.998 -38.115  0.00  0.00    -0.323 OA
ATOM     28  C   UNK d   1      -1.762 -19.416 -37.032  0.00  0.00     0.213 C 
ENDBRANCH   5  27
TORSDOF 5
ENDMDL
