MODEL 1
REMARK VINA RESULT:    -6.632      0.000      0.000
REMARK INTER + INTRA:          -9.053
REMARK INTER:                  -8.183
REMARK INTRA:                  -0.870
REMARK UNBOUND:                -0.870
REMARK  4 active torsions:
REMARK  status: ('A' for Active; 'I' for Inactive)
REMARK    1  A    between atoms: C_7  and  N_8 
REMARK       I    between atoms: N_8  and  C_9 
REMARK    2  A    between atoms: C_9  and  C_11 
REMARK    3  A    between atoms: C_11  and  N_12 
REMARK    4  A    between atoms: N_15  and  C_18 
ROOT
ATOM      1  N   UNK d   1       1.470 -17.564 -37.448  0.00  0.00    -0.401 N 
ATOM      2  C   UNK d   1       0.835 -18.634 -38.058  0.00  0.00     0.137 C 
ATOM      3  C   UNK d   1       1.452 -19.979 -38.055  0.00  0.00     0.144 C 
ATOM      4  N   UNK d   1       2.852 -19.849 -37.767  0.00  0.00    -0.362 N 
ATOM      5  C   UNK d   1       3.137 -19.137 -36.547  0.00  0.00     0.144 C 
ATOM      6  C   UNK d   1       2.697 -17.713 -36.767  0.00  0.00     0.137 C 
ENDROOT
BRANCH   1   7
ATOM      7  C   UNK d   1       0.609 -16.537 -36.908  0.00  0.00     0.220 C 
BRANCH   7   8
ATOM      8  C   UNK d   1       0.901 -15.188 -37.524  0.00  0.00     0.239 C 
ATOM      9  N   UNK d   1       1.380 -14.173 -36.670  0.00  0.00    -0.324 N 
ATOM     10  H   UNK d   1       1.510 -14.422 -35.639  0.00  0.00     0.169 HD
ATOM     11  O   UNK d   1       0.694 -15.073 -38.743  0.00  0.00    -0.271 OA
BRANCH   9  12
ATOM     12  C   UNK d   1       1.705 -12.853 -37.066  0.00  0.00     0.055 A 
ATOM     13  C   UNK d   1       0.704 -11.875 -36.972  0.00  0.00     0.040 A 
ATOM     14 Br   UNK d   1      -1.005 -12.385 -36.322  0.00  0.00    -0.049 Br
ATOM     15  C   UNK d   1       0.978 -10.582 -37.350  0.00  0.00     0.061 A 
ATOM     16  C   UNK d   1       2.199 -10.206 -37.816  0.00  0.00     0.103 A 
ATOM     17  C   UNK d   1       3.202 -11.144 -37.920  0.00  0.00     0.104 A 
ATOM     18  O   UNK d   1       2.519  -8.914 -38.209  0.00  0.00    -0.346 OA
ATOM     19  C   UNK d   1       2.946 -12.467 -37.542  0.00  0.00     0.070 A 
ATOM     20  O   UNK d   1       4.425 -10.742 -38.393  0.00  0.00    -0.346 OA
ATOM     21  C   UNK d   1       4.624  -9.620 -39.218  0.00  0.00     0.202 C 
ATOM     22  C   UNK d   1       3.427  -8.728 -39.303  0.00  0.00     0.202 C 
ENDBRANCH   9  12
ENDBRANCH   7   8
ENDBRANCH   1   7
BRANCH   4  23
ATOM     23  C   UNK d   1       3.915 -20.336 -38.544  0.00  0.00     0.142 A 
ATOM     24  N   UNK d   1       4.658 -21.423 -38.213  0.00  0.00    -0.224 NA
ATOM     25  C   UNK d   1       5.670 -21.866 -38.980  0.00  0.00     0.237 A 
ATOM     26  N   UNK d   1       5.997 -21.245 -40.127  0.00  0.00    -0.222 NA
ATOM     27  C   UNK d   1       5.313 -20.157 -40.535  0.00  0.00     0.162 A 
ATOM     28  N   UNK d   1       5.418 -19.347 -41.620  0.00  0.00    -0.256 N 
ATOM     29  C   UNK d   1       4.283 -19.716 -39.743  0.00  0.00     0.076 A 
ATOM     30  N   UNK d   1       4.472 -18.433 -41.490  0.00  0.00    -0.182 NA
ATOM     31  C   UNK d   1       6.396 -19.485 -42.700  0.00  0.00     0.182 C 
ATOM     32  C   UNK d   1       3.760 -18.610 -40.375  0.00  0.00     0.158 A 
ENDBRANCH   4  23
TORSDOF 4
ENDMDL
