MODEL 1
REMARK VINA RESULT:    -7.060      0.000      0.000
REMARK INTER + INTRA:          -8.813
REMARK INTER:                  -8.298
REMARK INTRA:                  -0.514
REMARK UNBOUND:                -0.514
REMARK  3 active torsions:
REMARK  status: ('A' for Active; 'I' for Inactive)
REMARK    1  A    between atoms: C_11  and  C_13 
REMARK       I    between atoms: C_13  and  N_15 
REMARK    2  A    between atoms: N_18  and  C_21 
REMARK    3  A    between atoms: C_21  and  C_22 
ROOT
ATOM      1  C   UNK d   1       0.824 -16.397 -39.147  0.00  0.00     0.277 C 
ATOM      2  O   UNK d   1      -0.019 -16.315 -40.086  0.00  0.00    -0.265 OA
ATOM      3  N   UNK d   1       1.171 -17.665 -38.639  0.00  0.00    -0.343 N 
ATOM      4  C   UNK d   1       0.553 -18.836 -39.206  0.00  0.00     0.145 C 
ATOM      5  C   UNK d   1       1.561 -19.855 -39.693  0.00  0.00     0.137 C 
ATOM      6  N   UNK d   1       2.718 -19.764 -38.884  0.00  0.00    -0.404 N 
ATOM      7  C   UNK d   1       2.431 -19.400 -37.552  0.00  0.00     0.137 C 
ATOM      8  C   UNK d   1       2.116 -17.893 -37.572  0.00  0.00     0.145 C 
ENDROOT
BRANCH   1   9
ATOM      9  C   UNK d   1       1.400 -15.149 -38.631  0.00  0.00     0.147 A 
ATOM     10  C   UNK d   1       1.060 -14.703 -37.376  0.00  0.00     0.098 A 
ATOM     11  C   UNK d   1       1.576 -13.537 -36.850  0.00  0.00     0.187 A 
ATOM     12  C   UNK d   1       2.463 -12.796 -37.610  0.00  0.00     0.048 A 
ATOM     13  O   UNK d   1       1.255 -13.132 -35.685  0.00  0.00    -0.287 OA
ATOM     14  C   UNK d   1       2.764 -13.295 -38.863  0.00  0.00     0.091 A 
ATOM     15  C   UNK d   1       2.992 -11.630 -37.113  0.00  0.00     0.020 A 
ATOM     16  C   UNK d   1       3.653 -12.547 -39.621  0.00  0.00     0.057 A 
ATOM     17  O   UNK d   1       2.242 -14.411 -39.310  0.00  0.00    -0.304 OA
ATOM     18  C   UNK d   1       4.203 -11.369 -39.145  0.00  0.00     0.013 A 
ATOM     19 Br   UNK d   1       5.422 -10.370 -40.219  0.00  0.00    -0.051 Br
ATOM     20  C   UNK d   1       3.871 -10.909 -37.885  0.00  0.00     0.020 A 
ENDBRANCH   1   9
BRANCH   6  21
ATOM     21  C   UNK d   1       3.878 -19.231 -39.476  0.00  0.00     0.181 C 
BRANCH  21  22
ATOM     22  C   UNK d   1       5.142 -19.623 -38.858  0.00  0.00     0.108 A 
ATOM     23  N   UNK d   1       5.792 -18.933 -37.907  0.00  0.00    -0.106 NA
ATOM     24  O   UNK d   1       6.858 -19.591 -37.620  0.00  0.00    -0.106 OA
ATOM     25  N   UNK d   1       6.951 -20.686 -38.332  0.00  0.00    -0.108 NA
ATOM     26  C   UNK d   1       5.870 -20.747 -39.141  0.00  0.00     0.088 A 
ATOM     27  C   UNK d   1       5.548 -21.818 -40.131  0.00  0.00     0.075 C 
ENDBRANCH  21  22
ENDBRANCH   6  21
TORSDOF 3
ENDMDL
