MODEL 1
REMARK VINA RESULT:    -7.005      0.000      0.000
REMARK INTER + INTRA:          -9.797
REMARK INTER:                  -9.052
REMARK INTRA:                  -0.745
REMARK UNBOUND:                -0.745
REMARK  5 active torsions:
REMARK  status: ('A' for Active; 'I' for Inactive)
REMARK    1  A    between atoms: N_10  and  C_13 
REMARK    2  A    between atoms: C_13  and  C_14 
REMARK    3  A    between atoms: C_14  and  C_15 
REMARK    4  A    between atoms: C_15  and  C_16 
REMARK       I    between atoms: C_16  and  N_18 
REMARK    5  A    between atoms: N_21  and  C_24 
ROOT
ATOM      1  C   UNK d   1       1.996 -17.023 -36.994  0.00  0.00     0.104 C 
ENDROOT
BRANCH   1   2
ATOM      2  C   UNK d   1       0.820 -16.347 -36.349  0.00  0.00     0.029 C 
BRANCH   2   3
ATOM      3  C   UNK d   1       0.278 -15.306 -37.258  0.00  0.00     0.136 C 
BRANCH   3   4
ATOM      4  N   UNK d   1       1.265 -14.339 -37.686  0.00  0.00    -0.280 N 
ATOM      5  C   UNK d   1       1.744 -13.297 -36.850  0.00  0.00     0.261 A 
ATOM      6  C   UNK d   1       2.716 -12.522 -37.600  0.00  0.00     0.048 A 
ATOM      7  O   UNK d   1       1.412 -13.043 -35.647  0.00  0.00    -0.267 OA
ATOM      8  C   UNK d   1       2.811 -13.094 -38.854  0.00  0.00     0.049 A 
ATOM      9  C   UNK d   1       3.476 -11.418 -37.273  0.00  0.00     0.019 A 
ATOM     10  C   UNK d   1       3.686 -12.519 -39.757  0.00  0.00     0.037 A 
ATOM     11  C   UNK d   1       1.901 -14.246 -38.937  0.00  0.00     0.261 A 
ATOM     12  C   UNK d   1       4.441 -11.414 -39.419  0.00  0.00     0.011 A 
ATOM     13 Br   UNK d   1       5.630 -10.676 -40.715  0.00  0.00    -0.051 Br
ATOM     14  C   UNK d   1       4.353 -10.839 -38.168  0.00  0.00     0.020 A 
ATOM     15  O   UNK d   1       1.746 -14.988 -39.946  0.00  0.00    -0.267 OA
ENDBRANCH   3   4
ENDBRANCH   2   3
ENDBRANCH   1   2
BRANCH   1  16
ATOM     16  C   UNK d   1       1.643 -18.183 -37.845  0.00  0.00     0.219 C 
ATOM     17  O   UNK d   1       0.535 -18.307 -38.428  0.00  0.00    -0.273 OA
ATOM     18  N   UNK d   1       2.586 -19.254 -38.049  0.00  0.00    -0.349 N 
ATOM     19  C   UNK d   1       2.252 -20.388 -38.879  0.00  0.00     0.145 C 
ATOM     20  C   UNK d   1       3.902 -19.248 -37.439  0.00  0.00     0.145 C 
ATOM     21  C   UNK d   1       3.350 -20.795 -39.803  0.00  0.00     0.144 C 
ATOM     22  N   UNK d   1       4.546 -19.994 -39.694  0.00  0.00    -0.362 N 
ATOM     23  C   UNK d   1       4.978 -19.328 -38.495  0.00  0.00     0.144 C 
BRANCH  22  24
ATOM     24  C   UNK d   1       5.361 -19.854 -40.863  0.00  0.00     0.143 A 
ATOM     25  N   UNK d   1       5.513 -18.654 -41.486  0.00  0.00    -0.241 NA
ATOM     26  C   UNK d   1       6.261 -18.481 -42.574  0.00  0.00     0.138 A 
ATOM     27  C   UNK d   1       6.924 -19.574 -43.111  0.00  0.00     0.135 A 
ATOM     28  N   UNK d   1       6.795 -20.784 -42.515  0.00  0.00    -0.268 NA
ATOM     29  C   UNK d   1       6.031 -20.919 -41.418  0.00  0.00     0.166 A 
ENDBRANCH  22  24
ENDBRANCH   1  16
TORSDOF 5
ENDMDL
