MODEL 1
REMARK VINA RESULT:    -7.477      0.000      0.000
REMARK INTER + INTRA:         -11.263
REMARK INTER:                  -9.663
REMARK INTRA:                  -1.600
REMARK UNBOUND:                -1.600
REMARK  5 active torsions:
REMARK  status: ('A' for Active; 'I' for Inactive)
REMARK    1  A    between atoms: N_8  and  C_28 
REMARK    2  A    between atoms: N_12  and  N_13 
REMARK       I    between atoms: N_13  and  C_14 
REMARK    3  A    between atoms: C_14  and  C_16 
REMARK    4  A    between atoms: C_16  and  N_17 
REMARK    5  A    between atoms: C_20  and  C_22 
ROOT
ATOM      1  C   UNK d   1       1.992 -11.443 -37.798  0.00  0.00     0.225 C 
ATOM      2  C   UNK d   1       3.377 -11.180 -37.441  0.00  0.00    -0.097 C 
ATOM      3  C   UNK d   1       4.523 -10.948 -37.156  0.00  0.00     0.014 C 
ENDROOT
BRANCH   1   4
ATOM      4  N   UNK d   1       1.733 -12.869 -37.806  0.00  0.00    -0.300 N 
ATOM      5  C   UNK d   1       1.945 -13.824 -38.840  0.00  0.00     0.051 A 
ATOM      6  C   UNK d   1       1.553 -15.100 -38.416  0.00  0.00     0.028 A 
ATOM      7  C   UNK d   1       2.452 -13.683 -40.123  0.00  0.00     0.032 A 
ATOM      8  C   UNK d   1       1.682 -16.164 -39.283  0.00  0.00     0.035 A 
ATOM      9  C   UNK d   1       1.059 -15.004 -37.050  0.00  0.00     0.157 A 
ATOM     10  C   UNK d   1       2.195 -16.009 -40.576  0.00  0.00     0.011 A 
ATOM     11 Br   UNK d   1       2.370 -17.482 -41.765  0.00  0.00    -0.051 Br
ATOM     12  C   UNK d   1       2.573 -14.757 -40.973  0.00  0.00     0.021 A 
ATOM     13  C   UNK d   1       1.190 -13.573 -36.700  0.00  0.00     0.280 A 
ATOM     14  N   UNK d   1       0.605 -15.948 -36.299  0.00  0.00    -0.166 NA
ATOM     15  O   UNK d   1       0.843 -13.149 -35.563  0.00  0.00    -0.265 OA
BRANCH  14  16
ATOM     16  N   UNK d   1       0.525 -17.273 -36.735  0.00  0.00    -0.245 N 
ATOM     17  C   UNK d   1      -0.695 -17.873 -37.131  0.00  0.00     0.258 C 
ATOM     18  O   UNK d   1      -1.748 -17.196 -37.091  0.00  0.00    -0.270 OA
ATOM     19  H   UNK d   1       1.399 -17.836 -36.758  0.00  0.00     0.192 HD
BRANCH  17  20
ATOM     20  C   UNK d   1      -0.722 -19.259 -37.576  0.00  0.00     0.274 C 
BRANCH  20  21
ATOM     21  N   UNK d   1       0.504 -19.668 -38.234  0.00  0.00    -0.182 N 
ATOM     22  N   UNK d   1       0.638 -20.111 -39.472  0.00  0.00     0.025 NA
ATOM     23  N   UNK d   1       1.906 -20.389 -39.728  0.00  0.00    -0.136 NA
ATOM     24  C   UNK d   1       2.620 -20.120 -38.621  0.00  0.00     0.198 A 
ATOM     25  N   UNK d   1       1.728 -19.679 -37.725  0.00  0.00    -0.136 NA
BRANCH  24  26
ATOM     26  C   UNK d   1       4.063 -20.291 -38.482  0.00  0.00     0.015 A 
ATOM     27  C   UNK d   1       4.653 -21.488 -38.825  0.00  0.00     0.015 A 
ATOM     28  C   UNK d   1       6.034 -21.655 -38.693  0.00  0.00     0.001 A 
ATOM     29  C   UNK d   1       6.841 -20.644 -38.223  0.00  0.00     0.000 A 
ATOM     30  C   UNK d   1       6.251 -19.441 -37.879  0.00  0.00     0.001 A 
ATOM     31  C   UNK d   1       4.878 -19.284 -38.013  0.00  0.00     0.015 A 
ENDBRANCH  24  26
ENDBRANCH  20  21
ENDBRANCH  17  20
ENDBRANCH  14  16
ENDBRANCH   1   4
TORSDOF 5
ENDMDL
