/Users/jonathanwahrer/Desktop/Msc/3_Semester/Drug_Design_Praktikum/waehrer_HTS_screening/HTS_experiment/out/docking_results/vina_output/6y4q/0485_docked.pdbqt
 OpenBabel03232217423D

 34 37  0  0  0  0  0  0  0  0999 V2000
    5.5330  -10.3330  -40.2860 Br  0  0  0  0  0  0  0  0  0  0  0  0
    4.2280  -11.3460  -39.3040 C   0  0  0  0  0  0  0  0  0  0  0  0
    3.7200  -12.5280  -39.7930 C   0  0  0  0  0  3  0  0  0  0  0  0
    2.7740  -13.2950  -39.1200 C   0  0  0  0  0  0  0  0  0  0  0  0
    2.3170  -12.8390  -37.8800 C   0  0  0  0  0  0  0  0  0  0  0  0
    2.8270  -11.6540  -37.3900 C   0  0  0  0  0  3  0  0  0  0  0  0
    3.7730  -10.9020  -38.0810 C   0  0  0  0  0  3  0  0  0  0  0  0
    1.3550  -13.7580  -37.3450 N   0  0  0  0  0  0  0  0  0  0  0  0
    1.2230  -14.8080  -38.2930 C   0  0  0  0  0  0  0  0  0  0  0  0
    0.4700  -15.8000  -38.1750 O   0  0  0  0  0  0  0  0  0  0  0  0
    2.1010  -14.5460  -39.4170 C   0  0  0  0  0  0  0  0  0  0  0  0
    2.2590  -15.2680  -40.4680 N   0  0  0  0  0  0  0  0  0  0  0  0
    1.5760  -16.4590  -40.6830 N   0  0  0  0  0  0  0  0  0  0  0  0
    2.2430  -17.5540  -41.2710 C   0  0  0  0  0  0  0  0  0  0  0  0
    3.4730  -17.4820  -41.6150 O   0  0  0  0  0  0  0  0  0  0  0  0
    0.5850  -16.5330  -40.4120 H   0  0  0  0  0  0  0  0  0  0  0  0
    1.5910  -18.8610  -41.5350 C   0  0  0  0  0  2  0  0  0  0  0  0
    1.4320  -19.5850  -40.3160 O   0  0  0  0  0  0  0  0  0  0  0  0
    2.5230  -20.2110  -39.7380 C   0  0  0  0  0  0  0  0  0  0  0  0
    2.8830  -19.9160  -38.4400 C   0  0  0  0  0  0  0  0  0  0  0  0
    3.9810  -20.5480  -37.8650 C   0  0  0  0  0  3  0  0  0  0  0  0
    4.7160  -21.4700  -38.5850 C   0  0  0  0  0  3  0  0  0  0  0  0
    4.3480  -21.7500  -39.8680 C   0  0  0  0  0  3  0  0  0  0  0  0
    3.2550  -21.1200  -40.4390 C   0  0  0  0  0  3  0  0  0  0  0  0
    2.1740  -19.0060  -37.6970 O   0  0  0  0  0  0  0  0  0  0  0  0
    2.8380  -18.0980  -36.8540 C   0  0  0  0  0  1  0  0  0  0  0  0
    0.6760  -13.6010  -36.0700 C   0  0  0  0  0  2  0  0  0  0  0  0
   -0.5090  -12.8210  -36.1150 N   0  0  0  0  0  0  0  0  0  0  0  0
   -1.6960  -13.5130  -36.4850 C   0  0  0  0  0  2  0  0  0  0  0  0
   -2.9010  -12.5720  -36.5810 C   0  0  0  0  0  2  0  0  0  0  0  0
   -2.3850  -11.2340  -36.5700 N   0  0  0  0  0  0  0  0  0  0  0  0
   -1.7770  -10.8770  -35.3260 C   0  0  0  0  0  2  0  0  0  0  0  0
   -3.2940  -10.2550  -37.0910 C   0  0  0  0  0  1  0  0  0  0  0  0
   -0.6710  -11.8790  -35.0450 C   0  0  0  0  0  2  0  0  0  0  0  0
  1  2  1  0  0  0  0
  2  7  1  0  0  0  0
  3  2  2  0  0  0  0
  3  4  1  0  0  0  0
  4  5  2  0  0  0  0
  5  6  1  0  0  0  0
  5  8  1  0  0  0  0
  7  6  2  0  0  0  0
  8 27  1  0  0  0  0
  9 10  2  0  0  0  0
  9  8  1  0  0  0  0
 11  4  1  0  0  0  0
 11  9  1  0  0  0  0
 12 11  2  0  0  0  0
 13 12  1  0  0  0  0
 13 16  1  0  0  0  0
 14 13  1  0  0  0  0
 15 14  2  0  0  0  0
 17 14  1  0  0  0  0
 17 18  1  0  0  0  0
 18 19  1  0  0  0  0
 19 20  1  0  0  0  0
 20 21  2  0  0  0  0
 20 25  1  0  0  0  0
 22 21  1  0  0  0  0
 23 22  2  0  0  0  0
 24 23  1  0  0  0  0
 24 19  2  0  0  0  0
 25 26  1  0  0  0  0
 28 27  1  0  0  0  0
 28 34  1  0  0  0  0
 29 28  1  0  0  0  0
 30 31  1  0  0  0  0
 30 29  1  0  0  0  0
 31 32  1  0  0  0  0
 32 34  1  0  0  0  0
 33 31  1  0  0  0  0
M  END
>  <Pose>
1

>  <Score>
-6.076

$$$$
