MODEL 1
REMARK VINA RESULT:    -6.076      0.000      0.000
REMARK INTER + INTRA:          -9.971
REMARK INTER:                  -8.562
REMARK INTRA:                  -1.409
REMARK UNBOUND:                -1.409
REMARK  7 active torsions:
REMARK  status: ('A' for Active; 'I' for Inactive)
REMARK    1  A    between atoms: N_8  and  C_26 
REMARK    2  A    between atoms: N_12  and  N_13 
REMARK       I    between atoms: N_13  and  C_14 
REMARK    3  A    between atoms: C_14  and  C_16 
REMARK    4  A    between atoms: C_16  and  O_17 
REMARK    5  A    between atoms: O_17  and  C_18 
REMARK    6  A    between atoms: C_19  and  O_24 
REMARK    7  A    between atoms: C_26  and  N_27 
ROOT
ATOM      1 Br   UNK d   1       5.533 -10.333 -40.286  0.00  0.00    -0.051 Br
ATOM      2  C   UNK d   1       4.228 -11.346 -39.304  0.00  0.00     0.011 A 
ATOM      3  C   UNK d   1       3.720 -12.528 -39.793  0.00  0.00     0.035 A 
ATOM      4  C   UNK d   1       2.774 -13.295 -39.120  0.00  0.00     0.028 A 
ATOM      5  C   UNK d   1       2.317 -12.839 -37.880  0.00  0.00     0.052 A 
ATOM      6  C   UNK d   1       2.827 -11.654 -37.390  0.00  0.00     0.032 A 
ATOM      7  C   UNK d   1       3.773 -10.902 -38.081  0.00  0.00     0.021 A 
ATOM      8  N   UNK d   1       1.355 -13.758 -37.345  0.00  0.00    -0.295 N 
ATOM      9  C   UNK d   1       1.223 -14.808 -38.293  0.00  0.00     0.281 A 
ATOM     10  O   UNK d   1       0.470 -15.800 -38.175  0.00  0.00    -0.265 OA
ATOM     11  C   UNK d   1       2.101 -14.546 -39.417  0.00  0.00     0.157 A 
ATOM     12  N   UNK d   1       2.259 -15.268 -40.468  0.00  0.00    -0.166 NA
ENDROOT
BRANCH  12  13
ATOM     13  N   UNK d   1       1.576 -16.459 -40.683  0.00  0.00    -0.244 N 
ATOM     14  C   UNK d   1       2.243 -17.554 -41.271  0.00  0.00     0.261 C 
ATOM     15  O   UNK d   1       3.473 -17.482 -41.615  0.00  0.00    -0.269 OA
ATOM     16  H   UNK d   1       0.585 -16.533 -40.412  0.00  0.00     0.192 HD
BRANCH  14  17
ATOM     17  C   UNK d   1       1.591 -18.861 -41.535  0.00  0.00     0.280 C 
BRANCH  17  18
ATOM     18  O   UNK d   1       1.432 -19.585 -40.316  0.00  0.00    -0.339 OA
BRANCH  18  19
ATOM     19  C   UNK d   1       2.523 -20.211 -39.738  0.00  0.00     0.102 A 
ATOM     20  C   UNK d   1       2.883 -19.916 -38.440  0.00  0.00     0.101 A 
ATOM     21  C   UNK d   1       3.981 -20.548 -37.865  0.00  0.00     0.039 A 
ATOM     22  C   UNK d   1       4.716 -21.470 -38.585  0.00  0.00     0.003 A 
ATOM     23  C   UNK d   1       4.348 -21.750 -39.868  0.00  0.00     0.003 A 
ATOM     24  C   UNK d   1       3.255 -21.120 -40.439  0.00  0.00     0.039 A 
BRANCH  20  25
ATOM     25  O   UNK d   1       2.174 -19.006 -37.697  0.00  0.00    -0.353 OA
ATOM     26  C   UNK d   1       2.838 -18.098 -36.854  0.00  0.00     0.210 C 
ENDBRANCH  20  25
ENDBRANCH  18  19
ENDBRANCH  17  18
ENDBRANCH  14  17
ENDBRANCH  12  13
BRANCH   8  27
ATOM     27  C   UNK d   1       0.676 -13.601 -36.070  0.00  0.00     0.253 C 
BRANCH  27  28
ATOM     28  N   UNK d   1      -0.509 -12.821 -36.115  0.00  0.00    -0.393 N 
ATOM     29  C   UNK d   1      -1.696 -13.513 -36.485  0.00  0.00     0.148 C 
ATOM     30  C   UNK d   1      -2.901 -12.572 -36.581  0.00  0.00     0.291 C 
ATOM     31  N   UNK d   1      -2.385 -11.234 -36.570  0.00  0.00     0.087 N 
ATOM     32  C   UNK d   1      -1.777 -10.877 -35.326  0.00  0.00     0.291 C 
ATOM     33  C   UNK d   1      -3.294 -10.255 -37.091  0.00  0.00     0.310 C 
ATOM     34  C   UNK d   1      -0.671 -11.879 -35.045  0.00  0.00     0.148 C 
ENDBRANCH  27  28
ENDBRANCH   8  27
TORSDOF 7
ENDMDL
