/Users/jonathanwahrer/Desktop/Msc/3_Semester/Drug_Design_Praktikum/waehrer_HTS_screening/HTS_experiment/out/docking_results/vina_output/6y4q/0500_docked.pdbqt
 OpenBabel03232217423D

 32 35  0  0  1  0  0  0  0  0999 V2000
    3.6470  -15.5670  -42.9650 Br  0  0  0  0  0  0  0  0  0  0  0  0
    2.4300  -16.6670  -41.9560 C   0  0  0  0  0  0  0  0  0  0  0  0
    2.7740  -17.3030  -40.7990 C   0  0  0  0  0  3  0  0  0  0  0  0
    1.8860  -18.1020  -40.1250 C   0  0  0  0  0  0  0  0  0  0  0  0
    0.6360  -18.2370  -40.6590 C   0  0  0  0  0  0  0  0  0  0  0  0
    0.2560  -17.5930  -41.8430 C   0  0  0  0  0  3  0  0  0  0  0  0
    1.1590  -16.7920  -42.5130 C   0  0  0  0  0  3  0  0  0  0  0  0
   -0.1590  -19.1180  -39.8890 N   0  0  0  0  0  0  0  0  0  0  0  0
    0.6220  -19.5600  -38.8240 C   0  0  0  0  0  0  0  0  0  0  0  0
    0.2200  -20.3760  -37.9540 O   0  0  0  0  0  0  0  0  0  0  0  0
    1.9830  -18.9110  -38.8970 C   0  0  2  0  0  0  0  0  0  0  0  0
    2.1180  -18.1860  -37.6430 C   0  0  0  0  0  0  0  0  0  0  0  0
    3.0520  -18.5680  -36.7290 C   0  0  0  0  0  0  0  0  0  0  0  0
    2.9300  -17.7180  -35.6710 N   0  0  0  0  0  0  0  0  0  0  0  0
    1.9760  -16.8570  -35.9140 N   0  0  0  0  0  0  0  0  0  0  0  0
    1.4190  -17.0840  -37.1260 C   0  0  0  0  0  0  0  0  0  0  0  0
    3.9240  -19.6560  -36.9360 O   0  0  0  0  0  0  0  0  0  0  0  0
    3.7920  -20.3390  -38.1290 C   0  0  0  0  0  0  0  0  0  0  0  0
    2.9150  -20.0200  -39.0390 C   0  0  0  0  0  0  0  0  0  0  0  0
    2.8490  -20.8130  -40.2700 C   0  0  0  0  0  0  0  0  0  0  0  0
    2.8090  -21.4190  -41.2420 N   0  0  0  0  0  0  0  0  0  0  0  0
   -1.5610  -19.4940  -40.1620 C   0  0  0  0  0  1  0  0  0  0  0  0
    1.6470  -16.0720  -35.2820 H   0  0  0  0  0  0  0  0  0  0  0  0
    4.6860  -21.4570  -38.3440 N   0  0  0  0  0  0  0  0  0  0  0  0
    5.5690  -21.5920  -37.8200 H   0  0  0  0  0  0  0  0  0  0  0  0
    4.4200  -22.1520  -39.0590 H   0  0  0  0  0  0  0  0  0  0  0  0
    0.3230  -16.2800  -37.7250 C   0  0  0  0  0  2  0  0  0  0  0  0
    0.8490  -15.1120  -38.4640 C   0  0  0  0  0  0  0  0  0  0  0  0
    0.3900  -14.6680  -39.5470 O   0  0  0  0  0  0  0  0  0  0  0  0
    1.9310  -14.4560  -37.9190 O   0  0  0  0  0  0  0  0  0  0  0  0
    1.9240  -13.1770  -37.3430 C   0  0  0  0  0  2  0  0  0  0  0  0
    1.1660  -13.2110  -36.0370 C   0  0  0  0  0  1  0  0  0  0  0  0
  1  2  1  0  0  0  0
  2  3  1  0  0  0  0
  3  4  2  0  0  0  0
  5  4  1  0  0  0  0
  5  8  1  0  0  0  0
  6  5  2  0  0  0  0
  7  2  2  0  0  0  0
  7  6  1  0  0  0  0
  8  9  1  0  0  0  0
  9 10  2  0  0  0  0
 11  4  1  6  0  0  0
 11  9  1  0  0  0  0
 11 12  1  0  0  0  0
 12 16  2  0  0  0  0
 12 13  1  0  0  0  0
 13 14  2  0  0  0  0
 15 14  1  0  0  0  0
 15 23  1  0  0  0  0
 16 15  1  0  0  0  0
 17 13  1  0  0  0  0
 18 17  1  0  0  0  0
 19 11  1  0  0  0  0
 19 18  2  0  0  0  0
 20 19  1  0  0  0  0
 21 20  3  0  0  0  0
 22  8  1  0  0  0  0
 24 18  1  0  0  0  0
 24 25  1  0  0  0  0
 26 24  1  0  0  0  0
 27 16  1  0  0  0  0
 28 30  1  0  0  0  0
 28 27  1  0  0  0  0
 29 28  2  0  0  0  0
 30 31  1  0  0  0  0
 31 32  1  0  0  0  0
M  END
>  <Pose>
1

>  <Score>
-5.810

$$$$
