MODEL 1
REMARK VINA RESULT:    -5.775      0.000      0.000
REMARK INTER + INTRA:          -5.944
REMARK INTER:                  -5.944
REMARK INTRA:                   0.000
REMARK UNBOUND:                 0.000
REMARK  1 active torsions:
REMARK  status: ('A' for Active; 'I' for Inactive)
REMARK    1  A    between atoms: C_15  and  N_19 
ROOT
ATOM      1 Br   UNK d   1       2.865 -13.501 -41.052  0.00  0.00    -0.051 Br
ATOM      2  C   UNK d   1       1.698 -14.949 -40.665  0.00  0.00     0.011 A 
ATOM      3  C   UNK d   1       2.006 -15.941 -39.765  0.00  0.00     0.030 A 
ATOM      4  C   UNK d   1       1.094 -16.970 -39.536  0.00  0.00    -0.002 A 
ATOM      5  C   UNK d   1      -0.104 -17.052 -40.161  0.00  0.00     0.045 A 
ATOM      6  C   UNK d   1      -0.418 -16.043 -41.076  0.00  0.00     0.031 A 
ATOM      7  C   UNK d   1       0.470 -15.019 -41.315  0.00  0.00     0.021 A 
ATOM      8  N   UNK d   1      -0.843 -18.188 -39.754  0.00  0.00    -0.320 N 
ATOM      9  C   UNK d   1      -0.066 -18.881 -38.806  0.00  0.00     0.247 A 
ATOM     10  O   UNK d   1      -0.392 -19.947 -38.214  0.00  0.00    -0.271 OA
ATOM     11  C   UNK d   1       1.213 -18.144 -38.611  0.00  0.00     0.146 A 
ATOM     12  C   UNK d   1       2.364 -18.987 -39.021  0.00  0.00     0.071 A 
ATOM     13  C   UNK d   1       3.369 -19.207 -38.253  0.00  0.00     0.060 A 
ATOM     14  N   UNK d   1       3.471 -18.650 -36.912  0.00  0.00    -0.342 N 
ATOM     15  C   UNK d   1       2.383 -17.845 -36.510  0.00  0.00     0.118 A 
ATOM     16  C   UNK d   1       1.352 -17.609 -37.274  0.00  0.00     0.093 A 
ATOM     17  C   UNK d   1       0.303 -16.760 -36.723  0.00  0.00     0.101 C 
ATOM     18  N   UNK d   1      -0.541 -16.087 -36.303  0.00  0.00    -0.191 NA
ATOM     19  C   UNK d   1       4.339 -20.089 -38.972  0.00  0.00     0.106 A 
ATOM     20  O   UNK d   1       3.770 -20.331 -40.205  0.00  0.00    -0.301 OA
ATOM     21  C   UNK d   1       2.569 -19.701 -40.323  0.00  0.00     0.294 A 
ATOM     22  O   UNK d   1       1.750 -19.679 -41.291  0.00  0.00    -0.259 OA
ATOM     23  C   UNK d   1       4.592 -21.348 -38.164  0.00  0.00     0.053 C 
ATOM     24  C   UNK d   1       5.656 -19.368 -39.194  0.00  0.00     0.053 C 
ATOM     25  C   UNK d   1      -2.177 -18.606 -40.213  0.00  0.00     0.159 C 
ATOM     26  H   UNK d   1       4.304 -18.860 -36.336  0.00  0.00     0.167 HD
ENDROOT
BRANCH  15  27
ATOM     27  N   UNK d   1       2.430 -17.262 -35.179  0.00  0.00    -0.384 N 
ATOM     28  H   UNK d   1       1.652 -16.622 -34.919  0.00  0.00     0.157 HD
ATOM     29  H   UNK d   1       3.198 -17.471 -34.526  0.00  0.00     0.157 HD
ENDBRANCH  15  27
TORSDOF 1
ENDMDL
