MODEL 1
REMARK VINA RESULT:    -6.097      0.000      0.000
REMARK INTER + INTRA:          -6.901
REMARK INTER:                  -6.810
REMARK INTRA:                  -0.091
REMARK UNBOUND:                -0.091
REMARK  3 active torsions:
REMARK  status: ('A' for Active; 'I' for Inactive)
REMARK    1  A    between atoms: C_15  and  N_19 
REMARK    2  A    between atoms: C_23  and  C_25 
REMARK    3  A    between atoms: C_25  and  O_26 
ROOT
ATOM      1 Br   UNK d   1      -2.256 -22.287 -39.002  0.00  0.00    -0.051 Br
ATOM      2  C   UNK d   1      -1.114 -21.088 -39.940  0.00  0.00     0.011 A 
ATOM      3  C   UNK d   1       0.140 -20.807 -39.443  0.00  0.00     0.030 A 
ATOM      4  C   UNK d   1       0.999 -19.929 -40.113  0.00  0.00     0.000 A 
ATOM      5  C   UNK d   1       0.553 -19.369 -41.267  0.00  0.00     0.045 A 
ATOM      6  C   UNK d   1      -0.731 -19.658 -41.774  0.00  0.00     0.031 A 
ATOM      7  C   UNK d   1      -1.569 -20.523 -41.109  0.00  0.00     0.021 A 
ATOM      8  N   UNK d   1       1.565 -18.517 -41.786  0.00  0.00    -0.320 N 
ATOM      9  C   UNK d   1       2.686 -18.539 -40.937  0.00  0.00     0.249 A 
ATOM     10  O   UNK d   1       3.766 -17.912 -41.076  0.00  0.00    -0.271 OA
ATOM     11  C   UNK d   1       2.381 -19.458 -39.801  0.00  0.00     0.163 A 
ATOM     12  C   UNK d   1       2.420 -18.742 -38.521  0.00  0.00     0.119 A 
ATOM     13  C   UNK d   1       3.205 -19.159 -37.496  0.00  0.00     0.159 A 
ATOM     14  O   UNK d   1       4.006 -20.296 -37.639  0.00  0.00    -0.286 OA
ATOM     15  C   UNK d   1       4.006 -21.005 -38.824  0.00  0.00     0.161 A 
ATOM     16  C   UNK d   1       3.264 -20.627 -39.821  0.00  0.00     0.102 A 
ATOM     17  C   UNK d   1       3.327 -21.441 -41.043  0.00  0.00     0.101 C 
ATOM     18  N   UNK d   1       3.368 -22.076 -41.988  0.00  0.00    -0.191 NA
ATOM     19  C   UNK d   1       3.210 -18.445 -36.294  0.00  0.00     0.210 A 
ATOM     20  O   UNK d   1       3.937 -18.839 -35.358  0.00  0.00    -0.285 OA
ATOM     21  C   UNK d   1       2.416 -17.329 -36.168  0.00  0.00     0.092 A 
ATOM     22  C   UNK d   1       1.639 -16.953 -37.243  0.00  0.00     0.080 A 
ATOM     23  O   UNK d   1       1.676 -17.651 -38.328  0.00  0.00    -0.312 OA
ATOM     24  C   UNK d   1       1.407 -17.749 -43.036  0.00  0.00     0.159 C 
ENDROOT
BRANCH  15  25
ATOM     25  N   UNK d   1       4.855 -22.162 -38.898  0.00  0.00    -0.379 N 
ATOM     26  H   UNK d   1       5.821 -22.080 -38.586  0.00  0.00     0.158 HD
ATOM     27  H   UNK d   1       4.461 -23.029 -39.261  0.00  0.00     0.158 HD
ENDBRANCH  15  25
BRANCH  22  28
ATOM     28  C   UNK d   1       0.758 -15.727 -37.129  0.00  0.00     0.229 C 
BRANCH  28  29
ATOM     29  O   UNK d   1       1.068 -15.052 -35.948  0.00  0.00    -0.394 OA
ATOM     30  H   UNK d   1       1.162 -14.072 -36.147  0.00  0.00     0.209 HD
ENDBRANCH  28  29
ENDBRANCH  22  28
TORSDOF 3
ENDMDL
