/Users/jonathanwahrer/Desktop/Msc/3_Semester/Drug_Design_Praktikum/waehrer_HTS_screening/HTS_experiment/out/docking_results/vina_output/6y4q/0505_docked.pdbqt
 OpenBabel03232217423D

 30 33  0  0  1  0  0  0  0  0999 V2000
   -2.2560  -22.2870  -39.0020 Br  0  0  0  0  0  0  0  0  0  0  0  0
   -1.1140  -21.0880  -39.9400 C   0  0  0  0  0  0  0  0  0  0  0  0
    0.1400  -20.8070  -39.4430 C   0  0  0  0  0  3  0  0  0  0  0  0
    0.9990  -19.9290  -40.1130 C   0  0  0  0  0  0  0  0  0  0  0  0
    0.5530  -19.3690  -41.2670 C   0  0  0  0  0  0  0  0  0  0  0  0
   -0.7310  -19.6580  -41.7740 C   0  0  0  0  0  3  0  0  0  0  0  0
   -1.5690  -20.5230  -41.1090 C   0  0  0  0  0  3  0  0  0  0  0  0
    1.5650  -18.5170  -41.7860 N   0  0  0  0  0  0  0  0  0  0  0  0
    2.6860  -18.5390  -40.9370 C   0  0  0  0  0  0  0  0  0  0  0  0
    3.7660  -17.9120  -41.0760 O   0  0  0  0  0  0  0  0  0  0  0  0
    2.3810  -19.4580  -39.8010 C   0  0  1  0  0  0  0  0  0  0  0  0
    2.4200  -18.7420  -38.5210 C   0  0  0  0  0  0  0  0  0  0  0  0
    3.2050  -19.1590  -37.4960 C   0  0  0  0  0  0  0  0  0  0  0  0
    4.0060  -20.2960  -37.6390 O   0  0  0  0  0  0  0  0  0  0  0  0
    4.0060  -21.0050  -38.8240 C   0  0  0  0  0  0  0  0  0  0  0  0
    3.2640  -20.6270  -39.8210 C   0  0  0  0  0  0  0  0  0  0  0  0
    3.3270  -21.4410  -41.0430 C   0  0  0  0  0  0  0  0  0  0  0  0
    3.3680  -22.0760  -41.9880 N   0  0  0  0  0  0  0  0  0  0  0  0
    3.2100  -18.4450  -36.2940 C   0  0  0  0  0  0  0  0  0  0  0  0
    3.9370  -18.8390  -35.3580 O   0  0  0  0  0  0  0  0  0  0  0  0
    2.4160  -17.3290  -36.1680 C   0  0  0  0  0  3  0  0  0  0  0  0
    1.6390  -16.9530  -37.2430 C   0  0  0  0  0  0  0  0  0  0  0  0
    1.6760  -17.6510  -38.3280 O   0  0  0  0  0  0  0  0  0  0  0  0
    1.4070  -17.7490  -43.0360 C   0  0  0  0  0  1  0  0  0  0  0  0
    4.8550  -22.1620  -38.8980 N   0  0  0  0  0  0  0  0  0  0  0  0
    5.8210  -22.0800  -38.5860 H   0  0  0  0  0  0  0  0  0  0  0  0
    4.4610  -23.0290  -39.2610 H   0  0  0  0  0  0  0  0  0  0  0  0
    0.7580  -15.7270  -37.1290 C   0  0  0  0  0  2  0  0  0  0  0  0
    1.0680  -15.0520  -35.9480 O   0  0  0  0  0  0  0  0  0  0  0  0
    1.1620  -14.0720  -36.1470 H   0  0  0  0  0  0  0  0  0  0  0  0
  2  3  1  0  0  0  0
  2  1  1  0  0  0  0
  4 11  1  0  0  0  0
  4  3  2  0  0  0  0
  5  4  1  0  0  0  0
  6  5  2  0  0  0  0
  6  7  1  0  0  0  0
  7  2  2  0  0  0  0
  8  5  1  0  0  0  0
  8  9  1  0  0  0  0
 10  9  2  0  0  0  0
 11  9  1  6  0  0  0
 11 12  1  0  0  0  0
 12 23  1  0  0  0  0
 12 13  2  0  0  0  0
 13 19  1  0  0  0  0
 14 13  1  0  0  0  0
 15 14  1  0  0  0  0
 16 11  1  0  0  0  0
 16 15  2  0  0  0  0
 17 16  1  0  0  0  0
 18 17  3  0  0  0  0
 19 21  1  0  0  0  0
 19 20  2  0  0  0  0
 22 28  1  0  0  0  0
 22 21  2  0  0  0  0
 23 22  1  0  0  0  0
 24  8  1  0  0  0  0
 25 15  1  0  0  0  0
 25 26  1  0  0  0  0
 27 25  1  0  0  0  0
 28 29  1  0  0  0  0
 30 29  1  0  0  0  0
M  END
>  <Pose>
1

>  <Score>
-6.097

$$$$
