MODEL 1
REMARK VINA RESULT:    -7.188      0.000      0.000
REMARK INTER + INTRA:          -9.599
REMARK INTER:                  -8.869
REMARK INTRA:                  -0.730
REMARK UNBOUND:                -0.730
REMARK  4 active torsions:
REMARK  status: ('A' for Active; 'I' for Inactive)
REMARK    1  A    between atoms: C_12  and  N_13 
REMARK    2  A    between atoms: N_13  and  N_14 
REMARK       I    between atoms: N_14  and  C_15 
REMARK    3  A    between atoms: C_15  and  C_17 
REMARK    4  A    between atoms: C_17  and  N_18 
ROOT
ATOM      1  N   UNK d   1       1.975 -14.613 -37.251  0.00  0.00    -0.269 N 
ATOM      2  C   UNK d   1       1.173 -15.507 -36.493  0.00  0.00     0.254 C 
ATOM      3  O   UNK d   1       0.142 -15.045 -35.978  0.00  0.00    -0.270 OA
ATOM      4  H   UNK d   1       2.848 -15.000 -37.671  0.00  0.00     0.190 HD
ENDROOT
BRANCH   1   5
ATOM      5  N   UNK d   1       1.662 -13.281 -37.450  0.00  0.00    -0.308 N 
ATOM      6  H   UNK d   1       0.709 -13.018 -37.824  0.00  0.00     0.186 HD
BRANCH   5   7
ATOM      7  C   UNK d   1       2.534 -12.217 -37.187  0.00  0.00     0.125 C 
ATOM      8  C   UNK d   1       3.416 -11.729 -38.032  0.00  0.00     0.061 A 
ATOM      9  C   UNK d   1       3.709 -12.145 -39.408  0.00  0.00     0.009 A 
ATOM     10  C   UNK d   1       4.340 -10.614 -37.772  0.00  0.00     0.258 A 
ATOM     11  C   UNK d   1       3.182 -13.127 -40.218  0.00  0.00     0.034 A 
ATOM     12  C   UNK d   1       4.709 -11.369 -39.944  0.00  0.00     0.046 A 
ATOM     13  C   UNK d   1       3.614 -13.352 -41.525  0.00  0.00     0.011 A 
ATOM     14 Br   UNK d   1       2.824 -14.736 -42.586  0.00  0.00    -0.051 Br
ATOM     15  C   UNK d   1       4.614 -12.557 -42.022  0.00  0.00     0.021 A 
ATOM     16  C   UNK d   1       5.170 -11.567 -41.254  0.00  0.00     0.032 A 
ATOM     17  N   UNK d   1       5.100 -10.430 -38.952  0.00  0.00    -0.322 N 
ATOM     18  H   UNK d   1       5.844  -9.702 -39.062  0.00  0.00     0.169 HD
ATOM     19  O   UNK d   1       4.403  -9.979 -36.691  0.00  0.00    -0.267 OA
ENDBRANCH   5   7
ENDBRANCH   1   5
BRANCH   2  20
ATOM     20  C   UNK d   1       1.509 -16.935 -36.301  0.00  0.00     0.236 C 
BRANCH  20  21
ATOM     21  N   UNK d   1       1.287 -17.691 -37.443  0.00  0.00    -0.316 N 
ATOM     22  C   UNK d   1       2.001 -18.647 -38.035  0.00  0.00     0.149 A 
ATOM     23  C   UNK d   1       1.352 -19.038 -39.198  0.00  0.00     0.170 A 
ATOM     24  N   UNK d   1       3.161 -19.217 -37.648  0.00  0.00    -0.287 N 
ATOM     25  N   UNK d   1       0.233 -18.294 -39.284  0.00  0.00    -0.234 NA
ATOM     26  C   UNK d   1       1.892 -20.030 -39.991  0.00  0.00     0.283 A 
ATOM     27  C   UNK d   1       0.191 -17.494 -38.243  0.00  0.00     0.212 A 
ATOM     28  O   UNK d   1       1.282 -20.361 -41.041  0.00  0.00    -0.265 OA
ATOM     29  N   UNK d   1       3.033 -20.576 -39.596  0.00  0.00    -0.269 N 
ATOM     30  C   UNK d   1       3.652 -20.191 -38.466  0.00  0.00     0.332 A 
ATOM     31  C   UNK d   1       3.654 -21.637 -40.406  0.00  0.00     0.164 C 
ATOM     32  O   UNK d   1       4.730 -20.735 -38.127  0.00  0.00    -0.246 OA
ATOM     33  C   UNK d   1       3.827 -18.855 -36.430  0.00  0.00     0.163 C 
ENDBRANCH  20  21
ENDBRANCH   2  20
TORSDOF 4
ENDMDL
