MODEL 1
REMARK VINA RESULT:    -6.795      0.000      0.000
REMARK INTER + INTRA:          -8.865
REMARK INTER:                  -8.384
REMARK INTRA:                  -0.482
REMARK UNBOUND:                -0.482
REMARK  4 active torsions:
REMARK  status: ('A' for Active; 'I' for Inactive)
REMARK    1  A    between atoms: N_12  and  N_13 
REMARK       I    between atoms: N_13  and  C_14 
REMARK    2  A    between atoms: C_14  and  C_16 
REMARK    3  A    between atoms: C_16  and  N_17 
REMARK       I    between atoms: N_17  and  C_18 
REMARK    4  A    between atoms: C_18  and  C_20 
ROOT
ATOM      1  N   UNK d   1       1.997 -17.510 -36.742  0.00  0.00    -0.245 N 
ATOM      2  C   UNK d   1       2.278 -18.295 -37.876  0.00  0.00     0.255 C 
ATOM      3  O   UNK d   1       2.444 -17.699 -38.998  0.00  0.00    -0.270 OA
ATOM      4  H   UNK d   1       1.845 -17.987 -35.812  0.00  0.00     0.192 HD
ENDROOT
BRANCH   2   5
ATOM      5  C   UNK d   1       2.417 -19.753 -37.938  0.00  0.00     0.227 C 
BRANCH   5   6
ATOM      6  N   UNK d   1       2.823 -20.300 -39.202  0.00  0.00    -0.348 N 
ATOM      7  C   UNK d   1       3.900 -21.225 -39.305  0.00  0.00     0.252 C 
ATOM      8  O   UNK d   1       4.482 -21.532 -38.192  0.00  0.00    -0.268 OA
ATOM      9  H   UNK d   1       2.367 -20.033 -40.087  0.00  0.00     0.163 HD
BRANCH   7  10
ATOM     10  C   UNK d   1       4.387 -21.832 -40.505  0.00  0.00     0.034 A 
ATOM     11  C   UNK d   1       5.703 -21.805 -40.943  0.00  0.00     0.056 A 
ATOM     12  C   UNK d   1       6.101 -22.408 -42.087  0.00  0.00     0.106 A 
ATOM     13  C   UNK d   1       5.202 -23.089 -42.884  0.00  0.00     0.105 A 
ATOM     14  O   UNK d   1       7.363 -22.554 -42.773  0.00  0.00    -0.323 OA
ATOM     15  C   UNK d   1       3.900 -23.138 -42.496  0.00  0.00     0.041 A 
ATOM     16  O   UNK d   1       5.894 -23.613 -43.988  0.00  0.00    -0.323 OA
ATOM     17  C   UNK d   1       3.470 -22.522 -41.311  0.00  0.00     0.020 A 
ATOM     18  C   UNK d   1       7.207 -23.862 -43.430  0.00  0.00     0.352 C 
ENDBRANCH   7  10
ENDBRANCH   5   6
ENDBRANCH   2   5
BRANCH   1  19
ATOM     19  N   UNK d   1       1.922 -16.166 -36.843  0.00  0.00    -0.166 NA
ATOM     20  C   UNK d   1       1.158 -15.257 -36.751  0.00  0.00     0.157 A 
ATOM     21  C   UNK d   1       1.330 -13.808 -36.918  0.00  0.00     0.028 A 
ATOM     22  C   UNK d   1      -0.269 -15.495 -36.384  0.00  0.00     0.277 A 
ATOM     23  C   UNK d   1       2.444 -13.070 -37.255  0.00  0.00     0.035 A 
ATOM     24  C   UNK d   1       0.122 -13.234 -36.678  0.00  0.00     0.048 A 
ATOM     25  C   UNK d   1       2.391 -11.710 -37.367  0.00  0.00     0.011 A 
ATOM     26 Br   UNK d   1       3.913 -10.679 -37.836  0.00  0.00    -0.051 Br
ATOM     27  C   UNK d   1       1.165 -11.101 -37.125  0.00  0.00     0.021 A 
ATOM     28  C   UNK d   1       0.059 -11.841 -36.790  0.00  0.00     0.032 A 
ATOM     29  N   UNK d   1      -0.860 -14.193 -36.354  0.00  0.00    -0.321 N 
ATOM     30  H   UNK d   1      -1.870 -14.024 -36.128  0.00  0.00     0.169 HD
ATOM     31  O   UNK d   1      -0.755 -16.608 -36.169  0.00  0.00    -0.266 OA
ENDBRANCH   1  19
TORSDOF 4
ENDMDL
