MODEL 1
REMARK VINA RESULT:    -6.390      0.000      0.000
REMARK INTER + INTRA:          -7.491
REMARK INTER:                  -7.138
REMARK INTRA:                  -0.354
REMARK UNBOUND:                -0.354
REMARK  2 active torsions:
REMARK  status: ('A' for Active; 'I' for Inactive)
REMARK    1  A    between atoms: N_18  and  C_21 
REMARK    2  A    between atoms: C_21  and  C_22 
ROOT
ATOM      1 Br   UNK d   1       0.690 -16.505 -36.183  0.00  0.00    -0.051 Br
ATOM      2  C   UNK d   1       1.437 -16.868 -37.900  0.00  0.00     0.011 A 
ATOM      3  C   UNK d   1       2.315 -17.924 -38.115  0.00  0.00     0.031 A 
ATOM      4  C   UNK d   1       2.847 -18.179 -39.350  0.00  0.00     0.019 A 
ATOM      5  C   UNK d   1       2.475 -17.338 -40.388  0.00  0.00     0.044 A 
ATOM      6  C   UNK d   1       1.605 -16.289 -40.181  0.00  0.00     0.031 A 
ATOM      7  C   UNK d   1       1.077 -16.042 -38.936  0.00  0.00     0.021 A 
ATOM      8  N   UNK d   1       3.113 -17.743 -41.602  0.00  0.00    -0.324 N 
ATOM      9  C   UNK d   1       3.915 -18.874 -41.336  0.00  0.00     0.267 A 
ATOM     10  O   UNK d   1       4.593 -19.466 -42.188  0.00  0.00    -0.270 OA
ATOM     11  C   UNK d   1       3.769 -19.173 -39.895  0.00  0.00     0.281 A 
ATOM     12  N   UNK d   1       5.085 -19.188 -39.330  0.00  0.00     0.118 N 
ATOM     13  C   UNK d   1       5.646 -20.463 -39.773  0.00  0.00     0.239 C 
ATOM     14  C   UNK d   1       4.504 -21.422 -39.851  0.00  0.00     0.128 C 
ATOM     15  C   UNK d   1       3.292 -20.582 -39.644  0.00  0.00     0.147 C 
ATOM     16  C   UNK d   1       2.329 -21.058 -40.632  0.00  0.00     0.235 C 
ATOM     17  O   UNK d   1       1.126 -20.725 -40.714  0.00  0.00    -0.272 OA
ATOM     18  N   UNK d   1       2.962 -21.963 -41.501  0.00  0.00    -0.285 N 
ATOM     19  C   UNK d   1       4.366 -22.037 -41.210  0.00  0.00     0.233 C 
ATOM     20  O   UNK d   1       5.297 -22.503 -41.914  0.00  0.00    -0.272 OA
ATOM     21  C   UNK d   1       6.569 -20.912 -38.650  0.00  0.00     0.038 C 
ATOM     22  C   UNK d   1       6.518 -19.818 -37.605  0.00  0.00     0.032 C 
ATOM     23  C   UNK d   1       5.124 -19.239 -37.884  0.00  0.00     0.275 C 
ATOM     24  H   UNK d   1       2.989 -17.257 -42.538  0.00  0.00     0.169 HD
ENDROOT
BRANCH  18  25
ATOM     25  C   UNK d   1       2.330 -22.719 -42.536  0.00  0.00     0.166 C 
BRANCH  25  26
ATOM     26  C   UNK d   1       1.435 -23.809 -42.070  0.00  0.00     0.140 C 
ATOM     27  O   UNK d   1       1.929 -25.085 -42.314  0.00  0.00    -0.384 OA
ATOM     28  C   UNK d   1       0.852 -25.913 -42.029  0.00  0.00     0.168 C 
ATOM     29  C   UNK d   1      -0.399 -25.224 -42.475  0.00  0.00     0.029 C 
ATOM     30  C   UNK d   1       0.040 -23.764 -42.594  0.00  0.00     0.035 C 
ENDBRANCH  25  26
ENDBRANCH  18  25
TORSDOF 2
ENDMDL
