MODEL 1
REMARK VINA RESULT:    -5.885      0.000      0.000
REMARK INTER + INTRA:          -6.057
REMARK INTER:                  -6.057
REMARK INTRA:                   0.000
REMARK UNBOUND:                 0.000
REMARK  1 active torsions:
REMARK  status: ('A' for Active; 'I' for Inactive)
REMARK    1  A    between atoms: C_15  and  N_19 
ROOT
ATOM      1 Br   UNK d   1       3.334 -12.789 -40.073  0.00  0.00    -0.051 Br
ATOM      2  C   UNK d   1       2.399 -13.600 -38.633  0.00  0.00     0.011 A 
ATOM      3  C   UNK d   1       1.714 -14.810 -38.779  0.00  0.00     0.030 A 
ATOM      4  C   UNK d   1       1.043 -15.388 -37.735  0.00  0.00    -0.002 A 
ATOM      5  C   UNK d   1       1.039 -14.770 -36.519  0.00  0.00     0.043 A 
ATOM      6  C   UNK d   1       1.711 -13.556 -36.321  0.00  0.00     0.031 A 
ATOM      7  C   UNK d   1       2.376 -13.000 -37.388  0.00  0.00     0.021 A 
ATOM      8  N   UNK d   1       0.294 -15.520 -35.573  0.00  0.00    -0.325 N 
ATOM      9  C   UNK d   1      -0.192 -16.663 -36.232  0.00  0.00     0.246 A 
ATOM     10  O   UNK d   1      -0.899 -17.589 -35.756  0.00  0.00    -0.271 OA
ATOM     11  C   UNK d   1       0.261 -16.634 -37.640  0.00  0.00     0.146 A 
ATOM     12  C   UNK d   1      -0.931 -16.585 -38.547  0.00  0.00     0.071 A 
ATOM     13  C   UNK d   1      -1.191 -17.435 -39.505  0.00  0.00     0.060 A 
ATOM     14  N   UNK d   1      -0.282 -18.498 -39.720  0.00  0.00    -0.342 N 
ATOM     15  C   UNK d   1       0.876 -18.627 -38.911  0.00  0.00     0.118 A 
ATOM     16  C   UNK d   1       1.139 -17.776 -37.949  0.00  0.00     0.093 A 
ATOM     17  C   UNK d   1       2.357 -17.981 -37.159  0.00  0.00     0.101 C 
ATOM     18  N   UNK d   1       3.309 -18.130 -36.521  0.00  0.00    -0.191 NA
ATOM     19  C   UNK d   1      -2.459 -17.033 -40.161  0.00  0.00     0.106 A 
ATOM     20  O   UNK d   1      -2.915 -15.878 -39.505  0.00  0.00    -0.301 OA
ATOM     21  C   UNK d   1      -2.004 -15.576 -38.511  0.00  0.00     0.294 A 
ATOM     22  O   UNK d   1      -2.095 -14.585 -37.708  0.00  0.00    -0.259 OA
ATOM     23  C   UNK d   1      -3.539 -18.098 -39.954  0.00  0.00     0.053 C 
ATOM     24  C   UNK d   1      -2.252 -16.786 -41.649  0.00  0.00     0.053 C 
ATOM     25  H   UNK d   1       0.143 -15.248 -34.552  0.00  0.00     0.169 HD
ATOM     26  H   UNK d   1      -0.439 -19.213 -40.477  0.00  0.00     0.167 HD
ENDROOT
BRANCH  15  27
ATOM     27  N   UNK d   1       1.795 -19.728 -39.150  0.00  0.00    -0.384 N 
ATOM     28  H   UNK d   1       2.263 -19.890 -40.057  0.00  0.00     0.157 HD
ATOM     29  H   UNK d   1       1.983 -20.375 -38.367  0.00  0.00     0.157 HD
ENDBRANCH  15  27
TORSDOF 1
ENDMDL
