/Users/jonathanwahrer/Desktop/Msc/3_Semester/Drug_Design_Praktikum/waehrer_HTS_screening/HTS_experiment/out/docking_results/vina_output/6y4q/0559_docked.pdbqt
 OpenBabel03232217433D

 32 35  0  0  1  0  0  0  0  0999 V2000
    2.9730  -13.7810  -42.6920 Br  0  0  0  0  0  0  0  0  0  0  0  0
    2.7960  -15.6920  -42.7230 C   0  0  0  0  0  0  0  0  0  0  0  0
    2.8110  -16.4430  -41.5620 C   0  0  0  0  0  3  0  0  0  0  0  0
    2.6850  -17.8170  -41.5740 C   0  0  0  0  0  0  0  0  0  0  0  0
    2.5430  -18.4090  -42.8120 C   0  0  0  0  0  0  0  0  0  0  0  0
    2.5290  -17.6570  -43.9830 C   0  0  0  0  0  3  0  0  0  0  0  0
    2.6540  -16.3020  -43.9430 C   0  0  0  0  0  3  0  0  0  0  0  0
    2.4340  -19.8300  -42.6340 N   0  0  0  0  0  0  0  0  0  0  0  0
    2.5100  -20.1310  -41.2520 C   0  0  0  0  0  0  0  0  0  0  0  0
    2.4540  -21.2900  -40.7800 O   0  0  0  0  0  0  0  0  0  0  0  0
    2.6610  -18.8560  -40.5190 C   0  0  1  0  0  0  0  0  0  0  0  0
    3.8560  -18.8580  -39.7180 N   0  0  0  0  0  0  0  0  0  0  0  0
    3.4770  -19.5950  -38.5310 C   0  0  2  0  0  3  0  0  0  0  0  0
    2.1020  -19.0720  -38.2120 C   0  0  2  0  0  3  0  0  0  0  0  0
    1.5330  -18.7070  -39.5620 C   0  0  1  0  0  3  0  0  0  0  0  0
    1.0060  -17.3440  -39.4070 C   0  0  0  0  0  0  0  0  0  0  0  0
    0.3350  -16.6950  -40.2490 O   0  0  0  0  0  0  0  0  0  0  0  0
    1.3730  -16.8240  -38.1080 N   0  0  0  0  0  0  0  0  0  0  0  0
    2.1260  -17.8160  -37.4300 C   0  0  0  0  0  0  0  0  0  0  0  0
    2.7120  -17.6290  -36.3370 O   0  0  0  0  0  0  0  0  0  0  0  0
    2.3180  -20.4950  -43.4290 H   0  0  0  0  0  0  0  0  0  0  0  0
    4.0770  -17.8870  -39.4450 H   0  0  0  0  0  0  0  0  0  0  0  0
    4.4800  -19.3690  -37.4320 C   0  0  0  0  0  2  0  0  0  0  0  0
    5.8500  -19.6290  -37.9040 C   0  0  0  0  0  0  0  0  0  0  0  0
    6.0850  -20.7060  -38.5170 O   0  0  0  0  0  0  0  0  0  0  0  0
    6.9460  -18.7490  -37.7220 N   0  0  0  0  0  0  0  0  0  0  0  0
    7.2000  -18.2860  -36.8370 H   0  0  0  0  0  0  0  0  0  0  0  0
    7.5460  -18.5560  -38.5670 H   0  0  0  0  0  0  0  0  0  0  0  0
    1.0420  -15.5260  -37.5740 C   0  0  0  0  0  0  0  0  0  0  0  0
    1.1690  -15.4860  -36.0710 C   0  0  0  0  0  1  0  0  0  0  0  0
    1.9740  -14.4830  -38.1970 C   0  0  0  0  0  1  0  0  0  0  0  0
   -0.3840  -15.1520  -37.9130 C   0  0  0  0  0  1  0  0  0  0  0  0
  2  1  1  0  0  0  0
  2  3  1  0  0  0  0
  4  3  2  0  0  0  0
  5  8  1  0  0  0  0
  5  4  1  0  0  0  0
  6  7  1  0  0  0  0
  6  5  2  0  0  0  0
  7  2  2  0  0  0  0
  8  9  1  0  0  0  0
  9 10  2  0  0  0  0
  9 11  1  0  0  0  0
 11  4  1  6  0  0  0
 11 12  1  0  0  0  0
 11 15  1  0  0  0  0
 12 22  1  0  0  0  0
 12 13  1  0  0  0  0
 13 14  1  0  0  0  0
 13 23  1  1  0  0  0
 14 19  1  1  0  0  0
 15 16  1  1  0  0  0
 15 14  1  0  0  0  0
 16 18  1  0  0  0  0
 17 16  2  0  0  0  0
 18 29  1  0  0  0  0
 18 19  1  0  0  0  0
 19 20  2  0  0  0  0
 21  8  1  0  0  0  0
 24 26  1  0  0  0  0
 24 23  1  0  0  0  0
 25 24  2  0  0  0  0
 26 27  1  0  0  0  0
 28 26  1  0  0  0  0
 29 30  1  0  0  0  0
 31 29  1  0  0  0  0
 32 29  1  0  0  0  0
M  END
>  <Pose>
1

>  <Score>
-5.895

$$$$
