MODEL 1
REMARK VINA RESULT:    -5.895      0.000      0.000
REMARK INTER + INTRA:          -6.853
REMARK INTER:                  -6.929
REMARK INTRA:                   0.076
REMARK UNBOUND:                 0.076
REMARK  3 active torsions:
REMARK  status: ('A' for Active; 'I' for Inactive)
REMARK    1  A    between atoms: C_13  and  C_25 
REMARK    2  A    between atoms: N_18  and  C_21 
REMARK    3  A    between atoms: C_25  and  C_26 
REMARK       I    between atoms: C_26  and  N_28 
ROOT
ATOM      1 Br   UNK d   1       2.973 -13.781 -42.692  0.00  0.00    -0.051 Br
ATOM      2  C   UNK d   1       2.796 -15.692 -42.723  0.00  0.00     0.011 A 
ATOM      3  C   UNK d   1       2.811 -16.443 -41.562  0.00  0.00     0.031 A 
ATOM      4  C   UNK d   1       2.685 -17.817 -41.574  0.00  0.00     0.019 A 
ATOM      5  C   UNK d   1       2.543 -18.409 -42.812  0.00  0.00     0.044 A 
ATOM      6  C   UNK d   1       2.529 -17.657 -43.983  0.00  0.00     0.031 A 
ATOM      7  C   UNK d   1       2.654 -16.302 -43.943  0.00  0.00     0.021 A 
ATOM      8  N   UNK d   1       2.434 -19.830 -42.634  0.00  0.00    -0.324 N 
ATOM      9  C   UNK d   1       2.510 -20.131 -41.252  0.00  0.00     0.267 A 
ATOM     10  O   UNK d   1       2.454 -21.290 -40.780  0.00  0.00    -0.270 OA
ATOM     11  C   UNK d   1       2.661 -18.856 -40.519  0.00  0.00     0.279 A 
ATOM     12  N   UNK d   1       3.856 -18.858 -39.718  0.00  0.00     0.114 N 
ATOM     13  C   UNK d   1       3.477 -19.595 -38.531  0.00  0.00     0.245 C 
ATOM     14  C   UNK d   1       2.102 -19.072 -38.212  0.00  0.00     0.128 C 
ATOM     15  C   UNK d   1       1.533 -18.707 -39.562  0.00  0.00     0.147 C 
ATOM     16  C   UNK d   1       1.006 -17.344 -39.407  0.00  0.00     0.235 C 
ATOM     17  O   UNK d   1       0.335 -16.695 -40.249  0.00  0.00    -0.272 OA
ATOM     18  N   UNK d   1       1.373 -16.824 -38.108  0.00  0.00    -0.279 N 
ATOM     19  C   UNK d   1       2.126 -17.816 -37.430  0.00  0.00     0.234 C 
ATOM     20  O   UNK d   1       2.712 -17.629 -36.337  0.00  0.00    -0.272 OA
ATOM     21  H   UNK d   1       2.318 -20.495 -43.429  0.00  0.00     0.169 HD
ATOM     22  H   UNK d   1       4.077 -17.887 -39.445  0.00  0.00     0.318 HD
ENDROOT
BRANCH  13  23
ATOM     23  C   UNK d   1       4.480 -19.369 -37.432  0.00  0.00     0.139 C 
BRANCH  23  24
ATOM     24  C   UNK d   1       5.850 -19.629 -37.904  0.00  0.00     0.217 C 
ATOM     25  O   UNK d   1       6.085 -20.706 -38.517  0.00  0.00    -0.274 OA
ATOM     26  N   UNK d   1       6.946 -18.749 -37.722  0.00  0.00    -0.370 N 
ATOM     27  H   UNK d   1       7.200 -18.286 -36.837  0.00  0.00     0.159 HD
ATOM     28  H   UNK d   1       7.546 -18.556 -38.567  0.00  0.00     0.159 HD
ENDBRANCH  23  24
ENDBRANCH  13  23
BRANCH  18  29
ATOM     29  C   UNK d   1       1.042 -15.526 -37.574  0.00  0.00     0.032 C 
ATOM     30  C   UNK d   1       1.169 -15.486 -36.071  0.00  0.00     0.038 C 
ATOM     31  C   UNK d   1       1.974 -14.483 -38.197  0.00  0.00     0.038 C 
ATOM     32  C   UNK d   1      -0.384 -15.152 -37.913  0.00  0.00     0.038 C 
ENDBRANCH  18  29
TORSDOF 3
ENDMDL
