/Users/jonathanwahrer/Desktop/Msc/3_Semester/Drug_Design_Praktikum/waehrer_HTS_screening/HTS_experiment/out/docking_results/vina_output/6y4q/0566_docked.pdbqt
 OpenBabel03232217443D

 30 33  0  0  1  0  0  0  0  0999 V2000
    1.9290  -13.4430  -36.4190 Br  0  0  0  0  0  0  0  0  0  0  0  0
    0.9940  -15.0790  -36.7220 C   0  0  0  0  0  0  0  0  0  0  0  0
    1.6080  -16.1320  -37.3520 C   0  0  0  0  0  3  0  0  0  0  0  0
    0.9280  -17.3420  -37.5800 C   0  0  0  0  0  0  0  0  0  0  0  0
   -0.3690  -17.5110  -37.1830 C   0  0  0  0  0  0  0  0  0  0  0  0
   -0.9960  -16.4350  -36.5380 C   0  0  0  0  0  3  0  0  0  0  0  0
   -0.3130  -15.2600  -36.3250 C   0  0  0  0  0  3  0  0  0  0  0  0
   -0.8380  -18.8090  -37.5200 N   0  0  0  0  0  0  0  0  0  0  0  0
    0.2220  -19.4860  -38.1640 C   0  0  0  0  0  0  0  0  0  0  0  0
    0.1030  -20.6840  -38.5870 O   0  0  0  0  0  0  0  0  0  0  0  0
    1.3690  -18.5970  -38.2280 C   0  0  2  0  0  0  0  0  0  0  0  0
    2.5610  -19.1400  -37.6060 N   0  0  0  0  0  0  0  0  0  0  0  0
    3.2520  -19.8720  -38.6520 C   0  0  1  0  0  3  0  0  0  0  0  0
    3.0960  -18.9540  -39.8300 C   0  0  2  0  0  3  0  0  0  0  0  0
    1.7380  -18.3570  -39.6770 C   0  0  1  0  0  3  0  0  0  0  0  0
    0.8730  -19.0850  -40.6190 C   0  0  0  0  0  0  0  0  0  0  0  0
   -0.4000  -19.1340  -40.6580 O   0  0  0  0  0  0  0  0  0  0  0  0
    1.6780  -19.7880  -41.5570 N   0  0  0  0  0  0  0  0  0  0  0  0
    3.0160  -19.6840  -41.1130 C   0  0  0  0  0  0  0  0  0  0  0  0
    4.0400  -20.1410  -41.7050 O   0  0  0  0  0  0  0  0  0  0  0  0
   -1.8100  -19.1490  -37.3050 H   0  0  0  0  0  0  0  0  0  0  0  0
    2.3500  -19.7220  -36.7750 H   0  0  0  0  0  0  0  0  0  0  0  0
    4.6770  -20.0820  -38.2470 C   0  0  1  0  0  3  0  0  0  0  0  0
    5.1020  -21.4970  -38.5540 C   0  0  0  0  0  1  0  0  0  0  0  0
    5.4730  -19.2340  -39.0270 O   0  0  0  0  0  0  0  0  0  0  0  0
    4.9480  -18.8410  -39.7700 H   0  0  0  0  0  0  0  0  0  0  0  0
    1.2220  -20.4810  -42.7460 C   0  0  0  0  0  2  0  0  0  0  0  0
    0.9220  -21.9220  -42.4870 C   0  0  0  0  0  2  0  0  0  0  0  0
    2.0750  -22.7300  -43.0950 C   0  0  0  0  0  2  0  0  0  0  0  0
    2.8400  -23.4480  -42.0170 C   0  0  0  0  0  1  0  0  0  0  0  0
  2  1  1  0  0  0  0
  2  7  1  0  0  0  0
  3  2  2  0  0  0  0
  4  3  1  0  0  0  0
  4  5  2  0  0  0  0
  5  6  1  0  0  0  0
  6  7  2  0  0  0  0
  8 21  1  0  0  0  0
  8  5  1  0  0  0  0
  9  8  1  0  0  0  0
 10  9  2  0  0  0  0
 11  9  1  1  0  0  0
 11 12  1  0  0  0  0
 11  4  1  0  0  0  0
 12 22  1  0  0  0  0
 13 23  1  1  0  0  0
 13 12  1  0  0  0  0
 14 19  1  6  0  0  0
 14 15  1  0  0  0  0
 14 13  1  0  0  0  0
 15 16  1  6  0  0  0
 15 11  1  0  0  0  0
 17 16  2  0  0  0  0
 18 19  1  0  0  0  0
 18 16  1  0  0  0  0
 20 19  2  0  0  0  0
 23 24  1  6  0  0  0
 25 23  1  0  0  0  0
 26 25  1  0  0  0  0
 27 28  1  0  0  0  0
 27 18  1  0  0  0  0
 29 28  1  0  0  0  0
 29 30  1  0  0  0  0
M  END
>  <Pose>
1

>  <Score>
-5.510

$$$$
