MODEL 1
REMARK VINA RESULT:    -5.510      0.000      0.000
REMARK INTER + INTRA:          -7.795
REMARK INTER:                  -6.959
REMARK INTRA:                  -0.836
REMARK UNBOUND:                -0.836
REMARK  5 active torsions:
REMARK  status: ('A' for Active; 'I' for Inactive)
REMARK    1  A    between atoms: C_13  and  C_25 
REMARK    2  A    between atoms: N_18  and  C_21 
REMARK    3  A    between atoms: C_21  and  C_22 
REMARK    4  A    between atoms: C_22  and  C_23 
REMARK    5  A    between atoms: C_25  and  O_26 
ROOT
ATOM      1 Br   UNK d   1       1.929 -13.443 -36.419  0.00  0.00    -0.051 Br
ATOM      2  C   UNK d   1       0.994 -15.079 -36.722  0.00  0.00     0.011 A 
ATOM      3  C   UNK d   1       1.608 -16.132 -37.352  0.00  0.00     0.031 A 
ATOM      4  C   UNK d   1       0.928 -17.342 -37.580  0.00  0.00     0.019 A 
ATOM      5  C   UNK d   1      -0.369 -17.511 -37.183  0.00  0.00     0.044 A 
ATOM      6  C   UNK d   1      -0.996 -16.435 -36.538  0.00  0.00     0.031 A 
ATOM      7  C   UNK d   1      -0.313 -15.260 -36.325  0.00  0.00     0.021 A 
ATOM      8  N   UNK d   1      -0.838 -18.809 -37.520  0.00  0.00    -0.324 N 
ATOM      9  C   UNK d   1       0.222 -19.486 -38.164  0.00  0.00     0.267 A 
ATOM     10  O   UNK d   1       0.103 -20.684 -38.587  0.00  0.00    -0.270 OA
ATOM     11  C   UNK d   1       1.369 -18.597 -38.228  0.00  0.00     0.279 A 
ATOM     12  N   UNK d   1       2.561 -19.140 -37.606  0.00  0.00     0.116 N 
ATOM     13  C   UNK d   1       3.252 -19.872 -38.652  0.00  0.00     0.264 C 
ATOM     14  C   UNK d   1       3.096 -18.954 -39.830  0.00  0.00     0.130 C 
ATOM     15  C   UNK d   1       1.738 -18.357 -39.677  0.00  0.00     0.147 C 
ATOM     16  C   UNK d   1       0.873 -19.085 -40.619  0.00  0.00     0.234 C 
ATOM     17  O   UNK d   1      -0.400 -19.134 -40.658  0.00  0.00    -0.272 OA
ATOM     18  N   UNK d   1       1.678 -19.788 -41.557  0.00  0.00    -0.288 N 
ATOM     19  C   UNK d   1       3.016 -19.684 -41.113  0.00  0.00     0.233 C 
ATOM     20  O   UNK d   1       4.040 -20.141 -41.705  0.00  0.00    -0.272 OA
ATOM     21  H   UNK d   1      -1.810 -19.149 -37.305  0.00  0.00     0.169 HD
ATOM     22  H   UNK d   1       2.350 -19.722 -36.775  0.00  0.00     0.318 HD
ENDROOT
BRANCH  13  23
ATOM     23  C   UNK d   1       4.677 -20.082 -38.247  0.00  0.00     0.148 C 
ATOM     24  C   UNK d   1       5.102 -21.497 -38.554  0.00  0.00     0.041 C 
BRANCH  23  25
ATOM     25  O   UNK d   1       5.473 -19.234 -39.027  0.00  0.00    -0.394 OA
ATOM     26  H   UNK d   1       4.948 -18.841 -39.770  0.00  0.00     0.210 HD
ENDBRANCH  23  25
ENDBRANCH  13  23
BRANCH  18  27
ATOM     27  C   UNK d   1       1.222 -20.481 -42.746  0.00  0.00     0.135 C 
BRANCH  27  28
ATOM     28  C   UNK d   1       0.922 -21.922 -42.487  0.00  0.00     0.020 C 
BRANCH  28  29
ATOM     29  C   UNK d   1       2.075 -22.730 -43.095  0.00  0.00    -0.003 C 
ATOM     30  C   UNK d   1       2.840 -23.448 -42.017  0.00  0.00     0.005 C 
ENDBRANCH  28  29
ENDBRANCH  27  28
ENDBRANCH  18  27
TORSDOF 5
ENDMDL
