/Users/jonathanwahrer/Desktop/Msc/3_Semester/Drug_Design_Praktikum/waehrer_HTS_screening/HTS_experiment/out/docking_results/vina_output/6y4q/0571_docked.pdbqt
 OpenBabel03232217443D

 34 38  0  0  1  0  0  0  0  0999 V2000
    3.0890  -14.5540  -41.6040 Br  0  0  0  0  0  0  0  0  0  0  0  0
    2.5690  -16.3480  -41.9990 C   0  0  0  0  0  0  0  0  0  0  0  0
    2.6980  -17.3750  -41.0900 C   0  0  0  0  0  3  0  0  0  0  0  0
    2.3200  -18.6930  -41.3880 C   0  0  0  0  0  0  0  0  0  0  0  0
    1.8050  -18.9330  -42.6380 C   0  0  0  0  0  0  0  0  0  0  0  0
    1.6710  -17.9030  -43.5590 C   0  0  0  0  0  3  0  0  0  0  0  0
    2.0460  -16.6130  -43.2560 C   0  0  0  0  0  3  0  0  0  0  0  0
    1.4840  -20.3010  -42.8000 N   0  0  0  0  0  0  0  0  0  0  0  0
    1.8110  -20.9580  -41.5960 C   0  0  0  0  0  0  0  0  0  0  0  0
    1.6400  -22.1980  -41.4290 O   0  0  0  0  0  0  0  0  0  0  0  0
    2.3550  -19.9580  -40.6530 C   0  0  1  0  0  0  0  0  0  0  0  0
    3.7280  -20.3050  -40.2740 N   0  0  0  0  0  0  0  0  0  0  0  0
    3.8820  -19.8470  -38.9110 C   0  0  1  0  0  3  0  0  0  0  0  0
    2.5450  -19.8180  -38.2810 C   0  0  2  0  0  3  0  0  0  0  0  0
    1.5510  -20.0290  -39.4090 C   0  0  1  0  0  3  0  0  0  0  0  0
    0.5130  -19.0250  -39.2080 C   0  0  0  0  0  0  0  0  0  0  0  0
   -0.4370  -18.7670  -39.9880 O   0  0  0  0  0  0  0  0  0  0  0  0
    0.7200  -18.3390  -37.9550 N   0  0  0  0  0  0  0  0  0  0  0  0
    2.1260  -18.5310  -37.6920 C   0  0  0  0  0  0  0  0  0  0  0  0
    2.8440  -17.7330  -37.0710 O   0  0  0  0  0  0  0  0  0  0  0  0
    1.0720  -20.7460  -43.6660 H   0  0  0  0  0  0  0  0  0  0  0  0
    4.4260  -19.8540  -40.9090 H   0  0  0  0  0  0  0  0  0  0  0  0
    4.8830  -20.7090  -38.1800 C   0  0  2  0  0  3  0  0  0  0  0  0
    6.3080  -20.2890  -38.4490 C   0  0  0  0  0  1  0  0  0  0  0  0
    4.6610  -22.0410  -38.4700 O   0  0  0  0  0  0  0  0  0  0  0  0
    4.6930  -22.6090  -37.6770 H   0  0  0  0  0  0  0  0  0  0  0  0
   -0.2240  -17.6560  -37.1300 C   0  0  0  0  0  2  0  0  0  0  0  0
   -0.6640  -16.3040  -37.6110 C   0  0  0  0  0  2  0  0  0  0  0  0
    0.2840  -15.2090  -37.3440 C   0  0  0  0  0  0  0  0  0  0  0  0
    1.2070  -14.8540  -38.3210 C   0  0  0  0  0  3  0  0  0  0  0  0
    2.0670  -13.8320  -38.0980 C   0  0  0  0  0  3  0  0  0  0  0  0
    2.0730  -13.1140  -36.9370 C   0  0  0  0  0  3  0  0  0  0  0  0
    1.1480  -13.4760  -35.9700 C   0  0  0  0  0  3  0  0  0  0  0  0
    0.2710  -14.5030  -36.1700 C   0  0  0  0  0  3  0  0  0  0  0  0
  2  1  1  0  0  0  0
  2  3  1  0  0  0  0
  4  3  2  0  0  0  0
  4 11  1  0  0  0  0
  5  4  1  0  0  0  0
  6  7  1  0  0  0  0
  6  5  2  0  0  0  0
  7  2  2  0  0  0  0
  8  5  1  0  0  0  0
  8  9  1  0  0  0  0
  9 10  2  0  0  0  0
 11  9  1  6  0  0  0
 11 12  1  0  0  0  0
 11 15  1  0  0  0  0
 12 13  1  0  0  0  0
 13 14  1  0  0  0  0
 13 23  1  1  0  0  0
 14 19  1  6  0  0  0
 15 16  1  6  0  0  0
 15 14  1  0  0  0  0
 16 18  1  0  0  0  0
 17 16  2  0  0  0  0
 18 19  1  0  0  0  0
 18 27  1  0  0  0  0
 19 20  2  0  0  0  0
 21  8  1  0  0  0  0
 22 12  1  0  0  0  0
 23 24  1  6  0  0  0
 25 23  1  0  0  0  0
 25 26  1  0  0  0  0
 28 29  1  0  0  0  0
 28 27  1  0  0  0  0
 29 34  1  0  0  0  0
 30 31  1  0  0  0  0
 30 29  2  0  0  0  0
 31 32  2  0  0  0  0
 32 33  1  0  0  0  0
 34 33  2  0  0  0  0
M  END
>  <Pose>
1

>  <Score>
-6.420

$$$$
