MODEL 1
REMARK VINA RESULT:    -6.420      0.000      0.000
REMARK INTER + INTRA:          -9.359
REMARK INTER:                  -8.109
REMARK INTRA:                  -1.250
REMARK UNBOUND:                -1.250
REMARK  5 active torsions:
REMARK  status: ('A' for Active; 'I' for Inactive)
REMARK    1  A    between atoms: C_13  and  C_29 
REMARK    2  A    between atoms: N_18  and  C_21 
REMARK    3  A    between atoms: C_21  and  C_22 
REMARK    4  A    between atoms: C_22  and  C_23 
REMARK    5  A    between atoms: C_29  and  O_30 
ROOT
ATOM      1 Br   UNK d   1       3.089 -14.554 -41.604  0.00  0.00    -0.051 Br
ATOM      2  C   UNK d   1       2.569 -16.348 -41.999  0.00  0.00     0.011 A 
ATOM      3  C   UNK d   1       2.698 -17.375 -41.090  0.00  0.00     0.031 A 
ATOM      4  C   UNK d   1       2.320 -18.693 -41.388  0.00  0.00     0.019 A 
ATOM      5  C   UNK d   1       1.805 -18.933 -42.638  0.00  0.00     0.044 A 
ATOM      6  C   UNK d   1       1.671 -17.903 -43.559  0.00  0.00     0.031 A 
ATOM      7  C   UNK d   1       2.046 -16.613 -43.256  0.00  0.00     0.021 A 
ATOM      8  N   UNK d   1       1.484 -20.301 -42.800  0.00  0.00    -0.324 N 
ATOM      9  C   UNK d   1       1.811 -20.958 -41.596  0.00  0.00     0.267 A 
ATOM     10  O   UNK d   1       1.640 -22.198 -41.429  0.00  0.00    -0.270 OA
ATOM     11  C   UNK d   1       2.355 -19.958 -40.653  0.00  0.00     0.279 A 
ATOM     12  N   UNK d   1       3.728 -20.305 -40.274  0.00  0.00     0.116 N 
ATOM     13  C   UNK d   1       3.882 -19.847 -38.911  0.00  0.00     0.264 C 
ATOM     14  C   UNK d   1       2.545 -19.818 -38.281  0.00  0.00     0.130 C 
ATOM     15  C   UNK d   1       1.551 -20.029 -39.409  0.00  0.00     0.147 C 
ATOM     16  C   UNK d   1       0.513 -19.025 -39.208  0.00  0.00     0.234 C 
ATOM     17  O   UNK d   1      -0.437 -18.767 -39.988  0.00  0.00    -0.272 OA
ATOM     18  N   UNK d   1       0.720 -18.339 -37.955  0.00  0.00    -0.287 N 
ATOM     19  C   UNK d   1       2.126 -18.531 -37.692  0.00  0.00     0.233 C 
ATOM     20  O   UNK d   1       2.844 -17.733 -37.071  0.00  0.00    -0.272 OA
ATOM     21  H   UNK d   1       1.072 -20.746 -43.666  0.00  0.00     0.169 HD
ATOM     22  H   UNK d   1       4.426 -19.854 -40.909  0.00  0.00     0.318 HD
ENDROOT
BRANCH  13  23
ATOM     23  C   UNK d   1       4.883 -20.709 -38.180  0.00  0.00     0.148 C 
ATOM     24  C   UNK d   1       6.308 -20.289 -38.449  0.00  0.00     0.041 C 
BRANCH  23  25
ATOM     25  O   UNK d   1       4.661 -22.041 -38.470  0.00  0.00    -0.394 OA
ATOM     26  H   UNK d   1       4.693 -22.609 -37.677  0.00  0.00     0.210 HD
ENDBRANCH  23  25
ENDBRANCH  13  23
BRANCH  18  27
ATOM     27  C   UNK d   1      -0.224 -17.656 -37.130  0.00  0.00     0.139 C 
BRANCH  27  28
ATOM     28  C   UNK d   1      -0.664 -16.304 -37.611  0.00  0.00     0.059 C 
BRANCH  28  29
ATOM     29  C   UNK d   1       0.284 -15.209 -37.344  0.00  0.00    -0.057 A 
ATOM     30  C   UNK d   1       1.207 -14.854 -38.321  0.00  0.00     0.007 A 
ATOM     31  C   UNK d   1       2.067 -13.832 -38.098  0.00  0.00     0.001 A 
ATOM     32  C   UNK d   1       2.073 -13.114 -36.937  0.00  0.00     0.000 A 
ATOM     33  C   UNK d   1       1.148 -13.476 -35.970  0.00  0.00     0.001 A 
ATOM     34  C   UNK d   1       0.271 -14.503 -36.170  0.00  0.00     0.007 A 
ENDBRANCH  28  29
ENDBRANCH  27  28
ENDBRANCH  18  27
TORSDOF 5
ENDMDL
