MODEL 1
REMARK VINA RESULT:    -5.779      0.000      0.000
REMARK INTER + INTRA:          -7.391
REMARK INTER:                  -6.792
REMARK INTRA:                  -0.599
REMARK UNBOUND:                -0.599
REMARK  3 active torsions:
REMARK  status: ('A' for Active; 'I' for Inactive)
REMARK    1  A    between atoms: N_18  and  C_21 
REMARK    2  A    between atoms: C_21  and  C_22 
REMARK    3  A    between atoms: C_22  and  C_23 
ROOT
ATOM      1 Br   UNK d   1      -2.160 -19.872 -37.473  0.00  0.00    -0.051 Br
ATOM      2  C   UNK d   1      -0.816 -20.221 -38.785  0.00  0.00     0.011 A 
ATOM      3  C   UNK d   1       0.517 -20.007 -38.542  0.00  0.00     0.031 A 
ATOM      4  C   UNK d   1       1.533 -20.252 -39.482  0.00  0.00     0.019 A 
ATOM      5  C   UNK d   1       1.141 -20.730 -40.696  0.00  0.00     0.044 A 
ATOM      6  C   UNK d   1      -0.222 -20.954 -40.964  0.00  0.00     0.031 A 
ATOM      7  C   UNK d   1      -1.193 -20.704 -40.022  0.00  0.00     0.021 A 
ATOM      8  N   UNK d   1       2.264 -20.942 -41.541  0.00  0.00    -0.324 N 
ATOM      9  C   UNK d   1       3.412 -20.576 -40.811  0.00  0.00     0.267 A 
ATOM     10  O   UNK d   1       4.622 -20.641 -41.238  0.00  0.00    -0.270 OA
ATOM     11  C   UNK d   1       2.974 -20.111 -39.482  0.00  0.00     0.279 A 
ATOM     12  N   UNK d   1       3.583 -21.085 -38.559  0.00  0.00     0.113 N 
ATOM     13  C   UNK d   1       4.749 -20.495 -37.979  0.00  0.00     0.232 C 
ATOM     14  C   UNK d   1       4.467 -19.038 -37.984  0.00  0.00     0.127 C 
ATOM     15  C   UNK d   1       3.517 -18.778 -39.121  0.00  0.00     0.147 C 
ATOM     16  C   UNK d   1       2.610 -17.787 -38.589  0.00  0.00     0.234 C 
ATOM     17  O   UNK d   1       1.814 -17.085 -39.280  0.00  0.00    -0.272 OA
ATOM     18  N   UNK d   1       2.758 -17.730 -37.177  0.00  0.00    -0.288 N 
ATOM     19  C   UNK d   1       3.688 -18.714 -36.748  0.00  0.00     0.233 C 
ATOM     20  O   UNK d   1       3.777 -19.158 -35.586  0.00  0.00    -0.272 OA
ATOM     21  C   UNK d   1       6.047 -20.853 -38.665  0.00  0.00     0.043 C 
ATOM     22  H   UNK d   1       2.261 -21.306 -42.539  0.00  0.00     0.169 HD
ATOM     23  H   UNK d   1       2.896 -21.390 -37.835  0.00  0.00     0.318 HD
ENDROOT
BRANCH  18  24
ATOM     24  C   UNK d   1       2.032 -16.780 -36.345  0.00  0.00     0.135 C 
BRANCH  24  25
ATOM     25  C   UNK d   1       0.595 -17.167 -36.172  0.00  0.00     0.020 C 
BRANCH  25  26
ATOM     26  C   UNK d   1      -0.358 -16.021 -36.379  0.00  0.00    -0.003 C 
ATOM     27  C   UNK d   1       0.484 -14.741 -36.318  0.00  0.00     0.005 C 
ENDBRANCH  25  26
ENDBRANCH  24  25
ENDBRANCH  18  24
TORSDOF 3
ENDMDL
