MODEL 1
REMARK VINA RESULT:    -5.974      0.000      0.000
REMARK INTER + INTRA:          -8.682
REMARK INTER:                  -7.721
REMARK INTRA:                  -0.961
REMARK UNBOUND:                -0.961
REMARK  5 active torsions:
REMARK  status: ('A' for Active; 'I' for Inactive)
REMARK    1  A    between atoms: C_13  and  C_25 
REMARK    2  A    between atoms: N_18  and  C_21 
REMARK    3  A    between atoms: C_21  and  C_22 
REMARK    4  A    between atoms: C_22  and  O_23 
REMARK    5  A    between atoms: C_25  and  C_26 
REMARK       I    between atoms: C_26  and  N_28 
ROOT
ATOM      1 Br   UNK d   1       3.773 -12.334 -40.816  0.00  0.00    -0.051 Br
ATOM      2  C   UNK d   1       2.919 -13.040 -39.264  0.00  0.00     0.011 A 
ATOM      3  C   UNK d   1       2.418 -14.321 -39.203  0.00  0.00     0.031 A 
ATOM      4  C   UNK d   1       1.796 -14.832 -38.065  0.00  0.00     0.019 A 
ATOM      5  C   UNK d   1       1.670 -14.034 -36.955  0.00  0.00     0.044 A 
ATOM      6  C   UNK d   1       2.164 -12.740 -36.986  0.00  0.00     0.031 A 
ATOM      7  C   UNK d   1       2.785 -12.252 -38.142  0.00  0.00     0.021 A 
ATOM      8  N   UNK d   1       1.012 -14.750 -35.906  0.00  0.00    -0.324 N 
ATOM      9  C   UNK d   1       0.712 -16.053 -36.380  0.00  0.00     0.267 A 
ATOM     10  O   UNK d   1       0.145 -16.919 -35.686  0.00  0.00    -0.270 OA
ATOM     11  C   UNK d   1       1.178 -16.153 -37.753  0.00  0.00     0.279 A 
ATOM     12  N   UNK d   1       2.184 -17.213 -37.792  0.00  0.00     0.114 N 
ATOM     13  C   UNK d   1       1.976 -17.900 -39.033  0.00  0.00     0.245 C 
ATOM     14  C   UNK d   1       0.501 -17.892 -39.202  0.00  0.00     0.128 C 
ATOM     15  C   UNK d   1       0.127 -16.494 -38.768  0.00  0.00     0.147 C 
ATOM     16  C   UNK d   1      -1.232 -16.617 -38.259  0.00  0.00     0.235 C 
ATOM     17  O   UNK d   1      -2.037 -15.677 -38.083  0.00  0.00    -0.272 OA
ATOM     18  N   UNK d   1      -1.476 -17.994 -37.998  0.00  0.00    -0.286 N 
ATOM     19  C   UNK d   1      -0.250 -18.727 -38.232  0.00  0.00     0.233 C 
ATOM     20  O   UNK d   1      -0.001 -19.810 -37.679  0.00  0.00    -0.272 OA
ATOM     21  H   UNK d   1       0.798 -14.348 -34.951  0.00  0.00     0.169 HD
ATOM     22  H   UNK d   1       2.022 -17.898 -37.016  0.00  0.00     0.318 HD
ENDROOT
BRANCH  13  23
ATOM     23  C   UNK d   1       2.622 -19.241 -39.094  0.00  0.00     0.139 C 
BRANCH  23  24
ATOM     24  C   UNK d   1       3.663 -19.342 -38.065  0.00  0.00     0.217 C 
ATOM     25  O   UNK d   1       3.338 -19.586 -36.869  0.00  0.00    -0.274 OA
ATOM     26  N   UNK d   1       5.039 -19.168 -38.397  0.00  0.00    -0.370 N 
ATOM     27  H   UNK d   1       5.776 -19.661 -37.853  0.00  0.00     0.159 HD
ATOM     28  H   UNK d   1       5.300 -18.543 -39.187  0.00  0.00     0.159 HD
ENDBRANCH  23  24
ENDBRANCH  13  23
BRANCH  18  29
ATOM     29  C   UNK d   1      -2.740 -18.526 -37.579  0.00  0.00     0.161 C 
BRANCH  29  30
ATOM     30  C   UNK d   1      -3.016 -18.442 -36.115  0.00  0.00     0.187 C 
BRANCH  30  31
ATOM     31  O   UNK d   1      -4.345 -18.185 -35.821  0.00  0.00    -0.394 OA
ATOM     32  C   UNK d   1      -4.850 -17.141 -36.592  0.00  0.00     0.201 C 
ENDBRANCH  30  31
ENDBRANCH  29  30
ENDBRANCH  18  29
TORSDOF 5
ENDMDL
