MODEL 1
REMARK VINA RESULT:    -6.001      0.000      0.000
REMARK INTER + INTRA:          -6.001
REMARK INTER:                  -6.001
REMARK INTRA:                   0.000
REMARK UNBOUND:                 0.000
REMARK  0 active torsions:
REMARK  status: ('A' for Active; 'I' for Inactive)
ROOT
ATOM      1 Br   UNK d   1       1.431 -13.241 -36.359  0.00  0.00    -0.051 Br
ATOM      2  C   UNK d   1       1.676 -14.385 -37.862  0.00  0.00     0.012 A 
ATOM      3  C   UNK d   1       1.476 -15.725 -37.696  0.00  0.00     0.038 A 
ATOM      4  C   UNK d   1       1.648 -16.580 -38.772  0.00  0.00     0.062 A 
ATOM      5  C   UNK d   1       2.021 -16.079 -40.013  0.00  0.00     0.078 A 
ATOM      6  C   UNK d   1       2.227 -14.727 -40.197  0.00  0.00     0.034 A 
ATOM      7  C   UNK d   1       2.045 -13.916 -39.100  0.00  0.00     0.021 A 
ATOM      8  N   UNK d   1       2.224 -16.853 -41.178  0.00  0.00    -0.195 N 
ATOM      9  N   UNK d   1       2.139 -16.304 -42.395  0.00  0.00    -0.039 NA
ATOM     10  N   UNK d   1       2.375 -17.269 -43.242  0.00  0.00    -0.023 NA
ATOM     11  N   UNK d   1       2.605 -18.402 -42.599  0.00  0.00    -0.111 NA
ATOM     12  C   UNK d   1       2.509 -18.141 -41.263  0.00  0.00     0.182 A 
ATOM     13  C   UNK d   1       2.716 -19.216 -40.232  0.00  0.00     0.102 C 
ATOM     14  N   UNK d   1       1.724 -19.106 -39.165  0.00  0.00    -0.340 N 
ATOM     15  C   UNK d   1       1.384 -17.970 -38.379  0.00  0.00     0.255 C 
ATOM     16  O   UNK d   1       0.817 -18.164 -37.268  0.00  0.00    -0.268 OA
ATOM     17  C   UNK d   1       4.049 -18.931 -39.595  0.00  0.00     0.076 C 
ATOM     18  C   UNK d   1       4.571 -20.168 -38.940  0.00  0.00     0.056 C 
ATOM     19  O   UNK d   1       4.769 -21.098 -39.926  0.00  0.00    -0.381 OA
ATOM     20  C   UNK d   1       3.637 -21.546 -40.552  0.00  0.00     0.171 C 
ATOM     21  C   UNK d   1       2.613 -20.548 -40.880  0.00  0.00     0.066 C 
ATOM     22  C   UNK d   1       5.945 -19.874 -38.325  0.00  0.00     0.045 C 
ATOM     23  C   UNK d   1       3.703 -20.662 -37.813  0.00  0.00     0.045 C 
ATOM     24  H   UNK d   1       1.171 -19.985 -38.928  0.00  0.00     0.164 HD
ENDROOT
TORSDOF 0
ENDMDL
