/Users/jonathanwahrer/Desktop/Msc/3_Semester/Drug_Design_Praktikum/waehrer_HTS_screening/HTS_experiment/out/docking_results/vina_output/6y4q/0591_docked.pdbqt
 OpenBabel03232217443D

 23 26  0  0  0  0  0  0  0  0999 V2000
    5.7960  -21.5460  -38.9380 Br  0  0  0  0  0  0  0  0  0  0  0  0
    4.2090  -20.4710  -38.8280 C   0  0  0  0  0  0  0  0  0  0  0  0
    3.9950  -19.6530  -37.7390 C   0  0  0  0  0  3  0  0  0  0  0  0
    2.8530  -18.8830  -37.6650 C   0  0  0  0  0  0  0  0  0  0  0  0
    1.8830  -18.8850  -38.6490 C   0  0  0  0  0  0  0  0  0  0  0  0
    2.1160  -19.7170  -39.7410 C   0  0  0  0  0  3  0  0  0  0  0  0
    3.2550  -20.4900  -39.8230 C   0  0  0  0  0  3  0  0  0  0  0  0
    0.6730  -18.1670  -38.7280 N   0  0  0  0  0  0  0  0  0  0  0  0
   -0.2880  -18.4500  -39.5920 N   0  0  0  0  0  0  0  0  0  0  0  0
   -1.2720  -17.5870  -39.3960 N   0  0  0  0  0  0  0  0  0  0  0  0
   -0.9320  -16.7760  -38.4230 N   0  0  0  0  0  0  0  0  0  0  0  0
    0.3010  -17.1140  -37.9710 C   0  0  0  0  0  0  0  0  0  0  0  0
    0.9280  -16.3650  -36.8800 C   0  0  0  0  0  0  0  0  0  0  0  0
    1.8530  -17.0750  -36.0670 N   0  0  0  0  0  0  0  0  0  0  0  0
    2.7840  -18.0760  -36.4450 C   0  0  0  0  0  0  0  0  0  0  0  0
    3.7200  -18.3580  -35.6500 O   0  0  0  0  0  0  0  0  0  0  0  0
    1.6720  -15.1260  -37.4030 C   0  0  0  0  0  2  0  0  0  0  0  0
    1.5710  -14.0310  -36.3720 C   0  0  0  0  0  2  0  0  0  0  0  0
    0.2480  -13.4580  -36.4760 N   0  0  0  0  0  0  0  0  0  0  0  0
   -0.7240  -14.5190  -36.4970 C   0  0  0  0  0  2  0  0  0  0  0  0
   -0.1830  -15.8300  -35.9830 C   0  0  0  0  0  2  0  0  0  0  0  0
    0.2070  -12.6610  -37.7010 C   0  0  0  0  0  1  0  0  0  0  0  0
    1.8430  -16.8220  -35.0570 H   0  0  0  0  0  0  0  0  0  0  0  0
  1  2  1  0  0  0  0
  2  3  1  0  0  0  0
  3  4  2  0  0  0  0
  4 15  1  0  0  0  0
  5  4  1  0  0  0  0
  6  5  2  0  0  0  0
  7  6  1  0  0  0  0
  7  2  2  0  0  0  0
  8  5  1  0  0  0  0
  8 12  1  0  0  0  0
  9 10  2  0  0  0  0
  9  8  1  0  0  0  0
 10 11  1  0  0  0  0
 11 12  2  0  0  0  0
 12 13  1  0  0  0  0
 13 14  1  0  0  0  0
 13 21  1  0  0  0  0
 14 23  1  0  0  0  0
 15 14  1  0  0  0  0
 15 16  2  0  0  0  0
 17 13  1  0  0  0  0
 17 18  1  0  0  0  0
 19 18  1  0  0  0  0
 20 19  1  0  0  0  0
 20 21  1  0  0  0  0
 22 19  1  0  0  0  0
M  END
>  <Pose>
1

>  <Score>
-6.483

$$$$
