MODEL 1
REMARK VINA RESULT:    -6.483      0.000      0.000
REMARK INTER + INTRA:          -6.483
REMARK INTER:                  -6.483
REMARK INTRA:                   0.000
REMARK UNBOUND:                 0.000
REMARK  0 active torsions:
REMARK  status: ('A' for Active; 'I' for Inactive)
ROOT
ATOM      1 Br   UNK d   1       5.796 -21.546 -38.938  0.00  0.00    -0.051 Br
ATOM      2  C   UNK d   1       4.209 -20.471 -38.828  0.00  0.00     0.012 A 
ATOM      3  C   UNK d   1       3.995 -19.653 -37.739  0.00  0.00     0.038 A 
ATOM      4  C   UNK d   1       2.853 -18.883 -37.665  0.00  0.00     0.061 A 
ATOM      5  C   UNK d   1       1.883 -18.885 -38.649  0.00  0.00     0.072 A 
ATOM      6  C   UNK d   1       2.116 -19.717 -39.741  0.00  0.00     0.034 A 
ATOM      7  C   UNK d   1       3.255 -20.490 -39.823  0.00  0.00     0.021 A 
ATOM      8  N   UNK d   1       0.673 -18.167 -38.728  0.00  0.00    -0.218 N 
ATOM      9  N   UNK d   1      -0.288 -18.450 -39.592  0.00  0.00     0.032 NA
ATOM     10  N   UNK d   1      -1.272 -17.587 -39.396  0.00  0.00    -0.052 NA
ATOM     11  N   UNK d   1      -0.932 -16.776 -38.423  0.00  0.00    -0.116 NA
ATOM     12  C   UNK d   1       0.301 -17.114 -37.971  0.00  0.00     0.176 A 
ATOM     13  C   UNK d   1       0.928 -16.365 -36.880  0.00  0.00     0.100 C 
ATOM     14  N   UNK d   1       1.853 -17.075 -36.067  0.00  0.00    -0.340 N 
ATOM     15  C   UNK d   1       2.784 -18.076 -36.445  0.00  0.00     0.255 C 
ATOM     16  O   UNK d   1       3.720 -18.358 -35.650  0.00  0.00    -0.268 OA
ATOM     17  C   UNK d   1       1.672 -15.126 -37.403  0.00  0.00     0.069 C 
ATOM     18  C   UNK d   1       1.571 -14.031 -36.372  0.00  0.00     0.275 C 
ATOM     19  N   UNK d   1       0.248 -13.458 -36.476  0.00  0.00     0.084 N 
ATOM     20  C   UNK d   1      -0.724 -14.519 -36.497  0.00  0.00     0.275 C 
ATOM     21  C   UNK d   1      -0.183 -15.830 -35.983  0.00  0.00     0.069 C 
ATOM     22  C   UNK d   1       0.207 -12.661 -37.701  0.00  0.00     0.309 C 
ATOM     23  H   UNK d   1       1.843 -16.822 -35.057  0.00  0.00     0.164 HD
ENDROOT
TORSDOF 0
ENDMDL
