/Users/jonathanwahrer/Desktop/Msc/3_Semester/Drug_Design_Praktikum/waehrer_HTS_screening/HTS_experiment/out/docking_results/vina_output/6y4q/0592_docked.pdbqt
 OpenBabel03232217443D

 27 30  0  0  1  0  0  0  0  0999 V2000
    4.6010  -21.7590  -40.5450 Br  0  0  0  0  0  0  0  0  0  0  0  0
    3.9820  -20.5010  -39.2640 C   0  0  0  0  0  0  0  0  0  0  0  0
    2.7290  -19.9730  -39.4060 C   0  0  0  0  0  3  0  0  0  0  0  0
    2.2750  -19.0460  -38.4630 C   0  0  0  0  0  0  0  0  0  0  0  0
    3.0910  -18.7020  -37.4370 C   0  0  0  0  0  0  0  0  0  0  0  0
    4.3830  -19.2480  -37.2940 C   0  0  0  0  0  3  0  0  0  0  0  0
    4.8260  -20.1570  -38.2230 C   0  0  0  0  0  3  0  0  0  0  0  0
    2.6880  -17.7900  -36.4780 O   0  0  0  0  0  0  0  0  0  0  0  0
    1.4310  -17.2340  -36.5830 C   0  0  0  0  0  0  0  0  0  0  0  0
    0.5870  -17.5190  -37.5460 C   0  0  0  0  0  0  0  0  0  0  0  0
    0.9220  -18.4660  -38.6000 C   0  0  1  0  0  0  0  0  0  0  0  0
    0.7050  -17.9150  -39.9600 C   0  0  0  0  0  0  0  0  0  0  0  0
   -0.2690  -18.6500  -40.5770 C   0  0  0  0  0  0  0  0  0  0  0  0
   -0.4660  -18.1390  -41.8280 N   0  0  0  0  0  0  0  0  0  0  0  0
    0.3700  -17.1240  -41.9540 N   0  0  0  0  0  0  0  0  0  0  0  0
    1.1010  -16.9510  -40.8450 C   0  0  0  0  0  0  0  0  0  0  0  0
    2.1350  -15.8860  -40.6750 C   0  0  0  0  0  1  0  0  0  0  0  0
   -0.7430  -19.6770  -39.7330 N   0  0  0  0  0  0  0  0  0  0  0  0
   -0.0360  -19.5900  -38.5230 C   0  0  0  0  0  0  0  0  0  0  0  0
   -0.1670  -20.3300  -37.5120 O   0  0  0  0  0  0  0  0  0  0  0  0
   -0.7130  -16.8940  -37.5880 C   0  0  0  0  0  0  0  0  0  0  0  0
   -1.7650  -16.4100  -37.6170 N   0  0  0  0  0  0  0  0  0  0  0  0
    0.4150  -16.5540  -42.8400 H   0  0  0  0  0  0  0  0  0  0  0  0
   -1.5080  -20.3850  -39.9940 H   0  0  0  0  0  0  0  0  0  0  0  0
    1.0280  -16.2880  -35.5800 N   0  0  0  0  0  0  0  0  0  0  0  0
    1.0390  -15.2690  -35.7990 H   0  0  0  0  0  0  0  0  0  0  0  0
    0.7200  -16.5830  -34.6260 H   0  0  0  0  0  0  0  0  0  0  0  0
  1  2  1  0  0  0  0
  2  7  1  0  0  0  0
  3  2  2  0  0  0  0
  3  4  1  0  0  0  0
  4  5  2  0  0  0  0
  5  6  1  0  0  0  0
  5  8  1  0  0  0  0
  7  6  2  0  0  0  0
  9  8  1  0  0  0  0
  9 25  1  0  0  0  0
 10  9  2  0  0  0  0
 11 12  1  6  0  0  0
 11 19  1  0  0  0  0
 11  4  1  0  0  0  0
 11 10  1  0  0  0  0
 13 12  1  0  0  0  0
 13 18  1  0  0  0  0
 14 13  2  0  0  0  0
 15 14  1  0  0  0  0
 15 16  1  0  0  0  0
 16 17  1  0  0  0  0
 16 12  2  0  0  0  0
 18 19  1  0  0  0  0
 19 20  2  0  0  0  0
 21 10  1  0  0  0  0
 22 21  3  0  0  0  0
 23 15  1  0  0  0  0
 24 18  1  0  0  0  0
 25 27  1  0  0  0  0
 26 25  1  0  0  0  0
M  END
>  <Pose>
1

>  <Score>
-5.720

$$$$
