MODEL 1
REMARK VINA RESULT:    -5.720      0.000      0.000
REMARK INTER + INTRA:          -5.887
REMARK INTER:                  -5.887
REMARK INTRA:                   0.000
REMARK UNBOUND:                 0.000
REMARK  1 active torsions:
REMARK  status: ('A' for Active; 'I' for Inactive)
REMARK    1  A    between atoms: C_9  and  N_23 
ROOT
ATOM      1 Br   UNK d   1       4.601 -21.759 -40.545  0.00  0.00    -0.051 Br
ATOM      2  C   UNK d   1       3.982 -20.501 -39.264  0.00  0.00     0.011 A 
ATOM      3  C   UNK d   1       2.729 -19.973 -39.406  0.00  0.00     0.031 A 
ATOM      4  C   UNK d   1       2.275 -19.046 -38.463  0.00  0.00     0.005 A 
ATOM      5  C   UNK d   1       3.091 -18.702 -37.437  0.00  0.00     0.086 A 
ATOM      6  C   UNK d   1       4.383 -19.248 -37.294  0.00  0.00     0.039 A 
ATOM      7  C   UNK d   1       4.826 -20.157 -38.223  0.00  0.00     0.022 A 
ATOM      8  O   UNK d   1       2.688 -17.790 -36.478  0.00  0.00    -0.292 OA
ATOM      9  C   UNK d   1       1.431 -17.234 -36.583  0.00  0.00     0.160 A 
ATOM     10  C   UNK d   1       0.587 -17.519 -37.546  0.00  0.00     0.100 A 
ATOM     11  C   UNK d   1       0.922 -18.466 -38.600  0.00  0.00     0.145 A 
ATOM     12  C   UNK d   1       0.705 -17.915 -39.960  0.00  0.00     0.041 A 
ATOM     13  C   UNK d   1      -0.269 -18.650 -40.577  0.00  0.00     0.160 A 
ATOM     14  N   UNK d   1      -0.466 -18.139 -41.828  0.00  0.00    -0.156 NA
ATOM     15  N   UNK d   1       0.370 -17.124 -41.954  0.00  0.00    -0.280 N 
ATOM     16  C   UNK d   1       1.101 -16.951 -40.845  0.00  0.00     0.036 A 
ATOM     17  C   UNK d   1       2.135 -15.886 -40.675  0.00  0.00     0.070 C 
ATOM     18  N   UNK d   1      -0.743 -19.677 -39.733  0.00  0.00    -0.308 N 
ATOM     19  C   UNK d   1      -0.036 -19.590 -38.523  0.00  0.00     0.247 A 
ATOM     20  O   UNK d   1      -0.167 -20.330 -37.512  0.00  0.00    -0.271 OA
ATOM     21  C   UNK d   1      -0.713 -16.894 -37.588  0.00  0.00     0.101 C 
ATOM     22  N   UNK d   1      -1.765 -16.410 -37.617  0.00  0.00    -0.191 NA
ATOM     23  H   UNK d   1       0.415 -16.554 -42.840  0.00  0.00     0.189 HD
ATOM     24  H   UNK d   1      -1.508 -20.385 -39.994  0.00  0.00     0.170 HD
ENDROOT
BRANCH   9  25
ATOM     25  N   UNK d   1       1.028 -16.288 -35.580  0.00  0.00    -0.379 N 
ATOM     26  H   UNK d   1       1.039 -15.269 -35.799  0.00  0.00     0.158 HD
ATOM     27  H   UNK d   1       0.720 -16.583 -34.626  0.00  0.00     0.158 HD
ENDBRANCH   9  25
TORSDOF 1
ENDMDL
