/Users/jonathanwahrer/Desktop/Msc/3_Semester/Drug_Design_Praktikum/waehrer_HTS_screening/HTS_experiment/out/docking_results/vina_output/6y4q/0596_docked.pdbqt
 OpenBabel03232217453D

 29 32  0  0  0  0  0  0  0  0999 V2000
    1.4550  -18.2120  -39.2780 C   0  0  0  0  0  0  0  0  0  0  0  0
    0.6170  -18.4540  -40.3540 C   0  0  0  0  0  3  0  0  0  0  0  0
    0.8400  -19.5330  -41.1830 C   0  0  0  0  0  0  0  0  0  0  0  0
    0.0300  -19.6860  -42.1510 O   0  0  0  0  0  0  0  0  0  0  0  0
    1.8330  -20.3400  -40.9700 O   0  0  0  0  0  0  0  0  0  0  0  0
    2.6420  -20.1750  -39.9950 C   0  0  0  0  0  0  0  0  0  0  0  0
    2.4890  -19.0990  -39.1000 C   0  0  0  0  0  0  0  0  0  0  0  0
    3.3610  -18.9550  -38.0610 C   0  0  0  0  0  3  0  0  0  0  0  0
    4.3880  -19.8970  -37.9340 C   0  0  0  0  0  3  0  0  0  0  0  0
    4.5140  -20.9390  -38.8310 C   0  0  0  0  0  0  0  0  0  0  0  0
    3.6500  -21.1150  -39.8890 C   0  0  0  0  0  0  0  0  0  0  0  0
    5.5880  -21.8290  -38.6160 O   0  0  0  0  0  1  0  0  0  0  0  0
    1.2690  -17.0400  -38.4250 C   0  0  0  0  0  0  0  0  0  0  0  0
    0.4280  -17.0850  -37.3340 C   0  0  0  0  0  0  0  0  0  0  0  0
    0.2420  -16.0440  -36.6020 O   0  0  0  0  0  0  0  0  0  0  0  0
   -0.1290  -18.2060  -37.1160 O   0  0  0  0  0  0  0  0  0  0  0  0
    0.8340  -14.8710  -36.8360 C   0  0  0  0  0  0  0  0  0  0  0  0
    1.6890  -14.7600  -37.9140 C   0  0  0  0  0  0  0  0  0  0  0  0
    0.5780  -13.7940  -36.0000 C   0  0  0  0  0  3  0  0  0  0  0  0
    2.2880  -13.5330  -38.1330 C   0  0  0  0  0  3  0  0  0  0  0  0
    1.9050  -15.8530  -38.7140 C   0  0  0  0  0  3  0  0  0  0  0  0
    2.0720  -12.4240  -37.3340 C   0  0  0  0  0  0  0  0  0  0  0  0
    2.9350  -10.7730  -37.6770 Br  0  0  0  0  0  0  0  0  0  0  0  0
    1.1930  -12.5910  -36.2540 C   0  0  0  0  0  3  0  0  0  0  0  0
    3.9050  -22.1650  -40.8380 C   0  0  0  0  0  2  0  0  0  0  0  0
    5.0370  -22.2200  -41.6700 N   0  0  0  0  0  4  0  0  0  0  0  0
    5.1020  -23.2820  -42.6350 C   0  0  0  0  0  1  0  0  0  0  0  0
    5.3730  -20.8970  -42.2540 C   0  0  0  0  0  1  0  0  0  0  0  0
    5.8710  -22.4130  -41.0420 H   0  0  0  0  0  0  0  0  0  0  0  0
  1  7  1  0  0  0  0
  1 13  1  0  0  0  0
  2  1  2  0  0  0  0
  3  5  1  0  0  0  0
  3  2  1  0  0  0  0
  4  3  2  0  0  0  0
  5  6  1  0  0  0  0
  6 11  2  0  0  0  0
  6  7  1  0  0  0  0
  7  8  2  0  0  0  0
  8  9  1  0  0  0  0
 10 12  1  0  0  0  0
 10  9  2  0  0  0  0
 11 10  1  0  0  0  0
 13 14  1  0  0  0  0
 14 16  2  0  0  0  0
 14 15  1  0  0  0  0
 17 15  1  0  0  0  0
 17 19  1  0  0  0  0
 18 17  2  0  0  0  0
 20 18  1  0  0  0  0
 20 22  2  0  0  0  0
 21 13  2  0  0  0  0
 21 18  1  0  0  0  0
 22 24  1  0  0  0  0
 23 22  1  0  0  0  0
 24 19  2  0  0  0  0
 25 11  1  0  0  0  0
 26 29  1  0  0  0  0
 26 25  1  0  0  0  0
 27 26  1  0  0  0  0
 28 26  1  0  0  0  0
M  END
>  <Pose>
1

>  <Score>
-6.702

$$$$
