MODEL 1
REMARK VINA RESULT:    -6.702      0.000      0.000
REMARK INTER + INTRA:          -8.680
REMARK INTER:                  -7.878
REMARK INTRA:                  -0.802
REMARK UNBOUND:                -0.802
REMARK  3 active torsions:
REMARK  status: ('A' for Active; 'I' for Inactive)
REMARK    1  A    between atoms: C_11  and  C_13 
REMARK    2  A    between atoms: C_23  and  C_24 
REMARK    3  A    between atoms: C_24  and  N_25 
ROOT
ATOM      1  C   UNK d   1       1.455 -18.212 -39.278  0.00  0.00    -0.001 A 
ATOM      2  C   UNK d   1       0.617 -18.454 -40.354  0.00  0.00     0.096 A 
ATOM      3  C   UNK d   1       0.840 -19.533 -41.183  0.00  0.00     0.289 A 
ATOM      4  O   UNK d   1       0.030 -19.686 -42.151  0.00  0.00    -0.260 OA
ATOM      5  O   UNK d   1       1.833 -20.340 -40.970  0.00  0.00    -0.274 OA
ATOM      6  C   UNK d   1       2.642 -20.175 -39.995  0.00  0.00     0.101 A 
ATOM      7  C   UNK d   1       2.489 -19.099 -39.100  0.00  0.00     0.010 A 
ATOM      8  C   UNK d   1       3.361 -18.955 -38.061  0.00  0.00     0.018 A 
ATOM      9  C   UNK d   1       4.388 -19.897 -37.934  0.00  0.00     0.041 A 
ATOM     10  C   UNK d   1       4.514 -20.939 -38.831  0.00  0.00     0.118 A 
ATOM     11  C   UNK d   1       3.650 -21.115 -39.889  0.00  0.00     0.039 A 
ATOM     12  O   UNK d   1       5.588 -21.829 -38.616  0.00  0.00    -0.191 OA
ENDROOT
BRANCH   1  13
ATOM     13  C   UNK d   1       1.269 -17.040 -38.425  0.00  0.00     0.052 A 
ATOM     14  C   UNK d   1       0.428 -17.085 -37.334  0.00  0.00     0.299 A 
ATOM     15  O   UNK d   1       0.242 -16.044 -36.602  0.00  0.00    -0.274 OA
ATOM     16  O   UNK d   1      -0.129 -18.206 -37.116  0.00  0.00    -0.259 OA
ATOM     17  C   UNK d   1       0.834 -14.871 -36.836  0.00  0.00     0.089 A 
ATOM     18  C   UNK d   1       1.689 -14.760 -37.914  0.00  0.00     0.000 A 
ATOM     19  C   UNK d   1       0.578 -13.794 -36.000  0.00  0.00     0.039 A 
ATOM     20  C   UNK d   1       2.288 -13.533 -38.133  0.00  0.00     0.033 A 
ATOM     21  C   UNK d   1       1.905 -15.853 -38.714  0.00  0.00     0.032 A 
ATOM     22  C   UNK d   1       2.072 -12.424 -37.334  0.00  0.00     0.011 A 
ATOM     23 Br   UNK d   1       2.935 -10.773 -37.677  0.00  0.00    -0.051 Br
ATOM     24  C   UNK d   1       1.193 -12.591 -36.254  0.00  0.00     0.022 A 
ENDBRANCH   1  13
BRANCH  11  25
ATOM     25  C   UNK d   1       3.905 -22.165 -40.838  0.00  0.00     0.278 C 
BRANCH  25  26
ATOM     26  N   UNK d   1       5.037 -22.220 -41.670  0.00  0.00    -0.075 N 
ATOM     27  C   UNK d   1       5.102 -23.282 -42.635  0.00  0.00     0.269 C 
ATOM     28  C   UNK d   1       5.373 -20.897 -42.254  0.00  0.00     0.269 C 
ATOM     29  H   UNK d   1       5.871 -22.413 -41.042  0.00  0.00     0.279 HD
ENDBRANCH  25  26
ENDBRANCH  11  25
TORSDOF 3
ENDMDL
