/Users/jonathanwahrer/Desktop/Msc/3_Semester/Drug_Design_Praktikum/waehrer_HTS_screening/HTS_experiment/out/docking_results/vina_output/6y4q/0610_docked.pdbqt
 OpenBabel03232217453D

 32 35  0  0  0  0  0  0  0  0999 V2000
    5.1660  -13.0860  -43.0160 Br  0  0  0  0  0  0  0  0  0  0  0  0
    3.7770  -13.8130  -41.9280 C   0  0  0  0  0  0  0  0  0  0  0  0
    3.3900  -13.1780  -40.7520 C   0  0  0  0  0  3  0  0  0  0  0  0
    2.3790  -13.7060  -39.9600 C   0  0  0  0  0  0  0  0  0  0  0  0
    1.7480  -14.8720  -40.3350 C   0  0  0  0  0  0  0  0  0  0  0  0
    0.7570  -15.3870  -39.5650 N   0  0  0  0  0  0  0  0  0  0  0  0
    0.3620  -14.7900  -38.4260 C   0  0  0  0  0  0  0  0  0  0  0  0
    0.9860  -13.6590  -38.0770 N   0  0  0  0  0  0  0  0  0  0  0  0
    1.9760  -13.0920  -38.7920 C   0  0  0  0  0  0  0  0  0  0  0  0
    2.1530  -15.4880  -41.5130 C   0  0  0  0  0  3  0  0  0  0  0  0
    3.1530  -14.9810  -42.3140 C   0  0  0  0  0  3  0  0  0  0  0  0
   -0.6900  -15.3630  -37.6400 N   0  0  0  0  0  4  0  0  0  0  0  0
   -0.3180  -15.3720  -36.2510 C   0  0  0  0  0  2  0  0  0  0  0  0
    0.6790  -16.4190  -35.8870 C   0  0  0  0  0  2  0  0  0  0  0  0
    0.8430  -17.4140  -36.9240 N   0  0  0  0  0  0  0  0  0  0  0  0
   -0.3500  -17.8070  -37.6420 C   0  0  0  0  0  2  0  0  0  0  0  0
    2.1360  -17.9350  -37.1690 C   0  0  0  0  0  0  0  0  0  0  0  0
   -1.1370  -16.6300  -38.1290 C   0  0  0  0  0  2  0  0  0  0  0  0
    3.1220  -17.5450  -36.5060 O   0  0  0  0  0  0  0  0  0  0  0  0
   -1.4870  -14.6620  -37.7170 H   0  0  0  0  0  0  0  0  0  0  0  0
    2.2480  -18.9590  -38.2480 C   0  0  0  0  0  2  0  0  0  0  0  0
    2.7750  -20.2590  -37.7200 C   0  0  0  0  0  2  0  0  0  0  0  0
    4.1430  -20.5580  -38.1670 C   0  0  0  0  0  0  0  0  0  0  0  0
    4.5180  -21.7290  -38.3870 O   0  0  0  0  0  0  0  0  0  0  0  0
    5.0360  -19.5220  -38.3500 O   0  0  0  0  0  1  0  0  0  0  0  0
    2.5890  -11.8600  -38.3240 C   0  0  0  0  0  0  0  0  0  0  0  0
    2.0730  -10.6290  -38.7090 C   0  0  0  0  0  0  0  0  0  0  0  0
    2.6190   -9.4400  -38.2750 C   0  0  0  0  0  3  0  0  0  0  0  0
    0.6770  -10.6180  -39.7880 Cl  0  0  0  0  0  0  0  0  0  0  0  0
    3.7110   -9.4240  -37.4320 C   0  0  0  0  0  3  0  0  0  0  0  0
    4.2250  -10.6570  -37.0480 C   0  0  0  0  0  3  0  0  0  0  0  0
    3.6740  -11.8400  -37.4860 C   0  0  0  0  0  3  0  0  0  0  0  0
  1  2  1  0  0  0  0
  2  3  1  0  0  0  0
  3  4  2  0  0  0  0
  4  9  1  0  0  0  0
  5  4  1  0  0  0  0
  5  6  1  0  0  0  0
  6  7  2  0  0  0  0
  7  8  1  0  0  0  0
  7 12  1  0  0  0  0
  9 26  1  0  0  0  0
  9  8  2  0  0  0  0
 10  5  2  0  0  0  0
 11  2  2  0  0  0  0
 11 10  1  0  0  0  0
 12 13  1  0  0  0  0
 13 14  1  0  0  0  0
 15 14  1  0  0  0  0
 16 15  1  0  0  0  0
 17 15  1  0  0  0  0
 17 19  2  0  0  0  0
 18 16  1  0  0  0  0
 18 12  1  0  0  0  0
 20 12  1  0  0  0  0
 21 22  1  0  0  0  0
 21 17  1  0  0  0  0
 23 22  1  0  0  0  0
 24 23  2  0  0  0  0
 25 23  1  0  0  0  0
 26 32  1  0  0  0  0
 27 26  2  0  0  0  0
 27 28  1  0  0  0  0
 28 30  2  0  0  0  0
 29 27  1  0  0  0  0
 30 31  1  0  0  0  0
 32 31  2  0  0  0  0
M  END
>  <Pose>
1

>  <Score>
-6.466

$$$$
