MODEL 1
REMARK VINA RESULT:    -6.466      0.000      0.000
REMARK INTER + INTRA:          -9.646
REMARK INTER:                  -8.356
REMARK INTRA:                  -1.290
REMARK UNBOUND:                -1.290
REMARK  5 active torsions:
REMARK  status: ('A' for Active; 'I' for Inactive)
REMARK    1  A    between atoms: C_7  and  N_17 
REMARK    2  A    between atoms: C_9  and  C_10 
REMARK       I    between atoms: N_20  and  C_23 
REMARK    3  A    between atoms: C_23  and  C_25 
REMARK    4  A    between atoms: C_25  and  C_26 
REMARK    5  A    between atoms: C_26  and  C_27 
ROOT
ATOM      1 Br   UNK d   1       5.166 -13.086 -43.016  0.00  0.00    -0.051 Br
ATOM      2  C   UNK d   1       3.777 -13.813 -41.928  0.00  0.00     0.011 A 
ATOM      3  C   UNK d   1       3.390 -13.178 -40.752  0.00  0.00     0.035 A 
ATOM      4  C   UNK d   1       2.379 -13.706 -39.960  0.00  0.00     0.024 A 
ATOM      5  C   UNK d   1       1.748 -14.872 -40.335  0.00  0.00     0.073 A 
ATOM      6  N   UNK d   1       0.757 -15.387 -39.565  0.00  0.00    -0.207 NA
ATOM      7  C   UNK d   1       0.362 -14.790 -38.426  0.00  0.00     0.327 A 
ATOM      8  N   UNK d   1       0.986 -13.659 -38.077  0.00  0.00    -0.206 NA
ATOM      9  C   UNK d   1       1.976 -13.092 -38.792  0.00  0.00     0.085 A 
ATOM     10  C   UNK d   1       2.153 -15.488 -41.513  0.00  0.00     0.034 A 
ATOM     11  C   UNK d   1       3.153 -14.981 -42.314  0.00  0.00     0.021 A 
ENDROOT
BRANCH   7  12
ATOM     12  N   UNK d   1      -0.690 -15.363 -37.640  0.00  0.00    -0.004 N 
ATOM     13  C   UNK d   1      -0.318 -15.372 -36.251  0.00  0.00     0.265 C 
ATOM     14  C   UNK d   1       0.679 -16.419 -35.887  0.00  0.00     0.154 C 
ATOM     15  N   UNK d   1       0.843 -17.414 -36.924  0.00  0.00    -0.349 N 
ATOM     16  C   UNK d   1      -0.350 -17.807 -37.642  0.00  0.00     0.154 C 
ATOM     17  C   UNK d   1       2.136 -17.935 -37.169  0.00  0.00     0.220 C 
ATOM     18  C   UNK d   1      -1.137 -16.630 -38.129  0.00  0.00     0.265 C 
ATOM     19  O   UNK d   1       3.122 -17.545 -36.506  0.00  0.00    -0.273 OA
ATOM     20  H   UNK d   1      -1.487 -14.662 -37.717  0.00  0.00     0.290 HD
BRANCH  17  21
ATOM     21  C   UNK d   1       2.248 -18.959 -38.248  0.00  0.00     0.113 C 
BRANCH  21  22
ATOM     22  C   UNK d   1       2.775 -20.259 -37.720  0.00  0.00     0.122 C 
BRANCH  22  23
ATOM     23  C   UNK d   1       4.143 -20.558 -38.167  0.00  0.00     0.172 C 
ATOM     24  O   UNK d   1       4.518 -21.729 -38.387  0.00  0.00    -0.648 OA
ATOM     25  O   UNK d   1       5.036 -19.522 -38.350  0.00  0.00    -0.648 OA
ENDBRANCH  22  23
ENDBRANCH  21  22
ENDBRANCH  17  21
ENDBRANCH   7  12
BRANCH   9  26
ATOM     26  C   UNK d   1       2.589 -11.860 -38.324  0.00  0.00     0.015 A 
ATOM     27  C   UNK d   1       2.073 -10.629 -38.709  0.00  0.00     0.046 A 
ATOM     28  C   UNK d   1       2.619  -9.440 -38.275  0.00  0.00     0.025 A 
ATOM     29 Cl   UNK d   1       0.677 -10.618 -39.788  0.00  0.00    -0.083 Cl
ATOM     30  C   UNK d   1       3.711  -9.424 -37.432  0.00  0.00     0.002 A 
ATOM     31  C   UNK d   1       4.225 -10.657 -37.048  0.00  0.00     0.001 A 
ATOM     32  C   UNK d   1       3.674 -11.840 -37.486  0.00  0.00     0.015 A 
ENDBRANCH   9  26
TORSDOF 5
ENDMDL
