MODEL 1
REMARK VINA RESULT:    -7.191      0.000      0.000
REMARK INTER + INTRA:         -10.497
REMARK INTER:                  -9.714
REMARK INTRA:                  -0.783
REMARK UNBOUND:                -0.783
REMARK  6 active torsions:
REMARK  status: ('A' for Active; 'I' for Inactive)
REMARK    1  A    between atoms: C_7  and  N_17 
REMARK    2  A    between atoms: C_9  and  C_10 
REMARK       I    between atoms: N_20  and  C_23 
REMARK    3  A    between atoms: C_23  and  C_25 
REMARK    4  A    between atoms: C_25  and  C_26 
REMARK    5  A    between atoms: C_26  and  C_27 
REMARK    6  A    between atoms: C_27  and  C_28 
ROOT
ATOM      1 Br   UNK d   1      -1.336  -9.838 -35.831  0.00  0.00    -0.051 Br
ATOM      2  C   UNK d   1      -0.884 -11.643 -36.275  0.00  0.00     0.011 A 
ATOM      3  C   UNK d   1       0.329 -11.975 -36.851  0.00  0.00     0.035 A 
ATOM      4  C   UNK d   1       0.683 -13.265 -37.182  0.00  0.00     0.024 A 
ATOM      5  C   UNK d   1      -0.198 -14.301 -36.938  0.00  0.00     0.073 A 
ATOM      6  N   UNK d   1       0.128 -15.577 -37.264  0.00  0.00    -0.207 NA
ATOM      7  C   UNK d   1       1.303 -15.898 -37.830  0.00  0.00     0.327 A 
ATOM      8  N   UNK d   1       2.163 -14.891 -38.066  0.00  0.00    -0.206 NA
ATOM      9  C   UNK d   1       1.885 -13.601 -37.761  0.00  0.00     0.085 A 
ATOM     10  C   UNK d   1      -1.409 -13.980 -36.364  0.00  0.00     0.034 A 
ATOM     11  C   UNK d   1      -1.761 -12.678 -36.032  0.00  0.00     0.021 A 
ENDROOT
BRANCH   7  12
ATOM     12  N   UNK d   1       1.612 -17.248 -38.157  0.00  0.00    -0.004 N 
ATOM     13  C   UNK d   1       2.044 -17.362 -39.532  0.00  0.00     0.265 C 
ATOM     14  C   UNK d   1       2.771 -18.660 -39.695  0.00  0.00     0.154 C 
ATOM     15  N   UNK d   1       2.478 -19.501 -38.553  0.00  0.00    -0.349 N 
ATOM     16  C   UNK d   1       1.096 -19.568 -38.113  0.00  0.00     0.154 C 
ATOM     17  C   UNK d   1       3.528 -20.201 -37.935  0.00  0.00     0.219 C 
ATOM     18  C   UNK d   1       0.512 -18.158 -37.967  0.00  0.00     0.265 C 
ATOM     19  O   UNK d   1       3.250 -20.920 -36.943  0.00  0.00    -0.273 OA
ATOM     20  H   UNK d   1       2.384 -17.548 -37.526  0.00  0.00     0.290 HD
BRANCH  17  21
ATOM     21  C   UNK d   1       4.913 -20.117 -38.403  0.00  0.00     0.103 C 
BRANCH  21  22
ATOM     22  C   UNK d   1       5.375 -21.465 -38.875  0.00  0.00     0.020 C 
BRANCH  22  23
ATOM     23  C   UNK d   1       5.808 -21.457 -40.324  0.00  0.00     0.113 C 
BRANCH  23  24
ATOM     24  C   UNK d   1       4.880 -22.187 -41.210  0.00  0.00     0.172 C 
ATOM     25  O   UNK d   1       3.655 -22.109 -40.953  0.00  0.00    -0.648 OA
ATOM     26  O   UNK d   1       5.371 -22.922 -42.279  0.00  0.00    -0.648 OA
ENDBRANCH  23  24
ENDBRANCH  22  23
ENDBRANCH  21  22
ENDBRANCH  17  21
ENDBRANCH   7  12
BRANCH   9  27
ATOM     27  C   UNK d   1       2.852 -12.550 -38.041  0.00  0.00     0.015 A 
ATOM     28  C   UNK d   1       3.257 -12.254 -39.333  0.00  0.00     0.046 A 
ATOM     29  C   UNK d   1       4.190 -11.271 -39.611  0.00  0.00     0.025 A 
ATOM     30 Cl   UNK d   1       2.570 -13.157 -40.674  0.00  0.00    -0.083 Cl
ATOM     31  C   UNK d   1       4.725 -10.564 -38.528  0.00  0.00     0.002 A 
ATOM     32  C   UNK d   1       4.343 -10.833 -37.230  0.00  0.00     0.001 A 
ATOM     33  C   UNK d   1       3.425 -11.809 -37.005  0.00  0.00     0.015 A 
ENDBRANCH   9  27
TORSDOF 6
ENDMDL
