MODEL 1
REMARK VINA RESULT:    -6.316      0.000      0.000
REMARK INTER + INTRA:          -7.812
REMARK INTER:                  -7.423
REMARK INTRA:                  -0.389
REMARK UNBOUND:                -0.389
REMARK  3 active torsions:
REMARK  status: ('A' for Active; 'I' for Inactive)
REMARK    1  A    between atoms: C_7  and  C_9 
REMARK       I    between atoms: C_9  and  N_11 
REMARK       I    between atoms: N_14  and  C_17 
REMARK    2  A    between atoms: C_17  and  C_19 
REMARK    3  A    between atoms: C_19  and  N_20 
ROOT
ATOM      1  C   UNK d   1       4.120 -22.839 -41.825  0.00  0.00     0.270 C 
ATOM      2  O   UNK d   1       3.286 -23.814 -41.955  0.00  0.00    -0.266 OA
ATOM      3  N   UNK d   1       5.150 -22.795 -42.766  0.00  0.00    -0.344 N 
ATOM      4  C   UNK d   1       6.209 -21.824 -42.828  0.00  0.00     0.146 C 
ATOM      5  C   UNK d   1       7.200 -22.121 -43.962  0.00  0.00     0.145 C 
ATOM      6  N   UNK d   1       7.569 -23.527 -43.896  0.00  0.00    -0.348 N 
ATOM      7  C   UNK d   1       6.539 -24.540 -43.662  0.00  0.00     0.145 C 
ATOM      8  C   UNK d   1       5.197 -23.824 -43.839  0.00  0.00     0.146 C 
ATOM      9  C   UNK d   1       8.911 -23.938 -44.052  0.00  0.00     0.248 C 
ATOM     10  O   UNK d   1       9.767 -23.042 -44.245  0.00  0.00    -0.271 OA
ENDROOT
BRANCH   1  11
ATOM     11  C   UNK d   1       3.919 -21.899 -40.740  0.00  0.00     0.102 A 
ATOM     12  N   UNK d   1       4.438 -21.825 -39.512  0.00  0.00    -0.351 N 
ATOM     13  C   UNK d   1       3.934 -20.753 -38.825  0.00  0.00     0.043 A 
ATOM     14  H   UNK d   1       5.131 -22.452 -39.078  0.00  0.00     0.166 HD
ATOM     15  C   UNK d   1       3.049 -20.099 -39.638  0.00  0.00    -0.006 A 
ATOM     16  C   UNK d   1       4.159 -20.270 -37.550  0.00  0.00     0.031 A 
ATOM     17  C   UNK d   1       2.390 -18.960 -39.169  0.00  0.00     0.032 A 
ATOM     18  C   UNK d   1       3.034 -20.794 -40.813  0.00  0.00     0.049 A 
ATOM     19  C   UNK d   1       2.606 -18.474 -37.906  0.00  0.00     0.011 A 
ATOM     20 Br   UNK d   1       1.706 -16.911 -37.253  0.00  0.00    -0.051 Br
ATOM     21  C   UNK d   1       3.499 -19.138 -37.094  0.00  0.00     0.021 A 
ENDBRANCH   1  11
BRANCH   9  22
ATOM     22  C   UNK d   1       9.237 -25.354 -43.981  0.00  0.00     0.374 C 
BRANCH  22  23
ATOM     23  N   UNK d   1      10.649 -25.661 -44.039  0.00  0.00     0.101 N 
ATOM     24  C   UNK d   1      10.815 -27.073 -44.389  0.00  0.00     0.299 C 
ATOM     25  C   UNK d   1      11.024 -27.906 -43.172  0.00  0.00     0.198 C 
ATOM     26  O   UNK d   1      10.278 -27.415 -42.104  0.00  0.00    -0.388 OA
ATOM     27  C   UNK d   1      10.784 -26.195 -41.651  0.00  0.00     0.198 C 
ATOM     28  C   UNK d   1      11.341 -25.377 -42.794  0.00  0.00     0.299 C 
ENDBRANCH  22  23
ENDBRANCH   9  22
TORSDOF 3
ENDMDL
