/Users/jonathanwahrer/Desktop/Msc/3_Semester/Drug_Design_Praktikum/waehrer_HTS_screening/HTS_experiment/out/docking_results/vina_output/6y4q/0616_docked.pdbqt
 OpenBabel03232217453D

 28 31  0  0  0  0  0  0  0  0999 V2000
    4.1200  -22.8390  -41.8250 C   0  0  0  0  0  0  0  0  0  0  0  0
    3.2860  -23.8140  -41.9550 O   0  0  0  0  0  0  0  0  0  0  0  0
    5.1500  -22.7950  -42.7660 N   0  0  0  0  0  0  0  0  0  0  0  0
    6.2090  -21.8240  -42.8280 C   0  0  0  0  0  2  0  0  0  0  0  0
    7.2000  -22.1210  -43.9620 C   0  0  0  0  0  2  0  0  0  0  0  0
    7.5690  -23.5270  -43.8960 N   0  0  0  0  0  0  0  0  0  0  0  0
    6.5390  -24.5400  -43.6620 C   0  0  0  0  0  2  0  0  0  0  0  0
    5.1970  -23.8240  -43.8390 C   0  0  0  0  0  2  0  0  0  0  0  0
    8.9110  -23.9380  -44.0520 C   0  0  0  0  0  0  0  0  0  0  0  0
    9.7670  -23.0420  -44.2450 O   0  0  0  0  0  0  0  0  0  0  0  0
    3.9190  -21.8990  -40.7400 C   0  0  0  0  0  0  0  0  0  0  0  0
    4.4380  -21.8250  -39.5120 N   0  0  0  0  0  0  0  0  0  0  0  0
    3.9340  -20.7530  -38.8250 C   0  0  0  0  0  0  0  0  0  0  0  0
    5.1310  -22.4520  -39.0780 H   0  0  0  0  0  0  0  0  0  0  0  0
    3.0490  -20.0990  -39.6380 C   0  0  0  0  0  0  0  0  0  0  0  0
    4.1590  -20.2700  -37.5500 C   0  0  0  0  0  3  0  0  0  0  0  0
    2.3900  -18.9600  -39.1690 C   0  0  0  0  0  3  0  0  0  0  0  0
    3.0340  -20.7940  -40.8130 C   0  0  0  0  0  3  0  0  0  0  0  0
    2.6060  -18.4740  -37.9060 C   0  0  0  0  0  0  0  0  0  0  0  0
    1.7060  -16.9110  -37.2530 Br  0  0  0  0  0  0  0  0  0  0  0  0
    3.4990  -19.1380  -37.0940 C   0  0  0  0  0  3  0  0  0  0  0  0
    9.2370  -25.3540  -43.9810 C   0  0  0  0  0  2  0  0  0  0  0  0
   10.6490  -25.6610  -44.0390 N   0  0  0  0  0  0  0  0  0  0  0  0
   10.8150  -27.0730  -44.3890 C   0  0  0  0  0  2  0  0  0  0  0  0
   11.0240  -27.9060  -43.1720 C   0  0  0  0  0  2  0  0  0  0  0  0
   10.2780  -27.4150  -42.1040 O   0  0  0  0  0  0  0  0  0  0  0  0
   10.7840  -26.1950  -41.6510 C   0  0  0  0  0  2  0  0  0  0  0  0
   11.3410  -25.3770  -42.7940 C   0  0  0  0  0  2  0  0  0  0  0  0
  1 11  1  0  0  0  0
  2  1  2  0  0  0  0
  3  1  1  0  0  0  0
  4  3  1  0  0  0  0
  5  6  1  0  0  0  0
  5  4  1  0  0  0  0
  6  7  1  0  0  0  0
  8  7  1  0  0  0  0
  8  3  1  0  0  0  0
  9 22  1  0  0  0  0
  9  6  1  0  0  0  0
 10  9  2  0  0  0  0
 11 12  1  0  0  0  0
 12 14  1  0  0  0  0
 12 13  1  0  0  0  0
 13 16  1  0  0  0  0
 15 17  1  0  0  0  0
 15 13  2  0  0  0  0
 16 21  2  0  0  0  0
 17 19  2  0  0  0  0
 18 11  2  0  0  0  0
 18 15  1  0  0  0  0
 19 20  1  0  0  0  0
 19 21  1  0  0  0  0
 23 22  1  0  0  0  0
 23 28  1  0  0  0  0
 24 23  1  0  0  0  0
 24 25  1  0  0  0  0
 25 26  1  0  0  0  0
 26 27  1  0  0  0  0
 28 27  1  0  0  0  0
M  END
>  <Pose>
1

>  <Score>
-6.316

$$$$
