/Users/jonathanwahrer/Desktop/Msc/3_Semester/Drug_Design_Praktikum/waehrer_HTS_screening/HTS_experiment/out/docking_results/vina_output/6y4q/0617_docked.pdbqt
 OpenBabel03232217453D

 25 28  0  0  0  0  0  0  0  0999 V2000
    5.4200  -21.4900  -41.0650 Br  0  0  0  0  0  0  0  0  0  0  0  0
    4.7620  -20.4380  -39.6240 C   0  0  0  0  0  0  0  0  0  0  0  0
    3.5230  -19.8330  -39.6830 C   0  0  0  0  0  3  0  0  0  0  0  0
    3.0310  -19.0670  -38.6460 C   0  0  0  0  0  0  0  0  0  0  0  0
    3.8190  -18.9120  -37.5210 C   0  0  0  0  0  0  0  0  0  0  0  0
    3.1070  -18.1330  -36.6880 N   0  0  0  0  0  0  0  0  0  0  0  0
    1.9130  -17.7950  -37.2370 C   0  0  0  0  0  0  0  0  0  0  0  0
    1.8470  -18.3810  -38.4830 C   0  0  0  0  0  0  0  0  0  0  0  0
    0.7400  -18.1840  -39.2270 N   0  0  0  0  0  0  0  0  0  0  0  0
   -0.2920  -17.4380  -38.7880 C   0  0  0  0  0  3  0  0  0  0  0  0
   -0.2550  -16.8580  -37.5810 N   0  0  0  0  0  0  0  0  0  0  0  0
    0.8370  -17.0410  -36.8250 C   0  0  0  0  0  0  0  0  0  0  0  0
    0.8890  -16.5040  -35.6910 O   0  0  0  0  0  0  0  0  0  0  0  0
    5.0580  -19.5230  -37.4760 C   0  0  0  0  0  3  0  0  0  0  0  0
    5.5590  -20.2900  -38.5080 C   0  0  0  0  0  3  0  0  0  0  0  0
    3.4060  -17.8180  -35.7460 H   0  0  0  0  0  0  0  0  0  0  0  0
   -1.3800  -16.0390  -37.0960 C   0  0  0  0  0  2  0  0  0  0  0  0
   -1.5820  -14.8650  -37.9740 C   0  0  0  0  0  2  0  0  0  0  0  0
   -0.9590  -13.6550  -37.5780 N   0  0  0  0  0  0  0  0  0  0  0  0
    0.1630  -13.2610  -38.3570 C   0  0  0  0  0  2  0  0  0  0  0  0
    1.4800  -13.6660  -37.7610 C   0  0  0  0  0  2  0  0  0  0  0  0
    1.4900  -13.5700  -36.3170 N   0  0  0  0  0  0  0  0  0  0  0  0
    0.3980  -12.7400  -35.8370 C   0  0  0  0  0  2  0  0  0  0  0  0
    1.4750  -14.5090  -35.8560 H   0  0  0  0  0  0  0  0  0  0  0  0
   -0.8760  -13.4760  -36.1720 C   0  0  0  0  0  2  0  0  0  0  0  0
  1  2  1  0  0  0  0
  2 15  1  0  0  0  0
  3  2  2  0  0  0  0
  3  4  1  0  0  0  0
  4  8  1  0  0  0  0
  4  5  2  0  0  0  0
  5 14  1  0  0  0  0
  5  6  1  0  0  0  0
  6 16  1  0  0  0  0
  7 12  1  0  0  0  0
  7  6  1  0  0  0  0
  8  7  2  0  0  0  0
  9 10  2  0  0  0  0
  9  8  1  0  0  0  0
 10 11  1  0  0  0  0
 11 17  1  0  0  0  0
 11 12  1  0  0  0  0
 12 13  2  0  0  0  0
 15 14  2  0  0  0  0
 18 19  1  0  0  0  0
 18 17  1  0  0  0  0
 19 25  1  0  0  0  0
 20 21  1  0  0  0  0
 20 19  1  0  0  0  0
 21 22  1  0  0  0  0
 22 24  1  0  0  0  0
 22 23  1  0  0  0  0
 25 23  1  0  0  0  0
M  END
>  <Pose>
1

>  <Score>
-5.325

$$$$
