MODEL 1
REMARK VINA RESULT:    -5.798      0.000      0.000
REMARK INTER + INTRA:          -6.486
REMARK INTER:                  -6.137
REMARK INTRA:                  -0.349
REMARK UNBOUND:                -0.349
REMARK  1 active torsions:
REMARK  status: ('A' for Active; 'I' for Inactive)
REMARK    1  A    between atoms: C_10  and  C_15 
REMARK       I    between atoms: C_15  and  N_17 
ROOT
ATOM      1 Br   UNK d   1       5.823 -17.863 -43.527  0.00  0.00    -0.051 Br
ATOM      2  C   UNK d   1       5.100 -18.627 -41.939  0.00  0.00     0.012 A 
ATOM      3  C   UNK d   1       5.769 -19.672 -41.337  0.00  0.00     0.028 A 
ATOM      4  C   UNK d   1       5.263 -20.256 -40.169  0.00  0.00    -0.027 A 
ATOM      5  C   UNK d   1       4.106 -19.764 -39.656  0.00  0.00     0.055 A 
ATOM      6  C   UNK d   1       3.403 -18.723 -40.221  0.00  0.00     0.044 A 
ATOM      7  C   UNK d   1       3.917 -18.168 -41.364  0.00  0.00     0.037 A 
ATOM      8  C   UNK d   1       2.249 -18.327 -39.598  0.00  0.00     0.201 A 
ATOM      9  O   UNK d   1       1.605 -17.390 -40.096  0.00  0.00    -0.286 OA
ATOM     10  C   UNK d   1       1.778 -18.929 -38.440  0.00  0.00     0.098 A 
ATOM     11  C   UNK d   1       2.529 -19.965 -37.927  0.00  0.00     0.112 A 
ATOM     12  N   UNK d   1       3.686 -20.369 -38.544  0.00  0.00    -0.354 N 
ATOM     13  C   UNK d   1       4.645 -21.403 -38.228  0.00  0.00     0.133 A 
ATOM     14  C   UNK d   1       5.707 -21.353 -39.293  0.00  0.00     0.061 A 
ENDROOT
BRANCH  10  15
ATOM     15  C   UNK d   1       0.547 -18.495 -37.788  0.00  0.00     0.259 C 
ATOM     16  O   UNK d   1      -0.527 -19.079 -38.061  0.00  0.00    -0.267 OA
ATOM     17  N   UNK d   1       0.558 -17.414 -36.846  0.00  0.00    -0.344 N 
ATOM     18  C   UNK d   1      -0.648 -16.963 -36.186  0.00  0.00     0.152 C 
ATOM     19  C   UNK d   1       1.788 -16.723 -36.516  0.00  0.00     0.152 C 
ATOM     20  C   UNK d   1      -0.739 -15.455 -36.452  0.00  0.00     0.187 C 
ATOM     21  O   UNK d   1       0.438 -14.855 -36.072  0.00  0.00    -0.388 OA
ATOM     22  C   UNK d   1       1.535 -15.242 -36.812  0.00  0.00     0.187 C 
ENDBRANCH  10  15
TORSDOF 1
ENDMDL
