MODEL 1
REMARK VINA RESULT:    -5.313      0.000      0.000
REMARK INTER + INTRA:         -10.024
REMARK INTER:                  -7.643
REMARK INTRA:                  -2.381
REMARK UNBOUND:                -2.381
REMARK  8 active torsions:
REMARK  status: ('A' for Active; 'I' for Inactive)
REMARK    1  A    between atoms: N_5  and  C_23 
REMARK    2  A    between atoms: C_6  and  C_17 
REMARK    3  A    between atoms: C_7  and  C_12 
REMARK    4  A    between atoms: C_10  and  O_11 
REMARK    5  A    between atoms: C_12  and  O_14 
REMARK    6  A    between atoms: O_14  and  C_15 
REMARK    7  A    between atoms: C_17  and  N_18 
REMARK    8  A    between atoms: C_23  and  C_24 
ROOT
ATOM      1 Br   UNK d   1       5.828 -19.285 -37.861  0.00  0.00    -0.048 Br
ATOM      2  C   UNK d   1       3.951 -19.324 -38.021  0.00  0.00     0.046 A 
ATOM      3  C   UNK d   1       3.157 -18.364 -37.416  0.00  0.00     0.052 A 
ATOM      4  C   UNK d   1       1.795 -18.380 -37.503  0.00  0.00     0.048 A 
ATOM      5  N   UNK d   1       0.866 -17.496 -37.028  0.00  0.00    -0.343 N 
ATOM      6  C   UNK d   1      -0.338 -17.922 -37.448  0.00  0.00     0.055 A 
ATOM      7  C   UNK d   1      -0.175 -19.125 -38.186  0.00  0.00     0.076 A 
ATOM      8  C   UNK d   1       1.177 -19.359 -38.197  0.00  0.00     0.012 A 
ATOM      9  C   UNK d   1       1.956 -20.339 -38.818  0.00  0.00     0.052 A 
ATOM     10  C   UNK d   1       3.341 -20.334 -38.741  0.00  0.00     0.084 A 
ENDROOT
BRANCH   5  11
ATOM     11  C   UNK d   1       1.214 -16.511 -35.986  0.00  0.00     0.167 C 
BRANCH  11  12
ATOM     12  C   UNK d   1       1.351 -15.165 -36.732  0.00  0.00    -0.040 A 
ATOM     13  C   UNK d   1       0.928 -14.067 -36.041  0.00  0.00     0.009 A 
ATOM     14  C   UNK d   1       1.033 -12.806 -36.651  0.00  0.00     0.001 A 
ATOM     15  C   UNK d   1       1.547 -12.632 -37.901  0.00  0.00     0.000 A 
ATOM     16  C   UNK d   1       1.970 -13.783 -38.566  0.00  0.00     0.001 A 
ATOM     17  C   UNK d   1       1.866 -15.047 -37.971  0.00  0.00     0.009 A 
ENDBRANCH  11  12
ENDBRANCH   5  11
BRANCH   6  18
ATOM     18  C   UNK d   1      -1.652 -17.295 -37.301  0.00  0.00     0.292 C 
BRANCH  18  19
ATOM     19  N   UNK d   1      -1.984 -16.180 -38.132  0.00  0.00    -0.066 N 
ATOM     20  C   UNK d   1      -1.471 -15.778 -39.320  0.00  0.00     0.235 C 
ATOM     21  C   UNK d   1      -1.526 -14.232 -39.359  0.00  0.00     0.029 C 
ATOM     22  C   UNK d   1      -2.688 -13.984 -38.400  0.00  0.00     0.029 C 
ATOM     23  C   UNK d   1      -2.314 -14.994 -37.323  0.00  0.00     0.235 C 
ATOM     24  H   UNK d   1      -3.101 -16.476 -38.372  0.00  0.00     0.280 HD
ENDBRANCH  18  19
ENDBRANCH   6  18
BRANCH   7  25
ATOM     25  C   UNK d   1      -1.218 -20.040 -38.669  0.00  0.00     0.296 C 
ATOM     26  O   UNK d   1      -1.617 -20.932 -37.873  0.00  0.00    -0.259 OA
BRANCH  25  27
ATOM     27  O   UNK d   1      -1.800 -19.999 -39.892  0.00  0.00    -0.318 OA
BRANCH  27  28
ATOM     28  C   UNK d   1      -1.366 -20.418 -41.135  0.00  0.00     0.174 C 
ATOM     29  C   UNK d   1      -0.602 -21.736 -41.130  0.00  0.00     0.034 C 
ENDBRANCH  27  28
ENDBRANCH  25  27
ENDBRANCH   7  25
BRANCH  10  30
ATOM     30  O   UNK d   1       4.153 -21.300 -39.362  0.00  0.00    -0.359 OA
ATOM     31  H   UNK d   1       3.721 -21.970 -40.015  0.00  0.00     0.217 HD
ENDBRANCH  10  30
TORSDOF 8
ENDMDL
