MODEL 1
REMARK VINA RESULT:    -6.182      0.000      0.000
REMARK INTER + INTRA:          -9.217
REMARK INTER:                  -8.531
REMARK INTRA:                  -0.686
REMARK UNBOUND:                -0.686
REMARK  7 active torsions:
REMARK  status: ('A' for Active; 'I' for Inactive)
REMARK    1  A    between atoms: C_6  and  O_28 
REMARK    2  A    between atoms: C_10  and  N_11 
REMARK       I    between atoms: N_11  and  C_12 
REMARK    3  A    between atoms: C_12  and  C_14 
REMARK    4  A    between atoms: C_14  and  N_15 
REMARK    5  A    between atoms: N_18  and  C_21 
REMARK    6  A    between atoms: C_21  and  C_22 
REMARK       I    between atoms: C_22  and  N_24 
REMARK    7  A    between atoms: N_24  and  C_25 
ROOT
ATOM      1  N   UNK d   1       1.827 -16.578 -35.973  0.00  0.00    -0.324 N 
ATOM      2  C   UNK d   1       2.391 -17.477 -36.887  0.00  0.00     0.239 C 
ATOM      3  O   UNK d   1       2.210 -17.321 -38.122  0.00  0.00    -0.271 OA
ATOM      4  H   UNK d   1       2.051 -16.782 -34.951  0.00  0.00     0.169 HD
ENDROOT
BRANCH   2   5
ATOM      5  C   UNK d   1       3.209 -18.632 -36.501  0.00  0.00     0.220 C 
BRANCH   5   6
ATOM      6  N   UNK d   1       3.950 -19.288 -37.503  0.00  0.00    -0.401 N 
ATOM      7  C   UNK d   1       5.351 -19.074 -37.553  0.00  0.00     0.136 C 
ATOM      8  C   UNK d   1       5.943 -19.442 -38.913  0.00  0.00     0.136 C 
ATOM      9  N   UNK d   1       5.567 -20.759 -39.207  0.00  0.00    -0.401 N 
ATOM     10  C   UNK d   1       4.658 -21.413 -38.350  0.00  0.00     0.136 C 
ATOM     11  C   UNK d   1       3.507 -20.597 -37.843  0.00  0.00     0.136 C 
BRANCH   9  12
ATOM     12  C   UNK d   1       5.715 -21.174 -40.528  0.00  0.00     0.219 C 
BRANCH  12  13
ATOM     13  C   UNK d   1       4.537 -21.656 -41.250  0.00  0.00     0.235 C 
ATOM     14  O   UNK d   1       3.730 -20.733 -41.658  0.00  0.00    -0.272 OA
ATOM     15  N   UNK d   1       4.189 -22.969 -41.546  0.00  0.00    -0.355 N 
ATOM     16  H   UNK d   1       4.803 -23.756 -41.254  0.00  0.00     0.162 HD
BRANCH  15  17
ATOM     17  C   UNK d   1       2.979 -23.331 -42.279  0.00  0.00     0.084 A 
ATOM     18  C   UNK d   1       3.050 -24.152 -43.498  0.00  0.00     0.027 A 
ATOM     19  C   UNK d   1       2.527 -24.774 -42.217  0.00  0.00     0.027 A 
ENDBRANCH  15  17
ENDBRANCH  12  13
ENDBRANCH   9  12
ENDBRANCH   5   6
ENDBRANCH   2   5
BRANCH   1  20
ATOM     20  C   UNK d   1       1.029 -15.448 -36.257  0.00  0.00     0.054 A 
ATOM     21  C   UNK d   1      -0.348 -15.595 -36.320  0.00  0.00     0.040 A 
ATOM     22 Br   UNK d   1      -1.065 -17.351 -36.038  0.00  0.00    -0.049 Br
ATOM     23  C   UNK d   1      -1.214 -14.557 -36.578  0.00  0.00     0.055 A 
ATOM     24  C   UNK d   1      -0.736 -13.287 -36.794  0.00  0.00     0.089 A 
ATOM     25  N   UNK d   1      -1.276 -12.083 -37.062  0.00  0.00    -0.207 NA
ATOM     26  C   UNK d   1       0.619 -13.121 -36.738  0.00  0.00     0.066 A 
ATOM     27  C   UNK d   1      -0.311 -11.152 -37.179  0.00  0.00     0.244 A 
ATOM     28  N   UNK d   1       0.843 -11.812 -36.976  0.00  0.00    -0.319 N 
ATOM     29  H   UNK d   1       1.805 -11.374 -36.999  0.00  0.00     0.169 HD
ATOM     30  C   UNK d   1       1.505 -14.175 -36.475  0.00  0.00     0.063 A 
BRANCH  27  31
ATOM     31  O   UNK d   1      -0.491  -9.782 -37.455  0.00  0.00    -0.331 OA
ATOM     32  H   UNK d   1       0.333  -9.191 -37.284  0.00  0.00     0.221 HD
ENDBRANCH  27  31
ENDBRANCH   1  20
TORSDOF 7
ENDMDL
