/Users/jonathanwahrer/Desktop/Msc/3_Semester/Drug_Design_Praktikum/waehrer_HTS_screening/HTS_experiment/out/docking_results/vina_output/6y4q/0626_docked.pdbqt
 OpenBabel03232217463D

 32 35  0  0  0  0  0  0  0  0999 V2000
    1.8270  -16.5780  -35.9730 N   0  0  0  0  0  0  0  0  0  0  0  0
    2.3910  -17.4770  -36.8870 C   0  0  0  0  0  0  0  0  0  0  0  0
    2.2100  -17.3210  -38.1220 O   0  0  0  0  0  0  0  0  0  0  0  0
    2.0510  -16.7820  -34.9510 H   0  0  0  0  0  0  0  0  0  0  0  0
    3.2090  -18.6320  -36.5010 C   0  0  0  0  0  2  0  0  0  0  0  0
    3.9500  -19.2880  -37.5030 N   0  0  0  0  0  0  0  0  0  0  0  0
    5.3510  -19.0740  -37.5530 C   0  0  0  0  0  2  0  0  0  0  0  0
    5.9430  -19.4420  -38.9130 C   0  0  0  0  0  2  0  0  0  0  0  0
    5.5670  -20.7590  -39.2070 N   0  0  0  0  0  0  0  0  0  0  0  0
    4.6580  -21.4130  -38.3500 C   0  0  0  0  0  2  0  0  0  0  0  0
    3.5070  -20.5970  -37.8430 C   0  0  0  0  0  2  0  0  0  0  0  0
    5.7150  -21.1740  -40.5280 C   0  0  0  0  0  2  0  0  0  0  0  0
    4.5370  -21.6560  -41.2500 C   0  0  0  0  0  0  0  0  0  0  0  0
    3.7300  -20.7330  -41.6580 O   0  0  0  0  0  0  0  0  0  0  0  0
    4.1890  -22.9690  -41.5460 N   0  0  0  0  0  0  0  0  0  0  0  0
    4.8030  -23.7560  -41.2540 H   0  0  0  0  0  0  0  0  0  0  0  0
    2.9790  -23.3310  -42.2790 C   0  0  0  0  0  3  0  0  0  0  0  0
    3.0500  -24.1520  -43.4980 C   0  0  0  0  0  2  0  0  0  0  0  0
    2.5270  -24.7740  -42.2170 C   0  0  0  0  0  2  0  0  0  0  0  0
    1.0290  -15.4480  -36.2570 C   0  0  0  0  0  0  0  0  0  0  0  0
   -0.3480  -15.5950  -36.3200 C   0  0  0  0  0  0  0  0  0  0  0  0
   -1.0650  -17.3510  -36.0380 Br  0  0  0  0  0  0  0  0  0  0  0  0
   -1.2140  -14.5570  -36.5780 C   0  0  0  0  0  3  0  0  0  0  0  0
   -0.7360  -13.2870  -36.7940 C   0  0  0  0  0  0  0  0  0  0  0  0
   -1.2760  -12.0830  -37.0620 N   0  0  0  0  0  0  0  0  0  0  0  0
    0.6190  -13.1210  -36.7380 C   0  0  0  0  0  0  0  0  0  0  0  0
   -0.3110  -11.1520  -37.1790 C   0  0  0  0  0  0  0  0  0  0  0  0
    0.8430  -11.8120  -36.9760 N   0  0  0  0  0  0  0  0  0  0  0  0
    1.8050  -11.3740  -36.9990 H   0  0  0  0  0  0  0  0  0  0  0  0
    1.5050  -14.1750  -36.4750 C   0  0  0  0  0  3  0  0  0  0  0  0
   -0.4910   -9.7820  -37.4550 O   0  0  0  0  0  0  0  0  0  0  0  0
    0.3330   -9.1910  -37.2840 H   0  0  0  0  0  0  0  0  0  0  0  0
  1  4  1  0  0  0  0
  2  5  1  0  0  0  0
  2  1  1  0  0  0  0
  3  2  2  0  0  0  0
  6  5  1  0  0  0  0
  7  6  1  0  0  0  0
  8  7  1  0  0  0  0
  9  8  1  0  0  0  0
  9 10  1  0  0  0  0
 10 11  1  0  0  0  0
 11  6  1  0  0  0  0
 12  9  1  0  0  0  0
 13 12  1  0  0  0  0
 14 13  2  0  0  0  0
 15 16  1  0  0  0  0
 15 13  1  0  0  0  0
 17 19  1  0  0  0  0
 17 15  1  0  0  0  0
 18 17  1  0  0  0  0
 18 19  1  0  0  0  0
 20  1  1  0  0  0  0
 21 20  1  0  0  0  0
 21 22  1  0  0  0  0
 23 21  2  0  0  0  0
 24 26  2  0  0  0  0
 24 23  1  0  0  0  0
 25 24  1  0  0  0  0
 26 30  1  0  0  0  0
 27 25  2  0  0  0  0
 27 28  1  0  0  0  0
 28 26  1  0  0  0  0
 29 28  1  0  0  0  0
 30 20  2  0  0  0  0
 31 32  1  0  0  0  0
 31 27  1  0  0  0  0
M  END
>  <Pose>
1

>  <Score>
-6.182

$$$$
