MODEL 1
REMARK VINA RESULT:    -6.258      0.000      0.000
REMARK INTER + INTRA:          -9.397
REMARK INTER:                  -8.088
REMARK INTRA:                  -1.309
REMARK UNBOUND:                -1.309
REMARK  5 active torsions:
REMARK  status: ('A' for Active; 'I' for Inactive)
REMARK    1  A    between atoms: C_7  and  N_11 
REMARK    2  A    between atoms: C_13  and  C_17 
REMARK       I    between atoms: C_17  and  N_19 
REMARK    3  A    between atoms: N_19  and  C_20 
REMARK    4  A    between atoms: C_20  and  C_21 
REMARK    5  A    between atoms: C_21  and  C_22 
ROOT
ATOM      1  N   UNK d   1       0.801 -16.276 -38.098  0.00  0.00    -0.301 N 
ATOM      2  C   UNK d   1       1.729 -17.379 -38.432  0.00  0.00     0.148 C 
ATOM      3  C   UNK d   1       1.262 -17.812 -39.812  0.00  0.00     0.105 C 
ATOM      4  C   UNK d   1      -0.231 -17.567 -39.751  0.00  0.00     0.119 C 
ATOM      5  C   UNK d   1      -0.477 -16.652 -38.607  0.00  0.00     0.226 C 
ATOM      6  O   UNK d   1      -1.571 -16.277 -38.165  0.00  0.00    -0.273 OA
ENDROOT
BRANCH   3   7
ATOM      7  C   UNK d   1       1.644 -19.228 -39.929  0.00  0.00     0.223 C 
ATOM      8  O   UNK d   1       0.832 -20.144 -39.664  0.00  0.00    -0.273 OA
ATOM      9  N   UNK d   1       2.966 -19.531 -40.355  0.00  0.00    -0.360 N 
ATOM     10  H   UNK d   1       3.609 -18.741 -40.557  0.00  0.00     0.162 HD
BRANCH   9  11
ATOM     11  C   UNK d   1       3.422 -20.896 -40.506  0.00  0.00     0.128 C 
BRANCH  11  12
ATOM     12  C   UNK d   1       3.969 -21.473 -39.218  0.00  0.00     0.080 C 
BRANCH  12  13
ATOM     13  C   UNK d   1       5.011 -20.595 -38.650  0.00  0.00     0.052 A 
ATOM     14  N   UNK d   1       4.747 -19.495 -37.926  0.00  0.00    -0.247 NA
ATOM     15  C   UNK d   1       5.886 -18.913 -37.547  0.00  0.00     0.207 A 
ATOM     16  N   UNK d   1       6.912 -19.656 -38.041  0.00  0.00    -0.359 N 
ATOM     17  C   UNK d   1       6.367 -20.678 -38.709  0.00  0.00     0.116 A 
ATOM     18  H   UNK d   1       7.914 -19.404 -37.880  0.00  0.00     0.166 HD
ENDBRANCH  12  13
ENDBRANCH  11  12
ENDBRANCH   9  11
ENDBRANCH   3   7
BRANCH   1  19
ATOM     19  C   UNK d   1       1.239 -15.122 -37.424  0.00  0.00     0.139 A 
ATOM     20  N   UNK d   1       1.067 -14.739 -36.151  0.00  0.00    -0.261 N 
ATOM     21  N   UNK d   1       1.655 -13.569 -35.919  0.00  0.00    -0.172 NA
ATOM     22  H   UNK d   1       0.549 -15.259 -35.416  0.00  0.00     0.191 HD
ATOM     23  C   UNK d   1       2.247 -13.130 -37.044  0.00  0.00     0.092 A 
ATOM     24  C   UNK d   1       2.974 -12.000 -37.337  0.00  0.00     0.053 A 
ATOM     25  C   UNK d   1       2.000 -14.082 -37.995  0.00  0.00     0.040 A 
ATOM     26  C   UNK d   1       3.452 -11.862 -38.639  0.00  0.00     0.013 A 
ATOM     27 Br   UNK d   1       4.477 -10.329 -39.154  0.00  0.00    -0.051 Br
ATOM     28  C   UNK d   1       3.193 -12.838 -39.591  0.00  0.00     0.020 A 
ATOM     29  C   UNK d   1       2.463 -13.957 -39.274  0.00  0.00     0.019 A 
ENDBRANCH   1  19
TORSDOF 5
ENDMDL
