/Users/jonathanwahrer/Desktop/Msc/3_Semester/Drug_Design_Praktikum/waehrer_HTS_screening/HTS_experiment/out/docking_results/vina_output/6y4q/0631_docked.pdbqt
 OpenBabel03232217473D

 29 32  0  0  1  0  0  0  0  0999 V2000
    0.8010  -16.2760  -38.0980 N   0  0  0  0  0  0  0  0  0  0  0  0
    1.7290  -17.3790  -38.4320 C   0  0  0  0  0  2  0  0  0  0  0  0
    1.2620  -17.8120  -39.8120 C   0  0  2  0  0  3  0  0  0  0  0  0
   -0.2310  -17.5670  -39.7510 C   0  0  0  0  0  2  0  0  0  0  0  0
   -0.4770  -16.6520  -38.6070 C   0  0  0  0  0  0  0  0  0  0  0  0
   -1.5710  -16.2770  -38.1650 O   0  0  0  0  0  0  0  0  0  0  0  0
    1.6440  -19.2280  -39.9290 C   0  0  0  0  0  0  0  0  0  0  0  0
    0.8320  -20.1440  -39.6640 O   0  0  0  0  0  0  0  0  0  0  0  0
    2.9660  -19.5310  -40.3550 N   0  0  0  0  0  0  0  0  0  0  0  0
    3.6090  -18.7410  -40.5570 H   0  0  0  0  0  0  0  0  0  0  0  0
    3.4220  -20.8960  -40.5060 C   0  0  0  0  0  2  0  0  0  0  0  0
    3.9690  -21.4730  -39.2180 C   0  0  0  0  0  2  0  0  0  0  0  0
    5.0110  -20.5950  -38.6500 C   0  0  0  0  0  0  0  0  0  0  0  0
    4.7470  -19.4950  -37.9260 N   0  0  0  0  0  0  0  0  0  0  0  0
    5.8860  -18.9130  -37.5470 C   0  0  0  0  0  3  0  0  0  0  0  0
    6.9120  -19.6560  -38.0410 N   0  0  0  0  0  0  0  0  0  0  0  0
    6.3670  -20.6780  -38.7090 C   0  0  0  0  0  3  0  0  0  0  0  0
    7.9140  -19.4040  -37.8800 H   0  0  0  0  0  0  0  0  0  0  0  0
    1.2390  -15.1220  -37.4240 C   0  0  0  0  0  0  0  0  0  0  0  0
    1.0670  -14.7390  -36.1510 N   0  0  0  0  0  0  0  0  0  0  0  0
    1.6550  -13.5690  -35.9190 N   0  0  0  0  0  0  0  0  0  0  0  0
    0.5490  -15.2590  -35.4160 H   0  0  0  0  0  0  0  0  0  0  0  0
    2.2470  -13.1300  -37.0440 C   0  0  0  0  0  0  0  0  0  0  0  0
    2.9740  -12.0000  -37.3370 C   0  0  0  0  0  3  0  0  0  0  0  0
    2.0000  -14.0820  -37.9950 C   0  0  0  0  0  0  0  0  0  0  0  0
    3.4520  -11.8620  -38.6390 C   0  0  0  0  0  0  0  0  0  0  0  0
    4.4770  -10.3290  -39.1540 Br  0  0  0  0  0  0  0  0  0  0  0  0
    3.1930  -12.8380  -39.5910 C   0  0  0  0  0  3  0  0  0  0  0  0
    2.4630  -13.9570  -39.2740 C   0  0  0  0  0  3  0  0  0  0  0  0
  1 19  1  0  0  0  0
  2  1  1  0  0  0  0
  3  7  1  1  0  0  0
  3  4  1  0  0  0  0
  3  2  1  0  0  0  0
  4  5  1  0  0  0  0
  5  6  2  0  0  0  0
  5  1  1  0  0  0  0
  7  8  2  0  0  0  0
  9  7  1  0  0  0  0
 10  9  1  0  0  0  0
 11  9  1  0  0  0  0
 11 12  1  0  0  0  0
 12 13  1  0  0  0  0
 13 14  1  0  0  0  0
 14 15  2  0  0  0  0
 16 18  1  0  0  0  0
 16 15  1  0  0  0  0
 17 13  2  0  0  0  0
 17 16  1  0  0  0  0
 19 20  1  0  0  0  0
 20 21  1  0  0  0  0
 20 22  1  0  0  0  0
 23 21  2  0  0  0  0
 24 23  1  0  0  0  0
 25 19  2  0  0  0  0
 25 23  1  0  0  0  0
 26 24  2  0  0  0  0
 27 26  1  0  0  0  0
 28 29  2  0  0  0  0
 28 26  1  0  0  0  0
 29 25  1  0  0  0  0
M  END
>  <Pose>
1

>  <Score>
-6.258

$$$$
