MODEL 1
REMARK VINA RESULT:    -6.097      0.000      0.000
REMARK INTER + INTRA:          -7.579
REMARK INTER:                  -7.166
REMARK INTRA:                  -0.413
REMARK UNBOUND:                -0.413
REMARK  3 active torsions:
REMARK  status: ('A' for Active; 'I' for Inactive)
REMARK    1  A    between atoms: N_4  and  C_7 
REMARK    2  A    between atoms: C_7  and  N_8 
REMARK    3  A    between atoms: C_10  and  C_13 
ROOT
ATOM      1  C   UNK d   1       1.948 -17.862 -37.528  0.00  0.00     0.202 A 
ATOM      2  N   UNK d   1       2.893 -18.539 -36.857  0.00  0.00    -0.142 NA
ATOM      3  N   UNK d   1       3.340 -19.557 -37.593  0.00  0.00    -0.206 N 
ATOM      4  C   UNK d   1       2.662 -19.532 -38.776  0.00  0.00     0.170 A 
ATOM      5  N   UNK d   1       1.817 -18.485 -38.710  0.00  0.00    -0.205 NA
ATOM      6  C   UNK d   1       2.951 -20.497 -39.717  0.00  0.00     0.078 A 
ATOM      7  C   UNK d   1       3.899 -21.483 -39.507  0.00  0.00     0.160 A 
ATOM      8  N   UNK d   1       3.961 -22.274 -40.593  0.00  0.00    -0.261 N 
ATOM      9  N   UNK d   1       3.082 -21.807 -41.465  0.00  0.00    -0.184 NA
ATOM     10  C   UNK d   1       2.447 -20.725 -40.970  0.00  0.00     0.158 A 
ATOM     11  N   UNK d   1       4.541 -21.468 -38.328  0.00  0.00    -0.222 NA
ATOM     12  C   UNK d   1       4.256 -20.525 -37.415  0.00  0.00     0.239 A 
ATOM     13  H   UNK d   1       4.574 -23.103 -40.747  0.00  0.00     0.191 HD
ENDROOT
BRANCH   1  14
ATOM     14  C   UNK d   1       1.224 -16.685 -37.051  0.00  0.00     0.128 A 
ATOM     15  N   UNK d   1       1.710 -15.460 -36.788  0.00  0.00    -0.167 NA
ATOM     16  N   UNK d   1       0.754 -14.648 -36.372  0.00  0.00    -0.261 N 
ATOM     17  C   UNK d   1      -0.411 -15.318 -36.347  0.00  0.00     0.117 A 
ATOM     18  C   UNK d   1      -0.125 -16.611 -36.775  0.00  0.00     0.056 A 
BRANCH  16  19
ATOM     19  C   UNK d   1       0.939 -13.243 -35.999  0.00  0.00     0.300 C 
BRANCH  19  20
ATOM     20  N   UNK d   1       1.571 -12.492 -37.064  0.00  0.00    -0.260 N 
ATOM     21  C   UNK d   1       2.869 -12.152 -37.132  0.00  0.00     0.135 A 
ATOM     22  C   UNK d   1       3.068 -11.443 -38.299  0.00  0.00     0.047 A 
ATOM     23 Br   UNK d   1       4.702 -10.714 -38.914  0.00  0.00    -0.048 Br
ATOM     24  C   UNK d   1       1.844 -11.371 -38.925  0.00  0.00     0.159 A 
ATOM     25  N   UNK d   1       0.960 -12.024 -38.137  0.00  0.00    -0.182 NA
ENDBRANCH  19  20
ENDBRANCH  16  19
ENDBRANCH   1  14
TORSDOF 3
ENDMDL
