MODEL 1
REMARK VINA RESULT:    -6.458      0.000      0.000
REMARK INTER + INTRA:          -7.779
REMARK INTER:                  -7.213
REMARK INTRA:                  -0.566
REMARK UNBOUND:                -0.566
REMARK  2 active torsions:
REMARK  status: ('A' for Active; 'I' for Inactive)
REMARK    1  A    between atoms: N_4  and  C_7 
REMARK    2  A    between atoms: C_10  and  C_13 
REMARK       I    between atoms: C_13  and  N_15 
ROOT
ATOM      1  C   UNK d   1       0.484 -15.165 -36.523  0.00  0.00     0.253 C 
ATOM      2  O   UNK d   1      -0.767 -15.433 -36.322  0.00  0.00    -0.267 OA
ATOM      3  N   UNK d   1       0.859 -13.851 -36.302  0.00  0.00    -0.348 N 
ATOM      4  C   UNK d   1       2.142 -13.203 -36.367  0.00  0.00     0.129 C 
ATOM      5  C   UNK d   1       2.209 -12.481 -37.698  0.00  0.00     0.061 C 
ATOM      6  C   UNK d   1       0.859 -11.885 -38.044  0.00  0.00     0.118 C 
ATOM      7  N   UNK d   1       1.105 -10.597 -38.655  0.00  0.00    -0.324 N 
ATOM      8  C   UNK d   1       1.346 -10.809 -40.038  0.00  0.00     0.323 C 
ATOM      9  O   UNK d   1       1.933 -10.032 -40.861  0.00  0.00    -0.247 OA
ATOM     10  N   UNK d   1       0.793 -12.095 -40.359  0.00  0.00    -0.277 N 
ATOM     11  C   UNK d   1       0.226 -12.634 -39.146  0.00  0.00     0.254 C 
ATOM     12  O   UNK d   1      -0.626 -13.548 -39.113  0.00  0.00    -0.270 OA
ATOM     13  C   UNK d   1      -0.026 -11.685 -36.857  0.00  0.00     0.061 C 
ATOM     14  C   UNK d   1      -0.231 -12.876 -35.984  0.00  0.00     0.129 C 
ATOM     15  H   UNK d   1       1.114  -9.661 -38.204  0.00  0.00     0.165 HD
ATOM     16  H   UNK d   1       0.777 -12.594 -41.275  0.00  0.00     0.173 HD
ENDROOT
BRANCH   1  17
ATOM     17  C   UNK d   1       1.274 -16.299 -36.946  0.00  0.00     0.032 A 
ATOM     18  C   UNK d   1       1.276 -16.669 -38.307  0.00  0.00     0.019 A 
ATOM     19  C   UNK d   1       2.027 -17.706 -38.791  0.00  0.00     0.032 A 
ATOM     20  C   UNK d   1       2.837 -18.459 -37.976  0.00  0.00     0.058 A 
ATOM     21  C   UNK d   1       2.854 -18.121 -36.650  0.00  0.00     0.032 A 
ATOM     22  C   UNK d   1       2.089 -17.060 -36.141  0.00  0.00     0.019 A 
BRANCH  20  23
ATOM     23  N   UNK d   1       3.605 -19.529 -38.506  0.00  0.00    -0.244 N 
ATOM     24  C   UNK d   1       4.129 -19.657 -39.738  0.00  0.00     0.139 A 
ATOM     25  C   UNK d   1       4.803 -20.855 -39.827  0.00  0.00     0.047 A 
ATOM     26 Br   UNK d   1       5.742 -21.557 -41.354  0.00  0.00    -0.048 Br
ATOM     27  C   UNK d   1       4.663 -21.446 -38.591  0.00  0.00     0.159 A 
ATOM     28  N   UNK d   1       3.941 -20.615 -37.842  0.00  0.00    -0.179 NA
ENDBRANCH  20  23
ENDBRANCH   1  17
TORSDOF 2
ENDMDL
