MODEL 1
REMARK VINA RESULT:    -6.466      0.000      0.000
REMARK INTER + INTRA:          -9.085
REMARK INTER:                  -7.978
REMARK INTRA:                  -1.107
REMARK UNBOUND:                -1.107
REMARK  4 active torsions:
REMARK  status: ('A' for Active; 'I' for Inactive)
REMARK    1  A    between atoms: C_5  and  N_8 
REMARK    2  A    between atoms: N_8  and  C_9 
REMARK    3  A    between atoms: C_10  and  N_22 
REMARK    4  A    between atoms: N_13  and  C_16 
ROOT
ATOM      1  C   UNK d   1       1.603 -17.118 -36.967  0.00  0.00     0.136 A 
ATOM      2  C   UNK d   1       1.291 -17.195 -38.227  0.00  0.00     0.140 A 
ATOM      3  C   UNK d   1       2.239 -18.131 -38.836  0.00  0.00     0.285 A 
ATOM      4  O   UNK d   1       2.231 -18.446 -40.066  0.00  0.00    -0.265 OA
ATOM      5  N   UNK d   1       3.164 -18.634 -37.861  0.00  0.00    -0.241 N 
ATOM      6  C   UNK d   1       2.762 -17.988 -36.654  0.00  0.00     0.284 A 
ATOM      7  O   UNK d   1       3.299 -18.133 -35.524  0.00  0.00    -0.265 OA
ENDROOT
BRANCH   1   8
ATOM      8  N   UNK d   1       0.995 -16.351 -35.946  0.00  0.00    -0.335 N 
ATOM      9  H   UNK d   1       0.743 -16.775 -35.053  0.00  0.00     0.168 HD
BRANCH   8  10
ATOM     10  C   UNK d   1       0.745 -14.982 -36.199  0.00  0.00     0.127 A 
ATOM     11  N   UNK d   1       1.762 -14.097 -36.379  0.00  0.00    -0.242 NA
ATOM     12  C   UNK d   1       1.578 -12.791 -36.605  0.00  0.00     0.138 A 
ATOM     13  C   UNK d   1       0.318 -12.257 -36.670  0.00  0.00     0.028 A 
ATOM     14 Br   UNK d   1       0.021 -10.395 -36.981  0.00  0.00    -0.050 Br
ATOM     15  C   UNK d   1      -0.758 -13.096 -36.498  0.00  0.00     0.024 A 
ATOM     16  C   UNK d   1      -0.539 -14.427 -36.269  0.00  0.00     0.052 A 
ENDBRANCH   8  10
ENDBRANCH   1   8
BRANCH   2  17
ATOM     17  N   UNK d   1       0.239 -16.529 -38.928  0.00  0.00    -0.326 N 
ATOM     18  C   UNK d   1       0.507 -15.430 -39.656  0.00  0.00     0.097 A 
ATOM     19  C   UNK d   1      -0.507 -14.747 -40.350  0.00  0.00     0.018 A 
ATOM     20  C   UNK d   1      -1.810 -15.204 -40.291  0.00  0.00     0.003 A 
ATOM     21  C   UNK d   1      -2.059 -16.332 -39.540  0.00  0.00     0.018 A 
ATOM     22  C   UNK d   1      -1.042 -16.969 -38.879  0.00  0.00     0.097 A 
ENDBRANCH   2  17
BRANCH   5  23
ATOM     23  C   UNK d   1       4.228 -19.548 -38.068  0.00  0.00     0.046 A 
ATOM     24  C   UNK d   1       4.039 -20.859 -38.426  0.00  0.00     0.030 A 
ATOM     25  C   UNK d   1       5.123 -21.736 -38.640  0.00  0.00     0.002 A 
ATOM     26  C   UNK d   1       6.418 -21.292 -38.495  0.00  0.00     0.000 A 
ATOM     27  C   UNK d   1       6.612 -19.982 -38.138  0.00  0.00     0.002 A 
ATOM     28  C   UNK d   1       5.528 -19.129 -37.930  0.00  0.00     0.030 A 
ENDBRANCH   5  23
TORSDOF 4
ENDMDL
