/Users/jonathanwahrer/Desktop/Msc/3_Semester/Drug_Design_Praktikum/waehrer_HTS_screening/HTS_experiment/out/docking_results/vina_output/6y4q/0666_docked.pdbqt
 OpenBabel03232217483D

 28 31  0  0  0  0  0  0  0  0999 V2000
    1.6030  -17.1180  -36.9670 C   0  0  0  0  0  0  0  0  0  0  0  0
    1.2910  -17.1950  -38.2270 C   0  0  0  0  0  0  0  0  0  0  0  0
    2.2390  -18.1310  -38.8360 C   0  0  0  0  0  0  0  0  0  0  0  0
    2.2310  -18.4460  -40.0660 O   0  0  0  0  0  0  0  0  0  0  0  0
    3.1640  -18.6340  -37.8610 N   0  0  0  0  0  0  0  0  0  0  0  0
    2.7620  -17.9880  -36.6540 C   0  0  0  0  0  0  0  0  0  0  0  0
    3.2990  -18.1330  -35.5240 O   0  0  0  0  0  0  0  0  0  0  0  0
    0.9950  -16.3510  -35.9460 N   0  0  0  0  0  0  0  0  0  0  0  0
    0.7430  -16.7750  -35.0530 H   0  0  0  0  0  0  0  0  0  0  0  0
    0.7450  -14.9820  -36.1990 C   0  0  0  0  0  0  0  0  0  0  0  0
    1.7620  -14.0970  -36.3790 N   0  0  0  0  0  0  0  0  0  0  0  0
    1.5780  -12.7910  -36.6050 C   0  0  0  0  0  3  0  0  0  0  0  0
    0.3180  -12.2570  -36.6700 C   0  0  0  0  0  0  0  0  0  0  0  0
    0.0210  -10.3950  -36.9810 Br  0  0  0  0  0  0  0  0  0  0  0  0
   -0.7580  -13.0960  -36.4980 C   0  0  0  0  0  3  0  0  0  0  0  0
   -0.5390  -14.4270  -36.2690 C   0  0  0  0  0  3  0  0  0  0  0  0
    0.2390  -16.5290  -38.9280 N   0  0  0  0  0  0  0  0  0  0  0  0
    0.5070  -15.4300  -39.6560 C   0  0  0  0  0  2  0  0  0  0  0  0
   -0.5070  -14.7470  -40.3500 C   0  0  0  0  0  3  0  0  0  0  0  0
   -1.8100  -15.2040  -40.2910 C   0  0  0  0  0  3  0  0  0  0  0  0
   -2.0590  -16.3320  -39.5400 C   0  0  0  0  0  3  0  0  0  0  0  0
   -1.0420  -16.9690  -38.8790 C   0  0  0  0  0  3  0  0  0  0  0  0
    4.2280  -19.5480  -38.0680 C   0  0  0  0  0  0  0  0  0  0  0  0
    4.0390  -20.8590  -38.4260 C   0  0  0  0  0  3  0  0  0  0  0  0
    5.1230  -21.7360  -38.6400 C   0  0  0  0  0  3  0  0  0  0  0  0
    6.4180  -21.2920  -38.4950 C   0  0  0  0  0  3  0  0  0  0  0  0
    6.6120  -19.9820  -38.1380 C   0  0  0  0  0  3  0  0  0  0  0  0
    5.5280  -19.1290  -37.9300 C   0  0  0  0  0  3  0  0  0  0  0  0
  1  6  1  0  0  0  0
  1  8  1  0  0  0  0
  2  1  2  0  0  0  0
  3  2  1  0  0  0  0
  3  5  1  0  0  0  0
  4  3  2  0  0  0  0
  5  6  1  0  0  0  0
  6  7  2  0  0  0  0
  8  9  1  0  0  0  0
 10  8  1  0  0  0  0
 11 10  2  0  0  0  0
 12 11  1  0  0  0  0
 13 12  2  0  0  0  0
 13 15  1  0  0  0  0
 14 13  1  0  0  0  0
 15 16  2  0  0  0  0
 16 10  1  0  0  0  0
 17 22  1  0  0  0  0
 17  2  1  0  0  0  0
 18 17  1  0  0  0  0
 19 20  2  0  0  0  0
 19 18  1  0  0  0  0
 20 21  1  0  0  0  0
 21 22  2  0  0  0  0
 23 28  1  0  0  0  0
 23  5  1  0  0  0  0
 24 23  2  0  0  0  0
 25 26  2  0  0  0  0
 25 24  1  0  0  0  0
 26 27  1  0  0  0  0
 27 28  2  0  0  0  0
M  END
>  <Pose>
1

>  <Score>
-6.466

$$$$
