MODEL 1
REMARK VINA RESULT:    -6.051      0.000      0.000
REMARK INTER + INTRA:          -7.600
REMARK INTER:                  -7.112
REMARK INTRA:                  -0.488
REMARK UNBOUND:                -0.488
REMARK  3 active torsions:
REMARK  status: ('A' for Active; 'I' for Inactive)
REMARK    1  A    between atoms: C_5  and  N_8 
REMARK    2  A    between atoms: C_10  and  C_12 
REMARK    3  A    between atoms: C_12  and  N_13 
ROOT
ATOM      1  C   UNK d   1       1.972 -17.367 -35.698  0.00  0.00     0.160 C 
ENDROOT
BRANCH   1   2
ATOM      2  C   UNK d   1       2.776 -17.799 -36.884  0.00  0.00     0.043 C 
ATOM      3  C   UNK d   1       3.752 -18.933 -36.642  0.00  0.00     0.149 C 
ATOM      4  N   UNK d   1       3.469 -19.316 -37.995  0.00  0.00    -0.213 N 
ATOM      5  C   UNK d   1       2.127 -18.874 -37.748  0.00  0.00     0.149 C 
BRANCH   4   6
ATOM      6  C   UNK d   1       4.189 -19.870 -39.059  0.00  0.00     0.724 A 
ATOM      7  N   UNK d   1       4.808 -19.140 -40.013  0.00  0.00    -0.074 NA
ATOM      8  C   UNK d   1       5.496 -19.644 -41.029  0.00  0.00     0.157 A 
ATOM      9  C   UNK d   1       5.613 -21.009 -41.158  0.00  0.00     0.047 A 
ATOM     10 Br   UNK d   1       6.599 -21.766 -42.613  0.00  0.00    -0.048 Br
ATOM     11  C   UNK d   1       4.995 -21.789 -40.204  0.00  0.00     0.157 A 
ATOM     12  N   UNK d   1       4.310 -21.224 -39.193  0.00  0.00    -0.074 NA
ENDBRANCH   4   6
ENDBRANCH   1   2
BRANCH   1  13
ATOM     13  N   UNK d   1       1.263 -16.168 -36.056  0.00  0.00    -0.257 N 
ATOM     14  N   UNK d   1       1.962 -15.003 -36.375  0.00  0.00    -0.296 N 
ATOM     15  C   UNK d   1       1.305 -13.796 -36.735  0.00  0.00     0.051 A 
ATOM     16  H   UNK d   1       3.022 -15.056 -36.338  0.00  0.00     0.187 HD
ATOM     17  C   UNK d   1       2.015 -12.723 -37.027  0.00  0.00    -0.051 A 
ATOM     18  C   UNK d   1      -0.142 -13.736 -36.782  0.00  0.00     0.036 A 
ATOM     19  C   UNK d   1       3.247 -11.933 -37.228  0.00  0.00     0.041 A 
ATOM     20  C   UNK d   1       1.972 -11.267 -37.446  0.00  0.00     0.041 A 
ATOM     21  C   UNK d   1      -0.826 -14.829 -36.483  0.00  0.00     0.078 A 
ATOM     22  C   UNK d   1      -0.154 -16.089 -36.109  0.00  0.00     0.262 A 
ATOM     23  O   UNK d   1      -0.828 -17.116 -35.828  0.00  0.00    -0.267 OA
ENDBRANCH   1  13
TORSDOF 3
ENDMDL
