MODEL 1
REMARK VINA RESULT:    -6.446      0.000      0.000
REMARK INTER + INTRA:          -8.546
REMARK INTER:                  -7.765
REMARK INTRA:                  -0.781
REMARK UNBOUND:                -0.781
REMARK  4 active torsions:
REMARK  status: ('A' for Active; 'I' for Inactive)
REMARK    1  A    between atoms: C_6  and  C_8 
REMARK       I    between atoms: C_8  and  N_10 
REMARK    2  A    between atoms: N_10  and  C_11 
REMARK    3  A    between atoms: C_11  and  C_12 
REMARK    4  A    between atoms: C_15  and  O_24 
ROOT
ATOM      1  C   UNK d   1       2.670 -18.701 -37.750  0.00  0.00     0.003 A 
ATOM      2  C   UNK d   1       1.494 -18.961 -38.540  0.00  0.00     0.116 A 
ATOM      3  C   UNK d   1       1.545 -19.857 -39.544  0.00  0.00     0.139 A 
ATOM      4  C   UNK d   1       2.733 -20.550 -39.841  0.00  0.00     0.118 A 
ATOM      5  C   UNK d   1       3.864 -20.313 -39.098  0.00  0.00     0.075 A 
ATOM      6  C   UNK d   1       3.824 -19.379 -38.051  0.00  0.00    -0.027 A 
ATOM      7  C   UNK d   1       5.061 -19.040 -37.300  0.00  0.00     0.060 C 
ATOM      8  C   UNK d   1       6.343 -19.445 -38.020  0.00  0.00     0.130 C 
ATOM      9  N   UNK d   1       6.261 -20.790 -38.540  0.00  0.00    -0.352 N 
ATOM     10  C   UNK d   1       5.106 -21.037 -39.353  0.00  0.00     0.256 C 
ATOM     11  O   UNK d   1       5.234 -21.884 -40.260  0.00  0.00    -0.267 OA
ATOM     12  C   UNK d   1       7.261 -21.799 -38.264  0.00  0.00     0.152 C 
ATOM     13  O   UNK d   1       0.269 -19.898 -40.126  0.00  0.00    -0.320 OA
ATOM     14  C   UNK d   1      -0.652 -19.203 -39.313  0.00  0.00     0.352 C 
ATOM     15  O   UNK d   1       0.199 -18.439 -38.482  0.00  0.00    -0.322 OA
ENDROOT
BRANCH   1  16
ATOM     16  C   UNK d   1       2.405 -17.721 -36.718  0.00  0.00     0.165 C 
BRANCH  16  17
ATOM     17  N   UNK d   1       2.030 -16.393 -36.931  0.00  0.00    -0.352 N 
ATOM     18  C   UNK d   1       0.868 -15.925 -36.148  0.00  0.00     0.253 C 
ATOM     19  O   UNK d   1       0.318 -16.723 -35.370  0.00  0.00    -0.268 OA
ATOM     20  H   UNK d   1       2.421 -15.634 -37.507  0.00  0.00     0.163 HD
BRANCH  18  21
ATOM     21  C   UNK d   1       0.383 -14.572 -36.283  0.00  0.00     0.050 A 
ATOM     22  C   UNK d   1       1.322 -13.549 -36.347  0.00  0.00     0.133 A 
ATOM     23  N   UNK d   1       0.954 -12.265 -36.467  0.00  0.00    -0.271 NA
ATOM     24  C   UNK d   1      -0.340 -11.953 -36.527  0.00  0.00     0.135 A 
ATOM     25  C   UNK d   1      -1.300 -12.912 -36.470  0.00  0.00     0.029 A 
ATOM     26 Br   UNK d   1      -3.149 -12.443 -36.558  0.00  0.00    -0.050 Br
ATOM     27  C   UNK d   1      -0.956 -14.257 -36.345  0.00  0.00     0.039 A 
ENDBRANCH  18  21
ENDBRANCH  16  17
ENDBRANCH   1  16
BRANCH   4  28
ATOM     28  O   UNK d   1       2.702 -21.429 -40.858  0.00  0.00    -0.357 OA
ATOM     29  H   UNK d   1       3.395 -21.946 -41.278  0.00  0.00     0.217 HD
ENDBRANCH   4  28
TORSDOF 4
ENDMDL
