MODEL 1
REMARK VINA RESULT:    -6.390      0.000      0.000
REMARK INTER + INTRA:          -6.415
REMARK INTER:                  -7.137
REMARK INTRA:                   0.722
REMARK UNBOUND:                 0.722
REMARK  2 active torsions:
REMARK  status: ('A' for Active; 'I' for Inactive)
REMARK    1  A    between atoms: C_6  and  C_8 
REMARK       I    between atoms: C_8  and  N_10 
REMARK    2  A    between atoms: C_12  and  N_14 
ROOT
ATOM      1  C   UNK d   1       4.458 -20.983 -39.114  0.00  0.00     0.255 C 
ATOM      2  O   UNK d   1       4.665 -21.962 -38.308  0.00  0.00    -0.267 OA
ATOM      3  N   UNK d   1       3.642 -19.931 -38.658  0.00  0.00    -0.344 N 
ATOM      4  C   UNK d   1       3.104 -18.689 -39.120  0.00  0.00     0.153 C 
ATOM      5  C   UNK d   1       1.944 -18.905 -38.132  0.00  0.00     0.132 C 
ATOM      6  C   UNK d   1       2.971 -19.654 -37.371  0.00  0.00     0.153 C 
ENDROOT
BRANCH   5   7
ATOM      7  N   UNK d   1       1.479 -17.664 -37.576  0.00  0.00    -0.280 N 
ATOM      8  C   UNK d   1       1.729 -17.122 -36.265  0.00  0.00     0.232 C 
ATOM      9  O   UNK d   1       2.713 -17.400 -35.557  0.00  0.00    -0.272 OA
ATOM     10  C   UNK d   1       0.578 -16.196 -35.986  0.00  0.00     0.095 C 
ATOM     11  C   UNK d   1       0.398 -15.579 -37.353  0.00  0.00     0.095 C 
ATOM     12  C   UNK d   1      -0.567 -17.042 -35.543  0.00  0.00     0.041 C 
ATOM     13  C   UNK d   1      -0.977 -14.993 -37.512  0.00  0.00     0.041 C 
ATOM     14  C   UNK d   1       0.658 -16.719 -38.253  0.00  0.00     0.232 C 
ATOM     15  C   UNK d   1      -1.998 -16.057 -37.314  0.00  0.00    -0.030 C 
ATOM     16  C   UNK d   1      -1.760 -16.973 -36.398  0.00  0.00    -0.030 C 
ATOM     17  O   UNK d   1       0.202 -16.792 -39.421  0.00  0.00    -0.272 OA
ENDBRANCH   5   7
BRANCH   1  18
ATOM     18  C   UNK d   1       5.104 -21.098 -40.400  0.00  0.00     0.051 A 
ATOM     19  C   UNK d   1       5.901 -20.055 -40.890  0.00  0.00     0.133 A 
ATOM     20  N   UNK d   1       6.509 -20.105 -42.081  0.00  0.00    -0.271 NA
ATOM     21  C   UNK d   1       6.383 -21.191 -42.886  0.00  0.00     0.135 A 
ATOM     22  C   UNK d   1       5.619 -22.260 -42.484  0.00  0.00     0.029 A 
ATOM     23 Br   UNK d   1       5.456 -23.770 -43.632  0.00  0.00    -0.050 Br
ATOM     24  C   UNK d   1       5.000 -22.179 -41.246  0.00  0.00     0.039 A 
ENDBRANCH   1  18
TORSDOF 2
ENDMDL
