MODEL 1
REMARK VINA RESULT:    -5.994      0.000      0.000
REMARK INTER + INTRA:          -7.348
REMARK INTER:                  -7.046
REMARK INTRA:                  -0.302
REMARK UNBOUND:                -0.302
REMARK  3 active torsions:
REMARK  status: ('A' for Active; 'I' for Inactive)
REMARK    1  A    between atoms: C_6  and  C_8 
REMARK       I    between atoms: C_8  and  N_10 
REMARK    2  A    between atoms: C_12  and  O_14 
REMARK    3  A    between atoms: O_14  and  C_15 
ROOT
ATOM      1  C   UNK d   1       3.036 -18.926 -37.425  0.00  0.00     0.255 C 
ATOM      2  O   UNK d   1       3.835 -18.843 -36.441  0.00  0.00    -0.267 OA
ATOM      3  N   UNK d   1       3.312 -19.856 -38.435  0.00  0.00    -0.343 N 
ATOM      4  C   UNK d   1       2.776 -20.344 -39.678  0.00  0.00     0.160 C 
ATOM      5  C   UNK d   1       3.788 -21.478 -39.743  0.00  0.00     0.166 C 
ATOM      6  C   UNK d   1       4.449 -20.785 -38.590  0.00  0.00     0.160 C 
ENDROOT
BRANCH   5   7
ATOM      7  O   UNK d   1       4.541 -21.586 -40.910  0.00  0.00    -0.325 OA
BRANCH   7   8
ATOM      8  C   UNK d   1       4.524 -22.645 -41.794  0.00  0.00     0.186 A 
ATOM      9  C   UNK d   1       3.408 -23.351 -41.957  0.00  0.00     0.087 A 
ATOM     10  C   UNK d   1       3.326 -24.481 -42.875  0.00  0.00     0.044 A 
ATOM     11  C   UNK d   1       2.201 -25.159 -43.013  0.00  0.00     0.043 C 
ATOM     12  N   UNK d   1       4.496 -24.817 -43.607  0.00  0.00    -0.189 N 
ATOM     13  C   UNK d   1       5.686 -24.038 -43.410  0.00  0.00     0.731 A 
ATOM     14  H   UNK d   1       4.450 -25.616 -44.261  0.00  0.00     0.184 HD
ATOM     15  N   UNK d   1       5.696 -23.010 -42.549  0.00  0.00    -0.038 N 
ATOM     16  N   UNK d   1       6.907 -24.126 -43.946  0.00  0.00    -0.054 NA
ATOM     17  N   UNK d   1       6.915 -22.460 -42.550  0.00  0.00    -0.143 NA
ATOM     18  C   UNK d   1       7.659 -23.157 -43.417  0.00  0.00     0.275 A 
ENDBRANCH   7   8
ENDBRANCH   5   7
BRANCH   1  19
ATOM     19  C   UNK d   1       1.890 -18.052 -37.442  0.00  0.00     0.051 A 
ATOM     20  C   UNK d   1       0.621 -18.376 -37.852  0.00  0.00     0.133 A 
ATOM     21  N   UNK d   1      -0.416 -17.488 -37.828  0.00  0.00    -0.271 NA
ATOM     22  C   UNK d   1      -0.272 -16.229 -37.400  0.00  0.00     0.135 A 
ATOM     23  C   UNK d   1       0.979 -15.846 -36.974  0.00  0.00     0.029 A 
ATOM     24 Br   UNK d   1       1.223 -14.043 -36.352  0.00  0.00    -0.050 Br
ATOM     25  C   UNK d   1       2.031 -16.726 -36.993  0.00  0.00     0.039 A 
ENDBRANCH   1  19
TORSDOF 3
ENDMDL
