/Users/jonathanwahrer/Desktop/Msc/3_Semester/Drug_Design_Praktikum/waehrer_HTS_screening/HTS_experiment/out/docking_results/vina_output/6y4q/0683_docked.pdbqt
 OpenBabel03232217483D

 10 10  0  0  0  0  0  0  0  0999 V2000
    1.6020  -16.6530  -36.3580 Br  0  0  0  0  0  0  0  0  0  0  0  0
    1.8830  -18.1480  -37.4780 C   0  0  0  0  0  0  0  0  0  0  0  0
    0.8650  -18.5850  -38.3100 C   0  0  0  0  0  3  0  0  0  0  0  0
    1.1130  -19.6490  -39.0870 N   0  0  0  0  0  0  0  0  0  0  0  0
    2.2810  -20.3100  -39.1040 C   0  0  0  0  0  3  0  0  0  0  0  0
    3.2840  -19.8710  -38.2760 C   0  0  0  0  0  0  0  0  0  0  0  0
    3.1090  -18.7780  -37.4430 C   0  0  0  0  0  3  0  0  0  0  0  0
    4.5640  -20.5600  -38.2660 C   0  0  0  0  0  0  0  0  0  0  0  0
    4.6140  -21.8220  -38.2460 O   0  0  0  0  0  1  0  0  0  0  0  0
    5.7590  -19.8620  -38.2750 O   0  0  0  0  0  0  0  0  0  0  0  0
  2  7  1  0  0  0  0
  2  1  1  0  0  0  0
  3  2  2  0  0  0  0
  4  3  1  0  0  0  0
  5  4  2  0  0  0  0
  5  6  1  0  0  0  0
  6  8  1  0  0  0  0
  6  7  2  0  0  0  0
  8  9  1  0  0  0  0
 10  8  2  0  0  0  0
M  END
>  <Pose>
1

>  <Score>
-3.754

$$$$
