MODEL 1
REMARK VINA RESULT:    -3.754      0.000      0.000
REMARK INTER + INTRA:          -4.005
REMARK INTER:                  -3.974
REMARK INTRA:                  -0.031
REMARK UNBOUND:                -0.031
REMARK  2 active torsions:
REMARK  status: ('A' for Active; 'I' for Inactive)
REMARK    1  A    between atoms: C_6  and  C_8 
REMARK    2  A    between atoms: C_21  and  N_22 
ROOT
ATOM      1 Br   UNK d   1       1.602 -16.653 -36.358  0.00  0.00    -0.050 Br
ATOM      2  C   UNK d   1       1.883 -18.148 -37.478  0.00  0.00     0.029 A 
ATOM      3  C   UNK d   1       0.865 -18.585 -38.310  0.00  0.00     0.135 A 
ATOM      4  N   UNK d   1       1.113 -19.649 -39.087  0.00  0.00    -0.271 NA
ATOM      5  C   UNK d   1       2.281 -20.310 -39.104  0.00  0.00     0.134 A 
ATOM      6  C   UNK d   1       3.284 -19.871 -38.276  0.00  0.00     0.059 A 
ATOM      7  C   UNK d   1       3.109 -18.778 -37.443  0.00  0.00     0.040 A 
ENDROOT
BRANCH   6   8
ATOM      8  C   UNK d   1       4.564 -20.560 -38.266  0.00  0.00     0.210 C 
ATOM      9  O   UNK d   1       4.614 -21.822 -38.246  0.00  0.00    -0.644 OA
ATOM     10  O   UNK d   1       5.759 -19.862 -38.275  0.00  0.00    -0.644 OA
ENDBRANCH   6   8
TORSDOF 2
ENDMDL
