MODEL 1
REMARK VINA RESULT:    -3.734      0.000      0.000
REMARK INTER + INTRA:          -3.986
REMARK INTER:                  -3.952
REMARK INTRA:                  -0.035
REMARK UNBOUND:                -0.035
REMARK  2 active torsions:
REMARK  status: ('A' for Active; 'I' for Inactive)
REMARK    1  A    between atoms: C_6  and  C_8 
REMARK    2  A    between atoms: C_20  and  N_21 
ROOT
ATOM      1 Br   UNK d   1       1.258 -15.864 -36.321  0.00  0.00    -0.050 Br
ATOM      2  C   UNK d   1       1.512 -17.535 -37.201  0.00  0.00     0.029 A 
ATOM      3  C   UNK d   1       0.479 -18.194 -37.833  0.00  0.00     0.135 A 
ATOM      4  N   UNK d   1       0.651 -19.373 -38.456  0.00  0.00    -0.271 NA
ATOM      5  C   UNK d   1       1.873 -19.927 -38.462  0.00  0.00     0.134 A 
ATOM      6  C   UNK d   1       2.956 -19.332 -37.854  0.00  0.00     0.059 A 
ATOM      7  C   UNK d   1       2.753 -18.131 -37.227  0.00  0.00     0.040 A 
ENDROOT
BRANCH   6   8
ATOM      8  C   UNK d   1       4.278 -19.946 -37.870  0.00  0.00     0.210 C 
ATOM      9  O   UNK d   1       5.300 -19.220 -37.802  0.00  0.00    -0.644 OA
ATOM     10  O   UNK d   1       4.360 -21.328 -37.959  0.00  0.00    -0.644 OA
ENDBRANCH   6   8
TORSDOF 2
ENDMDL
