/Users/jonathanwahrer/Desktop/Msc/3_Semester/Drug_Design_Praktikum/waehrer_HTS_screening/HTS_experiment/out/docking_results/vina_output/6y4q/0684_docked.pdbqt
 OpenBabel03232217483D

 10 10  0  0  0  0  0  0  0  0999 V2000
    1.2580  -15.8640  -36.3210 Br  0  0  0  0  0  0  0  0  0  0  0  0
    1.5120  -17.5350  -37.2010 C   0  0  0  0  0  0  0  0  0  0  0  0
    0.4790  -18.1940  -37.8330 C   0  0  0  0  0  3  0  0  0  0  0  0
    0.6510  -19.3730  -38.4560 N   0  0  0  0  0  0  0  0  0  0  0  0
    1.8730  -19.9270  -38.4620 C   0  0  0  0  0  3  0  0  0  0  0  0
    2.9560  -19.3320  -37.8540 C   0  0  0  0  0  0  0  0  0  0  0  0
    2.7530  -18.1310  -37.2270 C   0  0  0  0  0  3  0  0  0  0  0  0
    4.2780  -19.9460  -37.8700 C   0  0  0  0  0  0  0  0  0  0  0  0
    5.3000  -19.2200  -37.8020 O   0  0  0  0  0  1  0  0  0  0  0  0
    4.3600  -21.3280  -37.9590 O   0  0  0  0  0  0  0  0  0  0  0  0
  2  1  1  0  0  0  0
  3  2  2  0  0  0  0
  4  3  1  0  0  0  0
  5  4  2  0  0  0  0
  5  6  1  0  0  0  0
  6  7  2  0  0  0  0
  7  2  1  0  0  0  0
  8  6  1  0  0  0  0
  8  9  1  0  0  0  0
 10  8  2  0  0  0  0
M  END
>  <Pose>
1

>  <Score>
-3.734

$$$$
