MODEL 1
REMARK VINA RESULT:    -6.118      0.000      0.000
REMARK INTER + INTRA:          -8.678
REMARK INTER:                  -7.549
REMARK INTRA:                  -1.129
REMARK UNBOUND:                -1.129
REMARK  4 active torsions:
REMARK  status: ('A' for Active; 'I' for Inactive)
REMARK    1  A    between atoms: C_11  and  C_14 
REMARK    2  A    between atoms: C_11  and  C_21 
REMARK    3  A    between atoms: C_14  and  N_15 
REMARK    4  A    between atoms: C_21  and  N_22 
ROOT
ATOM      1 Br   UNK d   1       3.427 -13.351 -42.016  0.00  0.00    -0.048 Br
ATOM      2  C   UNK d   1       3.101 -13.148 -40.155  0.00  0.00     0.046 A 
ATOM      3  C   UNK d   1       2.348 -14.096 -39.489  0.00  0.00     0.100 A 
ATOM      4  C   UNK d   1       2.070 -14.004 -38.117  0.00  0.00     0.047 A 
ATOM      5  C   UNK d   1       2.560 -12.938 -37.406  0.00  0.00     0.037 A 
ATOM      6  C   UNK d   1       3.314 -11.986 -38.066  0.00  0.00     0.013 A 
ATOM      7  C   UNK d   1       3.588 -12.075 -39.414  0.00  0.00     0.041 A 
ATOM      8 Br   UNK d   1       4.010 -10.494 -37.111  0.00  0.00    -0.051 Br
ATOM      9  C   UNK d   1       1.259 -15.023 -37.462  0.00  0.00     0.176 C 
ATOM     10  O   UNK d   1       0.690 -14.668 -36.393  0.00  0.00    -0.291 OA
ATOM     11  C   UNK d   1       1.107 -16.370 -37.999  0.00  0.00     0.095 C 
ATOM     12  C   UNK d   1       1.786 -16.425 -39.394  0.00  0.00     0.197 C 
ATOM     13  O   UNK d   1       1.790 -15.221 -40.070  0.00  0.00    -0.347 OA
ENDROOT
BRANCH  11  14
ATOM     14  C   UNK d   1       1.723 -17.471 -37.265  0.00  0.00     0.256 C 
BRANCH  14  15
ATOM     15  N   UNK d   1       2.470 -18.513 -37.798  0.00  0.00    -0.070 N 
ATOM     16  C   UNK d   1       1.835 -19.707 -38.263  0.00  0.00     0.235 C 
ATOM     17  C   UNK d   1       2.801 -20.326 -39.306  0.00  0.00     0.028 C 
ATOM     18  C   UNK d   1       3.944 -20.898 -38.493  0.00  0.00     0.003 C 
ATOM     19  C   UNK d   1       3.985 -20.319 -37.096  0.00  0.00     0.028 C 
ATOM     20  C   UNK d   1       3.704 -18.831 -37.095  0.00  0.00     0.235 C 
ATOM     21  H   UNK d   1       2.851 -18.097 -38.726  0.00  0.00     0.279 HD
ENDBRANCH  14  15
ENDBRANCH  11  14
BRANCH  11  22
ATOM     22  C   UNK d   1      -0.379 -16.636 -38.176  0.00  0.00     0.256 C 
BRANCH  22  23
ATOM     23  N   UNK d   1      -0.908 -17.553 -37.196  0.00  0.00    -0.070 N 
ATOM     24  C   UNK d   1      -1.692 -18.557 -37.901  0.00  0.00     0.235 C 
ATOM     25  C   UNK d   1      -2.708 -17.872 -38.753  0.00  0.00     0.028 C 
ATOM     26  C   UNK d   1      -3.575 -16.897 -38.044  0.00  0.00     0.003 C 
ATOM     27  C   UNK d   1      -2.917 -16.133 -36.947  0.00  0.00     0.028 C 
ATOM     28  C   UNK d   1      -1.846 -16.954 -36.265  0.00  0.00     0.235 C 
ATOM     29  H   UNK d   1      -0.156 -17.976 -36.624  0.00  0.00     0.279 HD
ENDBRANCH  22  23
ENDBRANCH  11  22
TORSDOF 4
ENDMDL
