/Users/jonathanwahrer/Desktop/Msc/3_Semester/Drug_Design_Praktikum/waehrer_HTS_screening/HTS_experiment/out/docking_results/vina_output/6y4q/0692_docked.pdbqt
 OpenBabel03232217483D

 29 32  0  0  0  0  0  0  0  0999 V2000
    3.4270  -13.3510  -42.0160 Br  0  0  0  0  0  0  0  0  0  0  0  0
    3.1010  -13.1480  -40.1550 C   0  0  0  0  0  0  0  0  0  0  0  0
    2.3480  -14.0960  -39.4890 C   0  0  0  0  0  0  0  0  0  0  0  0
    2.0700  -14.0040  -38.1170 C   0  0  0  0  0  0  0  0  0  0  0  0
    2.5600  -12.9380  -37.4060 C   0  0  0  0  0  3  0  0  0  0  0  0
    3.3140  -11.9860  -38.0660 C   0  0  0  0  0  0  0  0  0  0  0  0
    3.5880  -12.0750  -39.4140 C   0  0  0  0  0  3  0  0  0  0  0  0
    4.0100  -10.4940  -37.1110 Br  0  0  0  0  0  0  0  0  0  0  0  0
    1.2590  -15.0230  -37.4620 C   0  0  0  0  0  0  0  0  0  0  0  0
    0.6900  -14.6680  -36.3930 O   0  0  0  0  0  0  0  0  0  0  0  0
    1.1070  -16.3700  -37.9990 C   0  0  0  0  0  0  0  0  0  0  0  0
    1.7860  -16.4250  -39.3940 C   0  0  0  0  0  2  0  0  0  0  0  0
    1.7900  -15.2210  -40.0700 O   0  0  0  0  0  0  0  0  0  0  0  0
    1.7230  -17.4710  -37.2650 C   0  0  0  0  0  2  0  0  0  0  0  0
    2.4700  -18.5130  -37.7980 N   0  0  0  0  0  4  0  0  0  0  0  0
    1.8350  -19.7070  -38.2630 C   0  0  0  0  0  2  0  0  0  0  0  0
    2.8010  -20.3260  -39.3060 C   0  0  0  0  0  2  0  0  0  0  0  0
    3.9440  -20.8980  -38.4930 C   0  0  0  0  0  2  0  0  0  0  0  0
    3.9850  -20.3190  -37.0960 C   0  0  0  0  0  2  0  0  0  0  0  0
    3.7040  -18.8310  -37.0950 C   0  0  0  0  0  2  0  0  0  0  0  0
    2.8510  -18.0970  -38.7260 H   0  0  0  0  0  0  0  0  0  0  0  0
   -0.3790  -16.6360  -38.1760 C   0  0  0  0  0  2  0  0  0  0  0  0
   -0.9080  -17.5530  -37.1960 N   0  0  0  0  0  4  0  0  0  0  0  0
   -1.6920  -18.5570  -37.9010 C   0  0  0  0  0  2  0  0  0  0  0  0
   -2.7080  -17.8720  -38.7530 C   0  0  0  0  0  2  0  0  0  0  0  0
   -3.5750  -16.8970  -38.0440 C   0  0  0  0  0  2  0  0  0  0  0  0
   -2.9170  -16.1330  -36.9470 C   0  0  0  0  0  2  0  0  0  0  0  0
   -1.8460  -16.9540  -36.2650 C   0  0  0  0  0  2  0  0  0  0  0  0
   -0.1560  -17.9760  -36.6240 H   0  0  0  0  0  0  0  0  0  0  0  0
  1  2  1  0  0  0  0
  2  3  2  0  0  0  0
  2  7  1  0  0  0  0
  3  4  1  0  0  0  0
  4  9  1  0  0  0  0
  4  5  2  0  0  0  0
  6  5  1  0  0  0  0
  6  8  1  0  0  0  0
  7  6  2  0  0  0  0
  9 10  2  0  0  0  0
 11  9  1  0  0  0  0
 11 14  1  0  0  0  0
 12 11  1  0  0  0  0
 13  3  1  0  0  0  0
 13 12  1  0  0  0  0
 15 14  1  0  0  0  0
 15 20  1  0  0  0  0
 16 15  1  0  0  0  0
 17 18  1  0  0  0  0
 17 16  1  0  0  0  0
 18 19  1  0  0  0  0
 19 20  1  0  0  0  0
 21 15  1  0  0  0  0
 22 11  1  0  0  0  0
 22 23  1  0  0  0  0
 23 29  1  0  0  0  0
 23 28  1  0  0  0  0
 24 23  1  0  0  0  0
 25 26  1  0  0  0  0
 25 24  1  0  0  0  0
 26 27  1  0  0  0  0
 27 28  1  0  0  0  0
M  END
>  <Pose>
1

>  <Score>
-6.118

$$$$
