MODEL 1
REMARK VINA RESULT:    -5.585      0.000      0.000
REMARK INTER + INTRA:          -7.060
REMARK INTER:                  -6.564
REMARK INTRA:                  -0.496
REMARK UNBOUND:                -0.496
REMARK  3 active torsions:
REMARK  status: ('A' for Active; 'I' for Inactive)
REMARK    1  A    between atoms: C_6  and  C_8 
REMARK    2  A    between atoms: C_8  and  N_9 
REMARK    3  A    between atoms: N_9  and  C_10 
ROOT
ATOM      1  C   UNK d   1       0.763 -14.254 -36.299  0.00  0.00     0.160 C 
ENDROOT
BRANCH   1   2
ATOM      2  C   UNK d   1       1.666 -13.648 -37.311  0.00  0.00    -0.036 A 
ATOM      3  C   UNK d   1       1.841 -14.156 -38.577  0.00  0.00     0.048 A 
ATOM      4  C   UNK d   1       2.699 -13.568 -39.509  0.00  0.00     0.106 A 
ATOM      5  C   UNK d   1       3.409 -12.438 -39.185  0.00  0.00     0.122 A 
ATOM      6  O   UNK d   1       3.042 -13.883 -40.825  0.00  0.00    -0.323 OA
ATOM      7  C   UNK d   1       3.241 -11.922 -37.918  0.00  0.00     0.047 A 
ATOM      8  O   UNK d   1       4.174 -12.082 -40.302  0.00  0.00    -0.322 OA
ATOM      9 Br   UNK d   1       4.236 -10.342 -37.465  0.00  0.00    -0.048 Br
ATOM     10  C   UNK d   1       2.394 -12.498 -36.992  0.00  0.00     0.031 A 
ATOM     11  C   UNK d   1       3.528 -12.678 -41.436  0.00  0.00     0.352 C 
ENDBRANCH   1   2
BRANCH   1  12
ATOM     12  N   UNK d   1       1.235 -15.576 -35.966  0.00  0.00    -0.367 N 
ATOM     13  H   UNK d   1       2.106 -15.728 -35.430  0.00  0.00     0.161 HD
BRANCH  12  14
ATOM     14  C   UNK d   1       0.458 -16.708 -36.400  0.00  0.00     0.172 A 
ATOM     15  N   UNK d   1      -0.805 -16.879 -35.989  0.00  0.00    -0.239 NA
ATOM     16  C   UNK d   1      -1.523 -17.940 -36.400  0.00  0.00     0.136 A 
ATOM     17  C   UNK d   1      -0.981 -18.890 -37.260  0.00  0.00     0.119 A 
ATOM     18  N   UNK d   1       0.276 -18.713 -37.665  0.00  0.00    -0.294 N 
ATOM     19  C   UNK d   1       1.004 -17.643 -37.252  0.00  0.00     0.203 A 
ATOM     20  C   UNK d   1       1.091 -19.414 -38.472  0.00  0.00     0.240 A 
ATOM     21  N   UNK d   1       2.219 -17.733 -37.817  0.00  0.00    -0.126 NA
ATOM     22  N   UNK d   1       2.283 -18.818 -38.570  0.00  0.00    -0.143 NA
ENDBRANCH  12  14
ENDBRANCH   1  12
TORSDOF 3
ENDMDL
