MODEL 1
REMARK VINA RESULT:    -5.905      0.000      0.000
REMARK INTER + INTRA:          -8.556
REMARK INTER:                  -7.459
REMARK INTRA:                  -1.098
REMARK UNBOUND:                -1.098
REMARK  5 active torsions:
REMARK  status: ('A' for Active; 'I' for Inactive)
REMARK    1  A    between atoms: C_9  and  O_25 
REMARK    2  A    between atoms: C_10  and  C_13 
REMARK    3  A    between atoms: C_10  and  C_19 
REMARK    4  A    between atoms: C_13  and  N_14 
REMARK    5  A    between atoms: C_19  and  N_20 
ROOT
ATOM      1 Br   UNK d   1       2.709 -13.052 -39.809  0.00  0.00    -0.048 Br
ATOM      2  C   UNK d   1       1.790 -13.596 -38.239  0.00  0.00     0.045 A 
ATOM      3  C   UNK d   1       1.705 -14.961 -37.935  0.00  0.00     0.095 A 
ATOM      4  C   UNK d   1       1.066 -15.410 -36.819  0.00  0.00     0.007 A 
ATOM      5  C   UNK d   1       0.487 -14.483 -35.970  0.00  0.00     0.019 A 
ATOM      6  C   UNK d   1       0.567 -13.126 -36.264  0.00  0.00    -0.060 A 
ATOM      7  C   UNK d   1       1.214 -12.676 -37.391  0.00  0.00     0.028 A 
ATOM      8  C   UNK d   1      -0.043 -12.097 -35.375  0.00  0.00     0.048 C 
ATOM      9  C   UNK d   1       1.025 -16.862 -36.495  0.00  0.00     0.168 C 
ATOM     10  C   UNK d   1       1.031 -17.803 -37.646  0.00  0.00     0.060 C 
ATOM     11  C   UNK d   1       1.402 -17.074 -38.960  0.00  0.00     0.191 C 
ATOM     12  O   UNK d   1       2.250 -15.960 -38.728  0.00  0.00    -0.348 OA
ENDROOT
BRANCH  10  13
ATOM     13  C   UNK d   1      -0.343 -18.366 -37.957  0.00  0.00     0.251 C 
BRANCH  13  14
ATOM     14  N   UNK d   1      -1.398 -17.899 -37.084  0.00  0.00    -0.070 N 
ATOM     15  C   UNK d   1      -2.275 -19.017 -36.736  0.00  0.00     0.235 C 
ATOM     16  C   UNK d   1      -3.598 -18.455 -36.367  0.00  0.00     0.029 C 
ATOM     17  C   UNK d   1      -3.499 -17.015 -36.740  0.00  0.00     0.029 C 
ATOM     18  C   UNK d   1      -2.356 -17.042 -37.763  0.00  0.00     0.235 C 
ATOM     19  H   UNK d   1      -1.087 -17.387 -36.246  0.00  0.00     0.279 HD
ENDBRANCH  13  14
ENDBRANCH  10  13
BRANCH  10  20
ATOM     20  C   UNK d   1       2.074 -18.848 -37.522  0.00  0.00     0.251 C 
BRANCH  20  21
ATOM     21  N   UNK d   1       3.118 -19.153 -38.355  0.00  0.00    -0.070 N 
ATOM     22  C   UNK d   1       4.403 -19.029 -37.631  0.00  0.00     0.235 C 
ATOM     23  C   UNK d   1       5.300 -20.069 -38.180  0.00  0.00     0.029 C 
ATOM     24  C   UNK d   1       4.431 -21.125 -38.746  0.00  0.00     0.029 C 
ATOM     25  C   UNK d   1       3.126 -20.384 -39.031  0.00  0.00     0.235 C 
ATOM     26  H   UNK d   1       3.282 -18.347 -39.105  0.00  0.00     0.279 HD
ENDBRANCH  20  21
ENDBRANCH  10  20
BRANCH   9  27
ATOM     27  O   UNK d   1       2.148 -17.012 -35.633  0.00  0.00    -0.390 OA
ATOM     28  H   UNK d   1       1.869 -17.200 -34.721  0.00  0.00     0.210 HD
ENDBRANCH   9  27
TORSDOF 5
ENDMDL
