/Users/jonathanwahrer/Desktop/Msc/3_Semester/Drug_Design_Praktikum/waehrer_HTS_screening/HTS_experiment/out/docking_results/vina_output/6y4q/0696_docked.pdbqt
 OpenBabel03232217493D

 28 31  0  0  1  0  0  0  0  0999 V2000
    2.7090  -13.0520  -39.8090 Br  0  0  0  0  0  0  0  0  0  0  0  0
    1.7900  -13.5960  -38.2390 C   0  0  0  0  0  0  0  0  0  0  0  0
    1.7050  -14.9610  -37.9350 C   0  0  0  0  0  0  0  0  0  0  0  0
    1.0660  -15.4100  -36.8190 C   0  0  0  0  0  0  0  0  0  0  0  0
    0.4870  -14.4830  -35.9700 C   0  0  0  0  0  3  0  0  0  0  0  0
    0.5670  -13.1260  -36.2640 C   0  0  0  0  0  0  0  0  0  0  0  0
    1.2140  -12.6760  -37.3910 C   0  0  0  0  0  3  0  0  0  0  0  0
   -0.0430  -12.0970  -35.3750 C   0  0  0  0  0  1  0  0  0  0  0  0
    1.0250  -16.8620  -36.4950 C   0  0  1  0  0  3  0  0  0  0  0  0
    1.0310  -17.8030  -37.6460 C   0  0  0  0  0  0  0  0  0  0  0  0
    1.4020  -17.0740  -38.9600 C   0  0  0  0  0  2  0  0  0  0  0  0
    2.2500  -15.9600  -38.7280 O   0  0  0  0  0  0  0  0  0  0  0  0
   -0.3430  -18.3660  -37.9570 C   0  0  0  0  0  2  0  0  0  0  0  0
   -1.3980  -17.8990  -37.0840 N   0  0  0  0  0  4  0  0  0  0  0  0
   -2.2750  -19.0170  -36.7360 C   0  0  0  0  0  2  0  0  0  0  0  0
   -3.5980  -18.4550  -36.3670 C   0  0  0  0  0  2  0  0  0  0  0  0
   -3.4990  -17.0150  -36.7400 C   0  0  0  0  0  2  0  0  0  0  0  0
   -2.3560  -17.0420  -37.7630 C   0  0  0  0  0  2  0  0  0  0  0  0
   -1.0870  -17.3870  -36.2460 H   0  0  0  0  0  0  0  0  0  0  0  0
    2.0740  -18.8480  -37.5220 C   0  0  0  0  0  2  0  0  0  0  0  0
    3.1180  -19.1530  -38.3550 N   0  0  0  0  0  4  0  0  0  0  0  0
    4.4030  -19.0290  -37.6310 C   0  0  0  0  0  2  0  0  0  0  0  0
    5.3000  -20.0690  -38.1800 C   0  0  0  0  0  2  0  0  0  0  0  0
    4.4310  -21.1250  -38.7460 C   0  0  0  0  0  2  0  0  0  0  0  0
    3.1260  -20.3840  -39.0310 C   0  0  0  0  0  2  0  0  0  0  0  0
    3.2820  -18.3470  -39.1050 H   0  0  0  0  0  0  0  0  0  0  0  0
    2.1480  -17.0120  -35.6330 O   0  0  0  0  0  0  0  0  0  0  0  0
    1.8690  -17.2000  -34.7210 H   0  0  0  0  0  0  0  0  0  0  0  0
  1  2  1  0  0  0  0
  2  3  2  0  0  0  0
  2  7  1  0  0  0  0
  3  4  1  0  0  0  0
  4  9  1  0  0  0  0
  4  5  2  0  0  0  0
  6  5  1  0  0  0  0
  6  8  1  0  0  0  0
  7  6  2  0  0  0  0
  9 27  1  1  0  0  0
 10 20  1  0  0  0  0
 10  9  1  0  0  0  0
 11 12  1  0  0  0  0
 11 10  1  0  0  0  0
 12  3  1  0  0  0  0
 13 10  1  0  0  0  0
 13 14  1  0  0  0  0
 14 15  1  0  0  0  0
 14 19  1  0  0  0  0
 15 16  1  0  0  0  0
 17 16  1  0  0  0  0
 18 14  1  0  0  0  0
 18 17  1  0  0  0  0
 21 22  1  0  0  0  0
 21 20  1  0  0  0  0
 23 22  1  0  0  0  0
 24 23  1  0  0  0  0
 25 24  1  0  0  0  0
 25 21  1  0  0  0  0
 26 21  1  0  0  0  0
 27 28  1  0  0  0  0
M  END
>  <Pose>
1

>  <Score>
-5.905

$$$$
