/Users/jonathanwahrer/Desktop/Msc/3_Semester/Drug_Design_Praktikum/waehrer_HTS_screening/HTS_experiment/out/docking_results/vina_output/6y4q/0699_docked.pdbqt
 OpenBabel03232217493D

 32 35  0  0  1  0  0  0  0  0999 V2000
    0.1950  -16.9030  -36.4850 C   0  0  2  0  0  3  0  0  0  0  0  0
   -0.0150  -15.4630  -36.8820 C   0  0  0  0  0  2  0  0  0  0  0  0
    0.6250  -15.1500  -38.1040 O   0  0  0  0  0  0  0  0  0  0  0  0
    1.5460  -14.1040  -38.1020 C   0  0  0  0  0  0  0  0  0  0  0  0
    2.2720  -13.7710  -39.2290 C   0  0  0  0  0  0  0  0  0  0  0  0
    1.9810  -14.7880  -40.8100 Br  0  0  0  0  0  0  0  0  0  0  0  0
    3.1890  -12.7390  -39.2480 C   0  0  0  0  0  0  0  0  0  0  0  0
    3.4200  -11.9850  -38.1170 C   0  0  0  0  0  0  0  0  0  0  0  0
    3.9140  -12.4100  -40.3810 C   0  0  0  0  0  3  0  0  0  0  0  0
    2.7000  -12.3100  -36.9860 C   0  0  0  0  0  3  0  0  0  0  0  0
    4.3400  -10.9500  -38.1370 C   0  0  0  0  0  3  0  0  0  0  0  0
    1.7840  -13.3440  -36.9750 C   0  0  0  0  0  3  0  0  0  0  0  0
    5.0610  -10.6230  -39.2670 C   0  0  0  0  0  3  0  0  0  0  0  0
    4.8310  -11.3780  -40.4000 C   0  0  0  0  0  3  0  0  0  0  0  0
   -0.6370  -17.3090  -35.4740 O   0  0  0  0  0  0  0  0  0  0  0  0
   -0.3540  -17.0530  -34.5770 H   0  0  0  0  0  0  0  0  0  0  0  0
    1.6290  -17.1660  -36.1810 C   0  0  0  0  0  2  0  0  0  0  0  0
    2.3680  -17.7330  -37.2880 N   0  0  0  0  0  4  0  0  0  0  0  0
    1.4390  -18.5650  -38.0320 C   0  0  0  0  0  2  0  0  0  0  0  0
    2.1540  -19.4260  -39.0830 C   0  0  0  0  0  2  0  0  0  0  0  0
    3.1310  -20.2240  -38.4330 N   0  0  0  0  0  0  0  0  0  0  0  0
    3.2540  -19.9900  -36.9790 C   0  0  0  0  0  2  0  0  0  0  0  0
    3.9440  -21.1770  -39.0580 C   0  0  0  0  0  0  0  0  0  0  0  0
    3.4630  -18.5300  -36.7540 C   0  0  0  0  0  2  0  0  0  0  0  0
    4.7720  -21.7830  -38.2240 O   0  0  0  0  0  0  0  0  0  0  0  0
    2.7510  -17.0220  -37.9450 H   0  0  0  0  0  0  0  0  0  0  0  0
    4.0470  -21.6110  -40.4140 C   0  0  0  0  0  0  0  0  0  0  0  0
    3.0180  -21.8300  -41.2840 C   0  0  0  0  0  3  0  0  0  0  0  0
    3.1880  -22.2550  -42.5950 C   0  0  0  0  0  3  0  0  0  0  0  0
    4.4360  -22.4770  -43.0820 C   0  0  0  0  0  3  0  0  0  0  0  0
    5.4980  -22.2650  -42.2280 C   0  0  0  0  0  3  0  0  0  0  0  0
    5.3300  -21.8460  -40.9320 C   0  0  0  0  0  3  0  0  0  0  0  0
  1  2  1  1  0  0  0
  1 17  1  0  0  0  0
  1 15  1  0  0  0  0
  3  4  1  0  0  0  0
  3  2  1  0  0  0  0
  4 12  1  0  0  0  0
  5  4  2  0  0  0  0
  6  5  1  0  0  0  0
  7  5  1  0  0  0  0
  7  8  1  0  0  0  0
  8 10  1  0  0  0  0
  9  7  2  0  0  0  0
 10 12  2  0  0  0  0
 11  8  2  0  0  0  0
 13 11  1  0  0  0  0
 14  9  1  0  0  0  0
 14 13  2  0  0  0  0
 15 16  1  0  0  0  0
 18 24  1  0  0  0  0
 18 17  1  0  0  0  0
 19 18  1  0  0  0  0
 20 21  1  0  0  0  0
 20 19  1  0  0  0  0
 21 22  1  0  0  0  0
 22 24  1  0  0  0  0
 23 21  1  0  0  0  0
 23 25  2  0  0  0  0
 26 18  1  0  0  0  0
 27 23  1  0  0  0  0
 28 27  2  0  0  0  0
 29 28  1  0  0  0  0
 30 29  2  0  0  0  0
 30 31  1  0  0  0  0
 31 32  2  0  0  0  0
 32 27  1  0  0  0  0
M  END
>  <Pose>
1

>  <Score>
-7.528

$$$$
