MODEL 1
REMARK VINA RESULT:    -7.528      0.000      0.000
REMARK INTER + INTRA:         -11.269
REMARK INTER:                 -10.389
REMARK INTRA:                  -0.880
REMARK UNBOUND:                -0.880
REMARK  7 active torsions:
REMARK  status: ('A' for Active; 'I' for Inactive)
REMARK    1  A    between atoms: C_7  and  O_8 
REMARK    2  A    between atoms: O_8  and  C_9 
REMARK    3  A    between atoms: C_9  and  C_10 
REMARK    4  A    between atoms: C_10  and  O_11 
REMARK    5  A    between atoms: C_10  and  C_12 
REMARK    6  A    between atoms: C_12  and  N_13 
REMARK       I    between atoms: N_16  and  C_19 
REMARK    7  A    between atoms: C_19  and  C_21 
ROOT
ATOM      1  C   UNK d   1       0.195 -16.903 -36.485  0.00  0.00     0.168 C 
ENDROOT
BRANCH   1   2
ATOM      2  C   UNK d   1      -0.015 -15.463 -36.882  0.00  0.00     0.209 C 
BRANCH   2   3
ATOM      3  O   UNK d   1       0.625 -15.150 -38.104  0.00  0.00    -0.347 OA
BRANCH   3   4
ATOM      4  C   UNK d   1       1.546 -14.104 -38.102  0.00  0.00     0.087 A 
ATOM      5  C   UNK d   1       2.272 -13.771 -39.229  0.00  0.00     0.055 A 
ATOM      6 Br   UNK d   1       1.981 -14.788 -40.810  0.00  0.00    -0.047 Br
ATOM      7  C   UNK d   1       3.189 -12.739 -39.248  0.00  0.00    -0.006 A 
ATOM      8  C   UNK d   1       3.420 -11.985 -38.117  0.00  0.00    -0.024 A 
ATOM      9  C   UNK d   1       3.914 -12.410 -40.381  0.00  0.00     0.014 A 
ATOM     10  C   UNK d   1       2.700 -12.310 -36.986  0.00  0.00     0.015 A 
ATOM     11  C   UNK d   1       4.340 -10.950 -38.137  0.00  0.00     0.012 A 
ATOM     12  C   UNK d   1       1.784 -13.344 -36.975  0.00  0.00     0.039 A 
ATOM     13  C   UNK d   1       5.061 -10.623 -39.267  0.00  0.00     0.001 A 
ATOM     14  C   UNK d   1       4.831 -11.378 -40.400  0.00  0.00     0.001 A 
ENDBRANCH   3   4
ENDBRANCH   2   3
ENDBRANCH   1   2
BRANCH   1  15
ATOM     15  O   UNK d   1      -0.637 -17.309 -35.474  0.00  0.00    -0.392 OA
ATOM     16  H   UNK d   1      -0.354 -17.053 -34.577  0.00  0.00     0.210 HD
ENDBRANCH   1  15
BRANCH   1  17
ATOM     17  C   UNK d   1       1.629 -17.166 -36.181  0.00  0.00     0.268 C 
BRANCH  17  18
ATOM     18  N   UNK d   1       2.368 -17.733 -37.288  0.00  0.00    -0.066 N 
ATOM     19  C   UNK d   1       1.439 -18.565 -38.032  0.00  0.00     0.254 C 
ATOM     20  C   UNK d   1       2.154 -19.426 -39.083  0.00  0.00     0.152 C 
ATOM     21  N   UNK d   1       3.131 -20.224 -38.433  0.00  0.00    -0.356 N 
ATOM     22  C   UNK d   1       3.254 -19.990 -36.979  0.00  0.00     0.152 C 
ATOM     23  C   UNK d   1       3.944 -21.177 -39.058  0.00  0.00     0.187 C 
ATOM     24  C   UNK d   1       3.463 -18.530 -36.754  0.00  0.00     0.254 C 
ATOM     25  O   UNK d   1       4.772 -21.783 -38.224  0.00  0.00    -0.171 OA
ATOM     26  H   UNK d   1       2.751 -17.022 -37.945  0.00  0.00     0.280 HD
BRANCH  23  27
ATOM     27  C   UNK d   1       4.047 -21.611 -40.414  0.00  0.00     0.018 A 
ATOM     28  C   UNK d   1       3.018 -21.830 -41.284  0.00  0.00     0.016 A 
ATOM     29  C   UNK d   1       3.188 -22.255 -42.595  0.00  0.00     0.001 A 
ATOM     30  C   UNK d   1       4.436 -22.477 -43.082  0.00  0.00     0.000 A 
ATOM     31  C   UNK d   1       5.498 -22.265 -42.228  0.00  0.00     0.001 A 
ATOM     32  C   UNK d   1       5.330 -21.846 -40.932  0.00  0.00     0.016 A 
ENDBRANCH  23  27
ENDBRANCH  17  18
ENDBRANCH   1  17
TORSDOF 7
ENDMDL
