MODEL 1
REMARK VINA RESULT:    -6.108      0.000      0.000
REMARK INTER + INTRA:          -7.970
REMARK INTER:                  -7.180
REMARK INTRA:                  -0.790
REMARK UNBOUND:                -0.790
REMARK  3 active torsions:
REMARK  status: ('A' for Active; 'I' for Inactive)
REMARK    1  A    between atoms: N_3  and  C_15 
REMARK    2  A    between atoms: C_15  and  C_16 
REMARK    3  A    between atoms: C_16  and  N_17 
ROOT
ATOM      1  C   UNK d   1       0.096 -17.523 -38.781  0.00  0.00     0.152 C 
ENDROOT
BRANCH   1   2
ATOM      2  N   UNK d   1       0.638 -16.344 -38.193  0.00  0.00    -0.316 N 
ATOM      3  C   UNK d   1       0.435 -16.005 -36.907  0.00  0.00     0.180 A 
ATOM      4 Br   UNK d   1      -0.581 -16.985 -35.592  0.00  0.00    -0.008 Br
ATOM      5  N   UNK d   1       1.081 -14.842 -36.708  0.00  0.00    -0.203 NA
ATOM      6  C   UNK d   1       1.681 -14.447 -37.839  0.00  0.00     0.169 A 
ATOM      7  C   UNK d   1       1.396 -15.410 -38.788  0.00  0.00     0.152 A 
ATOM      8  N   UNK d   1       2.435 -13.388 -38.196  0.00  0.00    -0.286 N 
ATOM      9  C   UNK d   1       1.915 -15.204 -40.049  0.00  0.00     0.282 A 
ATOM     10  N   UNK d   1       2.667 -14.145 -40.394  0.00  0.00    -0.269 N 
ATOM     11  O   UNK d   1       1.669 -16.061 -40.923  0.00  0.00    -0.265 OA
ATOM     12  C   UNK d   1       2.925 -13.227 -39.445  0.00  0.00     0.332 A 
ATOM     13  C   UNK d   1       3.203 -13.949 -41.728  0.00  0.00     0.164 C 
ATOM     14  O   UNK d   1       3.630 -12.216 -39.739  0.00  0.00    -0.246 OA
ATOM     15  C   UNK d   1       2.729 -12.384 -37.193  0.00  0.00     0.163 C 
ENDBRANCH   1   2
BRANCH   1  16
ATOM     16  C   UNK d   1       0.565 -18.827 -38.247  0.00  0.00     0.152 C 
BRANCH  16  17
ATOM     17  N   UNK d   1       1.304 -19.670 -39.125  0.00  0.00    -0.316 N 
ATOM     18  C   UNK d   1       2.648 -19.856 -39.093  0.00  0.00     0.152 A 
ATOM     19  C   UNK d   1       3.011 -20.726 -40.090  0.00  0.00     0.169 A 
ATOM     20  C   UNK d   1       3.673 -19.366 -38.294  0.00  0.00     0.282 A 
ATOM     21  N   UNK d   1       1.863 -21.050 -40.709  0.00  0.00    -0.203 NA
ATOM     22  N   UNK d   1       4.296 -21.111 -40.312  0.00  0.00    -0.286 N 
ATOM     23  C   UNK d   1       0.835 -20.415 -40.130  0.00  0.00     0.180 A 
ATOM     24 Br   UNK d   1      -1.028 -20.514 -40.619  0.00  0.00    -0.008 Br
ATOM     25  C   UNK d   1       5.232 -20.594 -39.496  0.00  0.00     0.332 A 
ATOM     26  C   UNK d   1       4.644 -22.038 -41.380  0.00  0.00     0.163 C 
ATOM     27  O   UNK d   1       6.428 -20.943 -39.691  0.00  0.00    -0.246 OA
ATOM     28  N   UNK d   1       4.935 -19.738 -38.503  0.00  0.00    -0.269 N 
ATOM     29  C   UNK d   1       5.980 -19.209 -37.652  0.00  0.00     0.164 C 
ATOM     30  O   UNK d   1       3.328 -18.568 -37.382  0.00  0.00    -0.265 OA
ENDBRANCH  16  17
ENDBRANCH   1  16
TORSDOF 3
ENDMDL
