/Users/jonathanwahrer/Desktop/Msc/3_Semester/Drug_Design_Praktikum/waehrer_HTS_screening/HTS_experiment/out/docking_results/vina_output/6y4q/0708_docked.pdbqt
 OpenBabel03232217503D

 31 34  0  0  0  0  0  0  0  0999 V2000
    1.6300  -16.3710  -37.3770 C   0  0  0  0  0  2  0  0  0  0  0  0
    0.9380  -17.6990  -37.2690 C   0  0  0  0  0  2  0  0  0  0  0  0
    1.3930  -18.6780  -38.2340 N   0  0  0  0  0  0  0  0  0  0  0  0
    0.6840  -19.0810  -39.3330 C   0  0  0  0  0  0  0  0  0  0  0  0
   -1.0310  -18.3790  -39.7690 Br  0  0  0  0  0  0  0  0  0  0  0  0
    1.3720  -20.0090  -40.0140 N   0  0  0  0  0  0  0  0  0  0  0  0
    2.5430  -20.2370  -39.3820 C   0  0  0  0  0  0  0  0  0  0  0  0
    2.5320  -19.3980  -38.2790 C   0  0  0  0  0  0  0  0  0  0  0  0
    3.5480  -21.0770  -39.6830 N   0  0  0  0  0  0  0  0  0  0  0  0
    3.6100  -19.4360  -37.4490 C   0  0  0  0  0  0  0  0  0  0  0  0
    4.6270  -20.2880  -37.7560 N   0  0  0  0  0  0  0  0  0  0  0  0
    3.6520  -18.7040  -36.4380 O   0  0  0  0  0  0  0  0  0  0  0  0
    4.5970  -21.0850  -38.8400 C   0  0  0  0  0  0  0  0  0  0  0  0
    5.4310  -20.2830  -37.0940 H   0  0  0  0  0  0  0  0  0  0  0  0
    5.5780  -21.8660  -39.0830 O   0  0  0  0  0  0  0  0  0  0  0  0
    3.5520  -21.9480  -40.8380 C   0  0  0  0  0  1  0  0  0  0  0  0
    0.8650  -15.3270  -38.1390 C   0  0  0  0  0  2  0  0  0  0  0  0
    1.7880  -14.4450  -38.8400 N   0  0  0  0  0  0  0  0  0  0  0  0
    2.4320  -13.3550  -38.3660 C   0  0  0  0  0  0  0  0  0  0  0  0
    3.2170  -12.7990  -39.3490 C   0  0  0  0  0  0  0  0  0  0  0  0
    2.4280  -12.7530  -37.1350 C   0  0  0  0  0  0  0  0  0  0  0  0
    3.0370  -13.5730  -40.4360 N   0  0  0  0  0  0  0  0  0  0  0  0
    3.9750  -11.7020  -39.1680 N   0  0  0  0  0  0  0  0  0  0  0  0
    2.1740  -14.5630  -40.1200 C   0  0  0  0  0  0  0  0  0  0  0  0
    1.5580  -15.9530  -41.2760 Br  0  0  0  0  0  0  0  0  0  0  0  0
    3.9400  -11.1390  -37.9350 C   0  0  0  0  0  0  0  0  0  0  0  0
    4.7930  -11.1460  -40.2440 C   0  0  0  0  0  1  0  0  0  0  0  0
    4.6540  -10.1050  -37.7600 O   0  0  0  0  0  0  0  0  0  0  0  0
    3.1840  -11.6520  -36.9420 N   0  0  0  0  0  0  0  0  0  0  0  0
    3.1970  -11.1790  -36.0170 H   0  0  0  0  0  0  0  0  0  0  0  0
    1.7150  -13.2550  -36.2330 O   0  0  0  0  0  0  0  0  0  0  0  0
  1  2  1  0  0  0  0
  3  2  1  0  0  0  0
  4  3  1  0  0  0  0
  5  4  1  0  0  0  0
  6  7  1  0  0  0  0
  6  4  2  0  0  0  0
  7  8  2  0  0  0  0
  8  3  1  0  0  0  0
  8 10  1  0  0  0  0
  9  7  1  0  0  0  0
  9 13  1  0  0  0  0
 10 12  2  0  0  0  0
 11 10  1  0  0  0  0
 11 14  1  0  0  0  0
 13 11  1  0  0  0  0
 15 13  2  0  0  0  0
 16  9  1  0  0  0  0
 17  1  1  0  0  0  0
 18 19  1  0  0  0  0
 18 17  1  0  0  0  0
 19 21  1  0  0  0  0
 20 23  1  0  0  0  0
 20 19  2  0  0  0  0
 21 29  1  0  0  0  0
 21 31  2  0  0  0  0
 22 24  2  0  0  0  0
 22 20  1  0  0  0  0
 23 26  1  0  0  0  0
 24 18  1  0  0  0  0
 25 24  1  0  0  0  0
 26 28  2  0  0  0  0
 26 29  1  0  0  0  0
 27 23  1  0  0  0  0
 29 30  1  0  0  0  0
M  END
>  <Pose>
1

>  <Score>
-6.524

$$$$
