MODEL 1
REMARK VINA RESULT:    -6.524      0.000      0.000
REMARK INTER + INTRA:          -8.838
REMARK INTER:                  -8.050
REMARK INTRA:                  -0.788
REMARK UNBOUND:                -0.788
REMARK  4 active torsions:
REMARK  status: ('A' for Active; 'I' for Inactive)
REMARK    1  A    between atoms: N_3  and  C_14 
REMARK    2  A    between atoms: C_14  and  C_15 
REMARK    3  A    between atoms: C_15  and  C_16 
REMARK    4  A    between atoms: C_16  and  N_17 
ROOT
ATOM      1  C   UNK d   1       1.630 -16.371 -37.377  0.00  0.00     0.041 C 
ENDROOT
BRANCH   1   2
ATOM      2  C   UNK d   1       0.938 -17.699 -37.269  0.00  0.00     0.133 C 
BRANCH   2   3
ATOM      3  N   UNK d   1       1.393 -18.678 -38.234  0.00  0.00    -0.318 N 
ATOM      4  C   UNK d   1       0.684 -19.081 -39.333  0.00  0.00     0.180 A 
ATOM      5 Br   UNK d   1      -1.031 -18.379 -39.769  0.00  0.00    -0.008 Br
ATOM      6  N   UNK d   1       1.372 -20.009 -40.014  0.00  0.00    -0.203 NA
ATOM      7  C   UNK d   1       2.543 -20.237 -39.382  0.00  0.00     0.169 A 
ATOM      8  C   UNK d   1       2.532 -19.398 -38.279  0.00  0.00     0.152 A 
ATOM      9  N   UNK d   1       3.548 -21.077 -39.683  0.00  0.00    -0.286 N 
ATOM     10  C   UNK d   1       3.610 -19.436 -37.449  0.00  0.00     0.280 A 
ATOM     11  N   UNK d   1       4.627 -20.288 -37.756  0.00  0.00    -0.273 N 
ATOM     12  O   UNK d   1       3.652 -18.704 -36.438  0.00  0.00    -0.265 OA
ATOM     13  C   UNK d   1       4.597 -21.085 -38.840  0.00  0.00     0.330 A 
ATOM     14  H   UNK d   1       5.431 -20.283 -37.094  0.00  0.00     0.173 HD
ATOM     15  O   UNK d   1       5.578 -21.866 -39.083  0.00  0.00    -0.246 OA
ATOM     16  C   UNK d   1       3.552 -21.948 -40.838  0.00  0.00     0.163 C 
ENDBRANCH   2   3
ENDBRANCH   1   2
BRANCH   1  17
ATOM     17  C   UNK d   1       0.865 -15.327 -38.139  0.00  0.00     0.133 C 
BRANCH  17  18
ATOM     18  N   UNK d   1       1.788 -14.445 -38.840  0.00  0.00    -0.318 N 
ATOM     19  C   UNK d   1       2.432 -13.355 -38.366  0.00  0.00     0.152 A 
ATOM     20  C   UNK d   1       3.217 -12.799 -39.349  0.00  0.00     0.169 A 
ATOM     21  C   UNK d   1       2.428 -12.753 -37.135  0.00  0.00     0.280 A 
ATOM     22  N   UNK d   1       3.037 -13.573 -40.436  0.00  0.00    -0.203 NA
ATOM     23  N   UNK d   1       3.975 -11.702 -39.168  0.00  0.00    -0.286 N 
ATOM     24  C   UNK d   1       2.174 -14.563 -40.120  0.00  0.00     0.180 A 
ATOM     25 Br   UNK d   1       1.558 -15.953 -41.276  0.00  0.00    -0.008 Br
ATOM     26  C   UNK d   1       3.940 -11.139 -37.935  0.00  0.00     0.330 A 
ATOM     27  C   UNK d   1       4.793 -11.146 -40.244  0.00  0.00     0.163 C 
ATOM     28  O   UNK d   1       4.654 -10.105 -37.760  0.00  0.00    -0.246 OA
ATOM     29  N   UNK d   1       3.184 -11.652 -36.942  0.00  0.00    -0.273 N 
ATOM     30  H   UNK d   1       3.197 -11.179 -36.017  0.00  0.00     0.173 HD
ATOM     31  O   UNK d   1       1.715 -13.255 -36.233  0.00  0.00    -0.265 OA
ENDBRANCH  17  18
ENDBRANCH   1  17
TORSDOF 4
ENDMDL
