MODEL 1
REMARK VINA RESULT:    -6.041      0.000      0.000
REMARK INTER + INTRA:          -8.286
REMARK INTER:                  -7.100
REMARK INTRA:                  -1.186
REMARK UNBOUND:                -1.186
REMARK  3 active torsions:
REMARK  status: ('A' for Active; 'I' for Inactive)
REMARK    1  A    between atoms: N_3  and  C_14 
REMARK    2  A    between atoms: C_14  and  C_15 
REMARK    3  A    between atoms: C_15  and  N_16 
ROOT
ATOM      1  C   UNK d   1       0.436 -19.222 -38.427  0.00  0.00     0.152 C 
ENDROOT
BRANCH   1   2
ATOM      2  N   UNK d   1       1.584 -19.839 -38.998  0.00  0.00    -0.316 N 
ATOM      3  C   UNK d   1       1.573 -20.676 -40.063  0.00  0.00     0.180 A 
ATOM      4 Br   UNK d   1      -0.025 -21.153 -40.993  0.00  0.00    -0.008 Br
ATOM      5  N   UNK d   1       2.826 -21.080 -40.322  0.00  0.00    -0.203 NA
ATOM      6  C   UNK d   1       3.683 -20.521 -39.437  0.00  0.00     0.169 A 
ATOM      7  C   UNK d   1       2.878 -19.741 -38.612  0.00  0.00     0.152 A 
ATOM      8  N   UNK d   1       5.012 -20.591 -39.246  0.00  0.00    -0.286 N 
ATOM      9  C   UNK d   1       3.525 -19.065 -37.606  0.00  0.00     0.280 A 
ATOM     10  N   UNK d   1       4.868 -19.139 -37.416  0.00  0.00    -0.273 N 
ATOM     11  O   UNK d   1       2.805 -18.355 -36.844  0.00  0.00    -0.265 OA
ATOM     12  C   UNK d   1       5.596 -19.907 -38.247  0.00  0.00     0.330 A 
ATOM     13  H   UNK d   1       5.300 -18.601 -36.635  0.00  0.00     0.173 HD
ATOM     14  O   UNK d   1       6.853 -19.968 -38.059  0.00  0.00    -0.246 OA
ATOM     15  C   UNK d   1       5.854 -21.398 -40.100  0.00  0.00     0.163 C 
ENDBRANCH   1   2
BRANCH   1  16
ATOM     16  C   UNK d   1      -0.097 -18.015 -39.113  0.00  0.00     0.152 C 
BRANCH  16  17
ATOM     17  N   UNK d   1       0.652 -16.811 -39.038  0.00  0.00    -0.316 N 
ATOM     18  C   UNK d   1       0.648 -15.900 -38.051  0.00  0.00     0.152 A 
ATOM     19  C   UNK d   1       1.512 -14.876 -38.379  0.00  0.00     0.169 A 
ATOM     20  C   UNK d   1      -0.004 -15.788 -36.833  0.00  0.00     0.280 A 
ATOM     21  N   UNK d   1       2.015 -15.223 -39.582  0.00  0.00    -0.203 NA
ATOM     22  N   UNK d   1       1.685 -13.850 -37.547  0.00  0.00    -0.286 N 
ATOM     23  C   UNK d   1       1.518 -16.380 -40.003  0.00  0.00     0.180 A 
ATOM     24 Br   UNK d   1       1.917 -17.301 -41.648  0.00  0.00    -0.008 Br
ATOM     25  C   UNK d   1       1.025 -13.799 -36.387  0.00  0.00     0.330 A 
ATOM     26  C   UNK d   1       2.585 -12.771 -37.879  0.00  0.00     0.163 C 
ATOM     27  O   UNK d   1       1.169 -12.830 -35.570  0.00  0.00    -0.246 OA
ATOM     28  N   UNK d   1       0.167 -14.757 -35.994  0.00  0.00    -0.273 N 
ATOM     29  H   UNK d   1      -0.336 -14.686 -35.073  0.00  0.00     0.173 HD
ATOM     30  O   UNK d   1      -0.799 -16.685 -36.475  0.00  0.00    -0.265 OA
ENDBRANCH  16  17
ENDBRANCH   1  16
TORSDOF 3
ENDMDL
