/Users/jonathanwahrer/Desktop/Msc/3_Semester/Drug_Design_Praktikum/waehrer_HTS_screening/HTS_experiment/out/docking_results/vina_output/6y4q/0709_docked.pdbqt
 OpenBabel03232217503D

 30 33  0  0  0  0  0  0  0  0999 V2000
    0.4360  -19.2220  -38.4270 C   0  0  0  0  0  2  0  0  0  0  0  0
    1.5840  -19.8390  -38.9980 N   0  0  0  0  0  0  0  0  0  0  0  0
    1.5730  -20.6760  -40.0630 C   0  0  0  0  0  0  0  0  0  0  0  0
   -0.0250  -21.1530  -40.9930 Br  0  0  0  0  0  0  0  0  0  0  0  0
    2.8260  -21.0800  -40.3220 N   0  0  0  0  0  0  0  0  0  0  0  0
    3.6830  -20.5210  -39.4370 C   0  0  0  0  0  0  0  0  0  0  0  0
    2.8780  -19.7410  -38.6120 C   0  0  0  0  0  0  0  0  0  0  0  0
    5.0120  -20.5910  -39.2460 N   0  0  0  0  0  0  0  0  0  0  0  0
    3.5250  -19.0650  -37.6060 C   0  0  0  0  0  0  0  0  0  0  0  0
    4.8680  -19.1390  -37.4160 N   0  0  0  0  0  0  0  0  0  0  0  0
    2.8050  -18.3550  -36.8440 O   0  0  0  0  0  0  0  0  0  0  0  0
    5.5960  -19.9070  -38.2470 C   0  0  0  0  0  0  0  0  0  0  0  0
    5.3000  -18.6010  -36.6350 H   0  0  0  0  0  0  0  0  0  0  0  0
    6.8530  -19.9680  -38.0590 O   0  0  0  0  0  0  0  0  0  0  0  0
    5.8540  -21.3980  -40.1000 C   0  0  0  0  0  1  0  0  0  0  0  0
   -0.0970  -18.0150  -39.1130 C   0  0  0  0  0  2  0  0  0  0  0  0
    0.6520  -16.8110  -39.0380 N   0  0  0  0  0  0  0  0  0  0  0  0
    0.6480  -15.9000  -38.0510 C   0  0  0  0  0  0  0  0  0  0  0  0
    1.5120  -14.8760  -38.3790 C   0  0  0  0  0  0  0  0  0  0  0  0
   -0.0040  -15.7880  -36.8330 C   0  0  0  0  0  0  0  0  0  0  0  0
    2.0150  -15.2230  -39.5820 N   0  0  0  0  0  0  0  0  0  0  0  0
    1.6850  -13.8500  -37.5470 N   0  0  0  0  0  0  0  0  0  0  0  0
    1.5180  -16.3800  -40.0030 C   0  0  0  0  0  0  0  0  0  0  0  0
    1.9170  -17.3010  -41.6480 Br  0  0  0  0  0  0  0  0  0  0  0  0
    1.0250  -13.7990  -36.3870 C   0  0  0  0  0  0  0  0  0  0  0  0
    2.5850  -12.7710  -37.8790 C   0  0  0  0  0  1  0  0  0  0  0  0
    1.1690  -12.8300  -35.5700 O   0  0  0  0  0  0  0  0  0  0  0  0
    0.1670  -14.7570  -35.9940 N   0  0  0  0  0  0  0  0  0  0  0  0
   -0.3360  -14.6860  -35.0730 H   0  0  0  0  0  0  0  0  0  0  0  0
   -0.7990  -16.6850  -36.4750 O   0  0  0  0  0  0  0  0  0  0  0  0
  2  7  1  0  0  0  0
  2  1  1  0  0  0  0
  3  2  1  0  0  0  0
  4  3  1  0  0  0  0
  5  3  2  0  0  0  0
  5  6  1  0  0  0  0
  6  8  1  0  0  0  0
  6  7  2  0  0  0  0
  7  9  1  0  0  0  0
  8 12  1  0  0  0  0
  9 10  1  0  0  0  0
  9 11  2  0  0  0  0
 10 13  1  0  0  0  0
 12 14  2  0  0  0  0
 12 10  1  0  0  0  0
 15  8  1  0  0  0  0
 16 17  1  0  0  0  0
 16  1  1  0  0  0  0
 17 18  1  0  0  0  0
 18 20  1  0  0  0  0
 19 18  2  0  0  0  0
 19 22  1  0  0  0  0
 20 30  2  0  0  0  0
 20 28  1  0  0  0  0
 21 19  1  0  0  0  0
 22 25  1  0  0  0  0
 23 21  2  0  0  0  0
 23 17  1  0  0  0  0
 24 23  1  0  0  0  0
 25 28  1  0  0  0  0
 25 27  2  0  0  0  0
 26 22  1  0  0  0  0
 28 29  1  0  0  0  0
M  END
>  <Pose>
1

>  <Score>
-6.041

$$$$
