MODEL 1
REMARK VINA RESULT:    -6.965      0.000      0.000
REMARK INTER + INTRA:          -9.519
REMARK INTER:                  -8.594
REMARK INTRA:                  -0.926
REMARK UNBOUND:                -0.926
REMARK  4 active torsions:
REMARK  status: ('A' for Active; 'I' for Inactive)
REMARK    1  A    between atoms: N_4  and  C_7 
REMARK    2  A    between atoms: C_9  and  C_17 
REMARK       I    between atoms: C_17  and  N_19 
REMARK    3  A    between atoms: N_19  and  C_20 
REMARK    4  A    between atoms: C_21  and  C_26 
REMARK       I    between atoms: C_26  and  N_28 
ROOT
ATOM      1  C   UNK d   1       1.442 -14.155 -37.838  0.00  0.00     0.059 C 
ATOM      2  C   UNK d   1       2.003 -15.495 -38.258  0.00  0.00     0.052 C 
ATOM      3  C   UNK d   1       1.110 -16.590 -37.752  0.00  0.00     0.044 C 
ATOM      4  C   UNK d   1      -0.220 -16.436 -38.503  0.00  0.00     0.024 C 
ATOM      5  C   UNK d   1      -0.782 -15.068 -38.213  0.00  0.00    -0.011 C 
ATOM      6  C   UNK d   1       0.153 -13.953 -38.605  0.00  0.00     0.038 C 
ATOM      7  C   UNK d   1      -1.105 -14.983 -36.755  0.00  0.00     0.009 C 
ATOM      8  C   UNK d   1       0.174 -15.165 -35.968  0.00  0.00    -0.011 C 
ATOM      9  C   UNK d   1       1.128 -14.093 -36.376  0.00  0.00     0.038 C 
ATOM     10  C   UNK d   1       0.795 -16.505 -36.296  0.00  0.00     0.024 C 
ENDROOT
BRANCH   3  11
ATOM     11  C   UNK d   1       1.669 -17.926 -38.048  0.00  0.00     0.231 C 
ATOM     12  O   UNK d   1       1.107 -18.928 -37.537  0.00  0.00    -0.272 OA
ATOM     13  N   UNK d   1       2.811 -18.074 -38.887  0.00  0.00    -0.323 N 
ATOM     14  H   UNK d   1       3.217 -17.200 -39.270  0.00  0.00     0.169 HD
BRANCH  13  15
ATOM     15  C   UNK d   1       3.417 -19.312 -39.226  0.00  0.00     0.088 A 
ATOM     16  C   UNK d   1       4.556 -19.799 -38.649  0.00  0.00     0.148 A 
ATOM     17  N   UNK d   1       4.818 -20.994 -39.231  0.00  0.00    -0.267 N 
ATOM     18  N   UNK d   1       3.889 -21.242 -40.128  0.00  0.00    -0.182 NA
ATOM     19  C   UNK d   1       5.924 -21.894 -38.952  0.00  0.00     0.180 C 
ATOM     20  C   UNK d   1       3.006 -20.238 -40.163  0.00  0.00     0.171 A 
BRANCH  16  21
ATOM     21  C   UNK d   1       5.410 -19.252 -37.614  0.00  0.00     0.270 C 
ATOM     22  O   UNK d   1       4.958 -18.979 -36.474  0.00  0.00    -0.266 OA
ATOM     23  N   UNK d   1       6.793 -18.987 -37.801  0.00  0.00    -0.365 N 
ATOM     24  H   UNK d   1       7.487 -19.690 -37.414  0.00  0.00     0.159 HD
ATOM     25  H   UNK d   1       7.182 -18.156 -38.286  0.00  0.00     0.159 HD
ENDBRANCH  16  21
ENDBRANCH  13  15
ENDBRANCH   3  11
BRANCH   1  26
ATOM     26  N   UNK d   1       2.416 -13.108 -38.144  0.00  0.00    -0.251 N 
ATOM     27  N   UNK d   1       3.059 -12.914 -39.289  0.00  0.00    -0.142 NA
ATOM     28  C   UNK d   1       3.877 -11.849 -39.200  0.00  0.00     0.217 A 
ATOM     29 Br   UNK d   1       5.028 -11.139 -40.560  0.00  0.00    -0.005 Br
ATOM     30  N   UNK d   1       3.741 -11.356 -37.948  0.00  0.00    -0.215 NA
ATOM     31  C   UNK d   1       2.846 -12.135 -37.321  0.00  0.00     0.232 A 
ENDBRANCH   1  26
TORSDOF 4
ENDMDL
