/Users/jonathanwahrer/Desktop/Msc/3_Semester/Drug_Design_Praktikum/waehrer_HTS_screening/HTS_experiment/out/docking_results/vina_output/6y4q/0723_docked.pdbqt
 OpenBabel03232217503D

 23 26  0  0  1  0  0  0  0  0999 V2000
   -0.0030  -17.9490  -38.6740 N   0  0  0  0  0  0  0  0  0  0  0  0
    0.5420  -19.1170  -38.0560 C   0  0  1  0  0  3  0  0  0  0  0  0
   -0.0680  -20.3770  -38.5370 C   0  0  0  0  0  2  0  0  0  0  0  0
   -1.1800  -20.2740  -39.3280 O   0  0  0  0  0  0  0  0  0  0  0  0
   -2.0200  -19.2320  -38.9530 C   0  0  0  0  0  2  0  0  0  0  0  0
   -1.3680  -17.8950  -39.0990 C   0  0  0  0  0  2  0  0  0  0  0  0
    0.7780  -16.7640  -38.8830 C   0  0  0  0  0  0  0  0  0  0  0  0
    1.3300  -16.5490  -40.1180 N   0  0  0  0  0  0  0  0  0  0  0  0
    2.0250  -15.4300  -40.3850 C   0  0  0  0  0  3  0  0  0  0  0  0
    2.1990  -14.4880  -39.4410 N   0  0  0  0  0  0  0  0  0  0  0  0
    1.6900  -14.6280  -38.2130 C   0  0  0  0  0  0  0  0  0  0  0  0
    1.7490  -13.8390  -37.1250 N   0  0  0  0  0  0  0  0  0  0  0  0
    0.9670  -15.7950  -37.9370 C   0  0  0  0  0  0  0  0  0  0  0  0
    1.0910  -14.4700  -36.1790 N   0  0  0  0  0  0  0  0  0  0  0  0
    2.4020  -12.5490  -36.9990 C   0  0  0  0  0  1  0  0  0  0  0  0
    0.6030  -15.6510  -36.6200 C   0  0  0  0  0  0  0  0  0  0  0  0
   -0.3820  -16.9370  -35.6210 Br  0  0  0  0  0  0  0  0  0  0  0  0
    2.0210  -19.1190  -38.1000 C   0  0  0  0  0  0  0  0  0  0  0  0
    2.7740  -19.5310  -39.1210 N   0  0  0  0  0  0  0  0  0  0  0  0
    4.0710  -19.3600  -38.7360 C   0  0  0  0  0  0  0  0  0  0  0  0
    4.0360  -18.8500  -37.4910 N   0  0  0  0  0  0  0  0  0  0  0  0
    5.2890  -19.6690  -39.5200 C   0  0  0  0  0  1  0  0  0  0  0  0
    2.7920  -18.7150  -37.1330 O   0  0  0  0  0  0  0  0  0  0  0  0
  1  2  1  0  0  0  0
  2 18  1  6  0  0  0
  3  2  1  0  0  0  0
  4  5  1  0  0  0  0
  4  3  1  0  0  0  0
  6  5  1  0  0  0  0
  6  1  1  0  0  0  0
  7  1  1  0  0  0  0
  7 13  1  0  0  0  0
  8  7  2  0  0  0  0
  9  8  1  0  0  0  0
  9 10  2  0  0  0  0
 10 11  1  0  0  0  0
 11 13  2  0  0  0  0
 11 12  1  0  0  0  0
 12 15  1  0  0  0  0
 12 14  1  0  0  0  0
 13 16  1  0  0  0  0
 16 14  2  0  0  0  0
 16 17  1  0  0  0  0
 18 23  1  0  0  0  0
 19 20  1  0  0  0  0
 19 18  2  0  0  0  0
 20 21  2  0  0  0  0
 21 23  1  0  0  0  0
 22 20  1  0  0  0  0
M  END
>  <Pose>
1

>  <Score>
-5.128

$$$$
