MODEL 1
REMARK VINA RESULT:    -5.128      0.000      0.000
REMARK INTER + INTRA:          -6.124
REMARK INTER:                  -5.728
REMARK INTRA:                  -0.396
REMARK UNBOUND:                -0.396
REMARK  2 active torsions:
REMARK  status: ('A' for Active; 'I' for Inactive)
REMARK    1  A    between atoms: C_9  and  N_11 
REMARK    2  A    between atoms: C_12  and  C_17 
ROOT
ATOM      1  N   UNK d   1      -0.003 -17.949 -38.674  0.00  0.00    -0.348 N 
ATOM      2  C   UNK d   1       0.542 -19.117 -38.056  0.00  0.00     0.189 C 
ATOM      3  C   UNK d   1      -0.068 -20.377 -38.537  0.00  0.00     0.201 C 
ATOM      4  O   UNK d   1      -1.180 -20.274 -39.328  0.00  0.00    -0.387 OA
ATOM      5  C   UNK d   1      -2.020 -19.232 -38.953  0.00  0.00     0.187 C 
ATOM      6  C   UNK d   1      -1.368 -17.895 -39.099  0.00  0.00     0.151 C 
ENDROOT
BRANCH   1   7
ATOM      7  C   UNK d   1       0.778 -16.764 -38.883  0.00  0.00     0.145 A 
ATOM      8  N   UNK d   1       1.330 -16.549 -40.118  0.00  0.00    -0.223 NA
ATOM      9  C   UNK d   1       2.025 -15.430 -40.385  0.00  0.00     0.237 A 
ATOM     10  N   UNK d   1       2.199 -14.488 -39.441  0.00  0.00    -0.222 NA
ATOM     11  C   UNK d   1       1.690 -14.628 -38.213  0.00  0.00     0.164 A 
ATOM     12  N   UNK d   1       1.749 -13.839 -37.125  0.00  0.00    -0.255 N 
ATOM     13  C   UNK d   1       0.967 -15.795 -37.937  0.00  0.00     0.095 A 
ATOM     14  N   UNK d   1       1.091 -14.470 -36.179  0.00  0.00    -0.163 NA
ATOM     15  C   UNK d   1       2.402 -12.549 -36.999  0.00  0.00     0.182 C 
ATOM     16  C   UNK d   1       0.603 -15.651 -36.620  0.00  0.00     0.141 A 
ATOM     17 Br   UNK d   1      -0.382 -16.937 -35.621  0.00  0.00    -0.026 Br
ENDBRANCH   1   7
BRANCH   2  18
ATOM     18  C   UNK d   1       2.021 -19.119 -38.100  0.00  0.00     0.198 A 
ATOM     19  N   UNK d   1       2.774 -19.531 -39.121  0.00  0.00    -0.207 NA
ATOM     20  C   UNK d   1       4.071 -19.360 -38.736  0.00  0.00     0.152 A 
ATOM     21  N   UNK d   1       4.036 -18.850 -37.491  0.00  0.00    -0.112 NA
ATOM     22  C   UNK d   1       5.289 -19.669 -39.520  0.00  0.00     0.096 C 
ATOM     23  O   UNK d   1       2.792 -18.715 -37.133  0.00  0.00    -0.194 OA
ENDBRANCH   2  18
TORSDOF 2
ENDMDL
