MODEL 1
REMARK VINA RESULT:    -5.552      0.000      0.000
REMARK INTER + INTRA:          -6.185
REMARK INTER:                  -5.876
REMARK INTRA:                  -0.308
REMARK UNBOUND:                -0.308
REMARK  1 active torsions:
REMARK  status: ('A' for Active; 'I' for Inactive)
REMARK    1  A    between atoms: C_9  and  N_11 
ROOT
ATOM      1 Br   UNK d   1       1.265 -15.561 -37.148  0.00  0.00    -0.026 Br
ATOM      2  C   UNK d   1      -0.189 -16.786 -37.054  0.00  0.00     0.141 A 
ATOM      3  N   UNK d   1      -1.450 -16.500 -36.615  0.00  0.00    -0.163 NA
ATOM      4  N   UNK d   1      -2.185 -17.582 -36.715  0.00  0.00    -0.255 N 
ATOM      5  C   UNK d   1      -1.450 -18.591 -37.210  0.00  0.00     0.164 A 
ATOM      6  N   UNK d   1      -1.713 -19.872 -37.512  0.00  0.00    -0.222 NA
ATOM      7  C   UNK d   1      -0.785 -20.681 -38.016  0.00  0.00     0.237 A 
ATOM      8  N   UNK d   1       0.444 -20.221 -38.231  0.00  0.00    -0.223 NA
ATOM      9  C   UNK d   1       0.821 -18.928 -37.958  0.00  0.00     0.144 A 
ATOM     10  C   UNK d   1      -0.150 -18.108 -37.440  0.00  0.00     0.095 A 
ATOM     11  C   UNK d   1      -3.602 -17.750 -36.362  0.00  0.00     0.182 C 
ENDROOT
BRANCH   9  12
ATOM     12  N   UNK d   1       2.134 -18.504 -38.163  0.00  0.00    -0.359 N 
ATOM     13  C   UNK d   1       3.097 -18.495 -37.084  0.00  0.00     0.131 C 
ATOM     14  C   UNK d   1       4.091 -19.645 -37.351  0.00  0.00     0.079 C 
ATOM     15  C   UNK d   1       4.347 -19.741 -38.804  0.00  0.00     0.040 A 
ATOM     16  N   UNK d   1       5.257 -20.533 -39.418  0.00  0.00    -0.347 N 
ATOM     17  C   UNK d   1       3.715 -19.049 -39.793  0.00  0.00     0.076 A 
ATOM     18  C   UNK d   1       5.164 -20.314 -40.741  0.00  0.00     0.209 A 
ATOM     19  C   UNK d   1       6.181 -21.460 -38.818  0.00  0.00     0.157 C 
ATOM     20  N   UNK d   1       4.223 -19.406 -40.993  0.00  0.00    -0.245 NA
ATOM     21  C   UNK d   1       2.646 -18.082 -39.442  0.00  0.00     0.185 C 
ENDBRANCH   9  12
TORSDOF 1
ENDMDL
