MODEL 1
REMARK VINA RESULT:    -6.004      0.000      0.000
REMARK INTER + INTRA:          -7.628
REMARK INTER:                  -7.057
REMARK INTRA:                  -0.571
REMARK UNBOUND:                -0.571
REMARK  3 active torsions:
REMARK  status: ('A' for Active; 'I' for Inactive)
REMARK    1  A    between atoms: C_9  and  N_11 
REMARK    2  A    between atoms: N_14  and  C_17 
REMARK    3  A    between atoms: C_17  and  C_19 
REMARK       I    between atoms: C_19  and  N_21 
ROOT
ATOM      1  N   UNK d   1       4.652 -21.708 -41.363  0.00  0.00    -0.362 N 
ATOM      2  C   UNK d   1       5.509 -21.815 -40.216  0.00  0.00     0.154 C 
ATOM      3  C   UNK d   1       4.696 -21.233 -39.057  0.00  0.00     0.293 C 
ATOM      4  N   UNK d   1       3.614 -20.376 -39.556  0.00  0.00     0.103 N 
ATOM      5  C   UNK d   1       4.122 -19.529 -40.639  0.00  0.00     0.293 C 
ATOM      6  C   UNK d   1       4.422 -20.375 -41.863  0.00  0.00     0.154 C 
ENDROOT
BRANCH   1   7
ATOM      7  C   UNK d   1       4.052 -22.833 -41.939  0.00  0.00     0.144 A 
ATOM      8  N   UNK d   1       2.797 -23.212 -41.600  0.00  0.00    -0.223 NA
ATOM      9  C   UNK d   1       2.212 -24.292 -42.105  0.00  0.00     0.237 A 
ATOM     10  N   UNK d   1       2.881 -25.044 -42.984  0.00  0.00    -0.222 NA
ATOM     11  C   UNK d   1       4.130 -24.749 -43.382  0.00  0.00     0.164 A 
ATOM     12  N   UNK d   1       4.984 -25.335 -44.244  0.00  0.00    -0.255 N 
ATOM     13  C   UNK d   1       4.744 -23.617 -42.855  0.00  0.00     0.095 A 
ATOM     14  N   UNK d   1       6.074 -24.616 -44.262  0.00  0.00    -0.163 NA
ATOM     15  C   UNK d   1       4.658 -26.550 -44.977  0.00  0.00     0.182 C 
ATOM     16  C   UNK d   1       5.988 -23.556 -43.438  0.00  0.00     0.141 A 
ATOM     17 Br   UNK d   1       7.277 -22.203 -43.120  0.00  0.00    -0.026 Br
ENDBRANCH   1   7
BRANCH   4  18
ATOM     18  C   UNK d   1       3.228 -19.516 -38.448  0.00  0.00     0.296 C 
ATOM     19  C   UNK d   1       3.523 -20.306 -37.144  0.00  0.00     0.052 C 
BRANCH  18  20
ATOM     20  C   UNK d   1       1.788 -19.206 -38.489  0.00  0.00     0.186 C 
ATOM     21  O   UNK d   1       1.085 -20.105 -39.113  0.00  0.00    -0.175 OA
ATOM     22  N   UNK d   1       1.112 -18.095 -37.961  0.00  0.00    -0.361 N 
ATOM     23  C   UNK d   1       1.656 -16.963 -37.272  0.00  0.00     0.124 C 
ATOM     24  C   UNK d   1      -0.357 -18.061 -38.138  0.00  0.00     0.124 C 
ATOM     25  C   UNK d   1       0.893 -16.567 -36.025  0.00  0.00     0.020 C 
ATOM     26  C   UNK d   1      -0.581 -16.763 -36.114  0.00  0.00     0.003 C 
ATOM     27  C   UNK d   1      -0.949 -18.085 -36.753  0.00  0.00     0.020 C 
ENDBRANCH  18  20
ENDBRANCH   4  18
TORSDOF 3
ENDMDL
