MODEL 1
REMARK VINA RESULT:    -5.758      0.000      0.000
REMARK INTER + INTRA:          -6.443
REMARK INTER:                  -6.095
REMARK INTRA:                  -0.349
REMARK UNBOUND:                -0.349
REMARK  1 active torsions:
REMARK  status: ('A' for Active; 'I' for Inactive)
REMARK    1  A    between atoms: N_8  and  C_11 
ROOT
ATOM      1  C   UNK d   1       1.335 -17.207 -37.502  0.00  0.00     0.148 A 
ATOM      2  C   UNK d   1       1.599 -15.969 -37.152  0.00  0.00     0.080 A 
ATOM      3  C   UNK d   1       0.614 -15.139 -36.440  0.00  0.00     0.043 A 
ATOM      4  C   UNK d   1       0.865 -13.892 -36.083  0.00  0.00     0.043 C 
ATOM      5  N   UNK d   1      -0.626 -15.772 -36.164  0.00  0.00    -0.189 N 
ATOM      6  C   UNK d   1      -0.895 -17.126 -36.554  0.00  0.00     0.730 A 
ATOM      7  N   UNK d   1       0.087 -17.802 -37.208  0.00  0.00    -0.044 N 
ATOM      8  N   UNK d   1      -0.414 -19.019 -37.452  0.00  0.00    -0.143 NA
ATOM      9  C   UNK d   1      -1.664 -19.130 -36.979  0.00  0.00     0.275 A 
ATOM     10  N   UNK d   1      -1.954 -17.943 -36.421  0.00  0.00    -0.054 NA
ATOM     11  H   UNK d   1      -1.367 -15.237 -35.662  0.00  0.00     0.184 HD
ENDROOT
BRANCH   1  12
ATOM     12  N   UNK d   1       2.315 -17.956 -38.181  0.00  0.00    -0.357 N 
ATOM     13  C   UNK d   1       3.246 -18.724 -37.392  0.00  0.00     0.203 C 
ATOM     14  C   UNK d   1       3.780 -19.869 -38.187  0.00  0.00     0.124 A 
ATOM     15  N   UNK d   1       3.904 -19.779 -39.510  0.00  0.00    -0.325 N 
ATOM     16  N   UNK d   1       4.212 -21.107 -37.830  0.00  0.00    -0.243 NA
ATOM     17  C   UNK d   1       4.401 -20.924 -39.992  0.00  0.00     0.101 A 
ATOM     18  C   UNK d   1       3.530 -18.577 -40.228  0.00  0.00     0.151 C 
ATOM     19 Br   UNK d   1       4.792 -21.375 -41.814  0.00  0.00    -0.029 Br
ATOM     20  C   UNK d   1       4.601 -21.779 -38.928  0.00  0.00     0.156 A 
ATOM     21  C   UNK d   1       2.330 -17.907 -39.625  0.00  0.00     0.145 C 
ENDBRANCH   1  12
TORSDOF 1
ENDMDL
