MODEL 1
REMARK VINA RESULT:    -6.069      0.000      0.000
REMARK INTER + INTRA:          -8.565
REMARK INTER:                  -7.488
REMARK INTRA:                  -1.077
REMARK UNBOUND:                -1.077
REMARK  4 active torsions:
REMARK  status: ('A' for Active; 'I' for Inactive)
REMARK    1  A    between atoms: C_4  and  C_7 
REMARK       I    between atoms: C_7  and  N_9 
REMARK    2  A    between atoms: N_9  and  C_10 
REMARK    3  A    between atoms: C_10  and  C_11 
REMARK    4  A    between atoms: C_11  and  C_12 
REMARK       I    between atoms: C_12  and  N_14 
ROOT
ATOM      1  C   UNK d   1      -1.323 -18.344 -38.799  0.00  0.00     0.221 C 
ATOM      2  O   UNK d   1      -1.873 -17.309 -39.305  0.00  0.00    -0.273 OA
ATOM      3  N   UNK d   1      -0.173 -18.915 -39.408  0.00  0.00    -0.352 N 
ATOM      4  C   UNK d   1       0.370 -18.320 -40.598  0.00  0.00     0.129 C 
ATOM      5  C   UNK d   1       1.860 -18.433 -40.712  0.00  0.00     0.068 C 
ATOM      6  C   UNK d   1       2.437 -19.580 -39.937  0.00  0.00     0.204 C 
ATOM      7  N   UNK d   1       3.635 -20.060 -40.555  0.00  0.00     0.099 N 
ATOM      8  C   UNK d   1       4.226 -21.180 -39.905  0.00  0.00     0.277 C 
ATOM      9  C   UNK d   1       4.287 -21.099 -38.416  0.00  0.00     0.091 C 
ATOM     10  C   UNK d   1       3.705 -19.843 -37.876  0.00  0.00     0.062 A 
ATOM     11  N   UNK d   1       3.882 -19.213 -36.714  0.00  0.00    -0.246 NA
ATOM     12  C   UNK d   1       3.128 -18.105 -36.692  0.00  0.00     0.207 A 
ATOM     13  N   UNK d   1       2.457 -18.015 -37.847  0.00  0.00    -0.350 N 
ATOM     14  C   UNK d   1       2.806 -19.080 -38.580  0.00  0.00     0.074 A 
ATOM     15  C   UNK d   1       1.388 -20.666 -39.750  0.00  0.00     0.068 C 
ATOM     16  C   UNK d   1       0.391 -20.097 -38.763  0.00  0.00     0.129 C 
ATOM     17  H   UNK d   1       3.409 -20.324 -41.539  0.00  0.00     0.317 HD
ATOM     18  H   UNK d   1       1.773 -17.243 -38.134  0.00  0.00     0.166 HD
ENDROOT
BRANCH   1  19
ATOM     19  C   UNK d   1      -1.942 -18.890 -37.581  0.00  0.00     0.122 C 
BRANCH  19  20
ATOM     20  C   UNK d   1      -1.630 -18.091 -36.353  0.00  0.00     0.132 C 
BRANCH  20  21
ATOM     21  N   UNK d   1      -1.208 -16.754 -36.634  0.00  0.00    -0.355 N 
ATOM     22  C   UNK d   1      -0.121 -16.138 -35.957  0.00  0.00     0.275 C 
ATOM     23  O   UNK d   1       0.483 -16.816 -35.074  0.00  0.00    -0.265 OA
ATOM     24  H   UNK d   1      -1.706 -16.202 -37.358  0.00  0.00     0.162 HD
BRANCH  22  25
ATOM     25  C   UNK d   1       0.323 -14.793 -36.224  0.00  0.00     0.144 A 
ATOM     26  O   UNK d   1       1.503 -14.427 -36.599  0.00  0.00    -0.298 OA
ATOM     27  C   UNK d   1       1.598 -13.142 -36.760  0.00  0.00     0.122 A 
ATOM     28 Br   UNK d   1       3.124 -12.102 -37.303  0.00  0.00    -0.023 Br
ATOM     29  C   UNK d   1       0.367 -12.604 -36.463  0.00  0.00     0.048 A 
ATOM     30  C   UNK d   1      -0.470 -13.644 -36.115  0.00  0.00     0.046 A 
ENDBRANCH  22  25
ENDBRANCH  20  21
ENDBRANCH  19  20
ENDBRANCH   1  19
TORSDOF 4
ENDMDL
