MODEL 1
REMARK VINA RESULT:    -6.447      0.000      0.000
REMARK INTER + INTRA:          -7.951
REMARK INTER:                  -7.577
REMARK INTRA:                  -0.374
REMARK UNBOUND:                -0.374
REMARK  3 active torsions:
REMARK  status: ('A' for Active; 'I' for Inactive)
REMARK    1  A    between atoms: C_4  and  C_7 
REMARK       I    between atoms: C_7  and  N_9 
REMARK    2  A    between atoms: N_9  and  C_10 
REMARK    3  A    between atoms: C_10  and  C_12 
REMARK       I    between atoms: C_12  and  N_14 
ROOT
ATOM      1  C   UNK d   1      -0.476 -16.681 -36.680  0.00  0.00     0.242 C 
ATOM      2  O   UNK d   1      -0.610 -17.300 -35.568  0.00  0.00    -0.271 OA
ATOM      3  N   UNK d   1      -0.199 -17.458 -37.810  0.00  0.00    -0.350 N 
ATOM      4  C   UNK d   1      -0.027 -16.891 -39.132  0.00  0.00     0.129 C 
ATOM      5  C   UNK d   1       1.367 -17.196 -39.586  0.00  0.00     0.068 C 
ATOM      6  C   UNK d   1       1.693 -18.652 -39.472  0.00  0.00     0.206 C 
ATOM      7  N   UNK d   1       2.105 -19.134 -40.779  0.00  0.00     0.099 N 
ATOM      8  C   UNK d   1       3.346 -18.468 -41.130  0.00  0.00     0.277 C 
ATOM      9  C   UNK d   1       4.459 -19.236 -40.408  0.00  0.00     0.089 C 
ATOM     10  C   UNK d   1       4.107 -19.193 -38.968  0.00  0.00     0.039 A 
ATOM     11  N   UNK d   1       4.889 -19.390 -37.889  0.00  0.00    -0.352 N 
ATOM     12  C   UNK d   1       4.113 -19.245 -36.803  0.00  0.00     0.207 A 
ATOM     13  N   UNK d   1       2.864 -18.962 -37.216  0.00  0.00    -0.244 NA
ATOM     14  C   UNK d   1       2.825 -18.921 -38.558  0.00  0.00     0.097 A 
ATOM     15  C   UNK d   1       0.449 -19.425 -39.037  0.00  0.00     0.068 C 
ATOM     16  C   UNK d   1      -0.070 -18.902 -37.737  0.00  0.00     0.129 C 
ATOM     17  H   UNK d   1       1.406 -18.859 -41.525  0.00  0.00     0.317 HD
ATOM     18  H   UNK d   1       5.914 -19.616 -37.843  0.00  0.00     0.166 HD
ENDROOT
BRANCH   1  19
ATOM     19  C   UNK d   1      -0.633 -15.217 -36.624  0.00  0.00     0.173 C 
ATOM     20  C   UNK d   1      -1.954 -14.702 -37.067  0.00  0.00     0.042 C 
BRANCH  19  21
ATOM     21  N   UNK d   1       0.409 -14.525 -37.355  0.00  0.00    -0.342 N 
ATOM     22  C   UNK d   1       1.232 -13.539 -36.782  0.00  0.00     0.276 C 
ATOM     23  O   UNK d   1       1.076 -13.226 -35.584  0.00  0.00    -0.265 OA
ATOM     24  H   UNK d   1       0.547 -14.778 -38.355  0.00  0.00     0.163 HD
BRANCH  22  25
ATOM     25  C   UNK d   1       2.261 -12.881 -37.571  0.00  0.00     0.144 A 
ATOM     26  O   UNK d   1       2.467 -13.078 -38.874  0.00  0.00    -0.298 OA
ATOM     27  C   UNK d   1       3.463 -12.344 -39.296  0.00  0.00     0.122 A 
ATOM     28 Br   UNK d   1       4.129 -12.289 -41.102  0.00  0.00    -0.023 Br
ATOM     29  C   UNK d   1       3.968 -11.606 -38.237  0.00  0.00     0.048 A 
ATOM     30  C   UNK d   1       3.198 -11.959 -37.158  0.00  0.00     0.046 A 
ENDBRANCH  22  25
ENDBRANCH  19  21
ENDBRANCH   1  19
TORSDOF 3
ENDMDL
