/Users/jonathanwahrer/Desktop/Msc/3_Semester/Drug_Design_Praktikum/waehrer_HTS_screening/HTS_experiment/out/docking_results/vina_output/6y4q/0746_docked.pdbqt
 OpenBabel03232217513D

 30 33  0  0  1  0  0  0  0  0999 V2000
   -0.4760  -16.6810  -36.6800 C   0  0  0  0  0  0  0  0  0  0  0  0
   -0.6100  -17.3000  -35.5680 O   0  0  0  0  0  0  0  0  0  0  0  0
   -0.1990  -17.4580  -37.8100 N   0  0  0  0  0  0  0  0  0  0  0  0
   -0.0270  -16.8910  -39.1320 C   0  0  0  0  0  2  0  0  0  0  0  0
    1.3670  -17.1960  -39.5860 C   0  0  0  0  0  2  0  0  0  0  0  0
    1.6930  -18.6520  -39.4720 C   0  0  1  0  0  0  0  0  0  0  0  0
    2.1050  -19.1340  -40.7790 N   0  0  0  0  0  0  0  0  0  0  0  0
    3.3460  -18.4680  -41.1300 C   0  0  0  0  0  2  0  0  0  0  0  0
    4.4590  -19.2360  -40.4080 C   0  0  0  0  0  2  0  0  0  0  0  0
    4.1070  -19.1930  -38.9680 C   0  0  0  0  0  0  0  0  0  0  0  0
    4.8890  -19.3900  -37.8890 N   0  0  0  0  0  0  0  0  0  0  0  0
    4.1130  -19.2450  -36.8030 C   0  0  0  0  0  3  0  0  0  0  0  0
    2.8640  -18.9620  -37.2160 N   0  0  0  0  0  0  0  0  0  0  0  0
    2.8250  -18.9210  -38.5580 C   0  0  0  0  0  0  0  0  0  0  0  0
    0.4490  -19.4250  -39.0370 C   0  0  0  0  0  2  0  0  0  0  0  0
   -0.0700  -18.9020  -37.7370 C   0  0  0  0  0  2  0  0  0  0  0  0
    1.4060  -18.8590  -41.5250 H   0  0  0  0  0  0  0  0  0  0  0  0
    5.9140  -19.6160  -37.8430 H   0  0  0  0  0  0  0  0  0  0  0  0
   -0.6330  -15.2170  -36.6240 C   0  0  2  0  0  3  0  0  0  0  0  0
   -1.9540  -14.7020  -37.0670 C   0  0  0  0  0  1  0  0  0  0  0  0
    0.4090  -14.5250  -37.3550 N   0  0  0  0  0  0  0  0  0  0  0  0
    1.2320  -13.5390  -36.7820 C   0  0  0  0  0  0  0  0  0  0  0  0
    1.0760  -13.2260  -35.5840 O   0  0  0  0  0  0  0  0  0  0  0  0
    0.5470  -14.7780  -38.3550 H   0  0  0  0  0  0  0  0  0  0  0  0
    2.2610  -12.8810  -37.5710 C   0  0  0  0  0  0  0  0  0  0  0  0
    2.4670  -13.0780  -38.8740 O   0  0  0  0  0  0  0  0  0  0  0  0
    3.4630  -12.3440  -39.2960 C   0  0  0  0  0  0  0  0  0  0  0  0
    4.1290  -12.2890  -41.1020 Br  0  0  0  0  0  0  0  0  0  0  0  0
    3.9680  -11.6060  -38.2370 C   0  0  0  0  0  3  0  0  0  0  0  0
    3.1980  -11.9590  -37.1580 C   0  0  0  0  0  3  0  0  0  0  0  0
  1 19  1  0  0  0  0
  1  2  2  0  0  0  0
  3 16  1  0  0  0  0
  3  1  1  0  0  0  0
  4  3  1  0  0  0  0
  5  4  1  0  0  0  0
  6  5  1  6  0  0  0
  6 15  1  0  0  0  0
  6 14  1  0  0  0  0
  7  6  1  0  0  0  0
  8  7  1  0  0  0  0
  8  9  1  0  0  0  0
  9 10  1  0  0  0  0
 10 14  2  0  0  0  0
 10 11  1  0  0  0  0
 11 18  1  0  0  0  0
 11 12  1  0  0  0  0
 13 12  2  0  0  0  0
 14 13  1  0  0  0  0
 15 16  1  0  0  0  0
 17  7  1  0  0  0  0
 19 20  1  6  0  0  0
 21 22  1  0  0  0  0
 21 19  1  0  0  0  0
 22 23  2  0  0  0  0
 24 21  1  0  0  0  0
 25 30  2  0  0  0  0
 25 22  1  0  0  0  0
 26 25  1  0  0  0  0
 27 26  1  0  0  0  0
 27 29  2  0  0  0  0
 28 27  1  0  0  0  0
 29 30  1  0  0  0  0
M  END
>  <Pose>
1

>  <Score>
-6.447

$$$$
