MODEL 1
REMARK VINA RESULT:    -6.487      0.000      0.000
REMARK INTER + INTRA:          -8.319
REMARK INTER:                  -7.624
REMARK INTRA:                  -0.695
REMARK UNBOUND:                -0.695
REMARK  3 active torsions:
REMARK  status: ('A' for Active; 'I' for Inactive)
REMARK    1  A    between atoms: C_4  and  C_7 
REMARK       I    between atoms: C_7  and  N_9 
REMARK    2  A    between atoms: N_12  and  C_15 
REMARK    3  A    between atoms: C_17  and  N_22 
ROOT
ATOM      1  C   UNK d   1       0.060 -16.200 -36.241  0.00  0.00     0.277 C 
ATOM      2  O   UNK d   1       0.158 -16.557 -35.058  0.00  0.00    -0.265 OA
ATOM      3  N   UNK d   1      -0.738 -16.951 -37.139  0.00  0.00    -0.343 N 
ATOM      4  C   UNK d   1      -1.436 -18.130 -36.669  0.00  0.00     0.146 C 
ATOM      5  C   UNK d   1      -1.005 -19.378 -37.400  0.00  0.00     0.144 C 
ATOM      6  N   UNK d   1      -0.597 -18.950 -38.748  0.00  0.00    -0.362 N 
ATOM      7  C   UNK d   1      -1.343 -17.881 -39.319  0.00  0.00     0.144 C 
ATOM      8  C   UNK d   1      -0.918 -16.622 -38.540  0.00  0.00     0.146 C 
ENDROOT
BRANCH   6   9
ATOM      9  C   UNK d   1       0.490 -19.641 -39.336  0.00  0.00     0.146 A 
ATOM     10  N   UNK d   1       1.688 -19.758 -38.699  0.00  0.00    -0.045 NA
ATOM     11  C   UNK d   1       2.727 -20.409 -39.245  0.00  0.00     0.726 A 
ATOM     12  N   UNK d   1       2.607 -20.973 -40.466  0.00  0.00    -0.068 NA
ATOM     13  C   UNK d   1       1.463 -20.909 -41.169  0.00  0.00     0.053 A 
ATOM     14  C   UNK d   1       0.398 -20.221 -40.568  0.00  0.00     0.078 A 
ATOM     15  C   UNK d   1       1.308 -21.523 -42.515  0.00  0.00     0.071 C 
BRANCH  11  16
ATOM     16  N   UNK d   1       3.953 -20.504 -38.540  0.00  0.00    -0.210 N 
ATOM     17  C   UNK d   1       4.751 -21.705 -38.500  0.00  0.00     0.167 C 
ATOM     18  C   UNK d   1       6.162 -21.400 -38.906  0.00  0.00     0.188 C 
ATOM     19  O   UNK d   1       6.421 -20.033 -38.993  0.00  0.00    -0.388 OA
ATOM     20  C   UNK d   1       5.955 -19.371 -37.861  0.00  0.00     0.188 C 
ATOM     21  C   UNK d   1       4.446 -19.350 -37.820  0.00  0.00     0.167 C 
ENDBRANCH  11  16
ENDBRANCH   6   9
BRANCH   1  22
ATOM     22  C   UNK d   1       0.783 -14.994 -36.679  0.00  0.00     0.144 A 
ATOM     23  O   UNK d   1       1.461 -14.813 -37.773  0.00  0.00    -0.298 OA
ATOM     24  C   UNK d   1       1.967 -13.634 -37.837  0.00  0.00     0.122 A 
ATOM     25 Br   UNK d   1       3.051 -12.875 -39.248  0.00  0.00    -0.023 Br
ATOM     26  C   UNK d   1       1.612 -12.950 -36.701  0.00  0.00     0.048 A 
ATOM     27  C   UNK d   1       0.855 -13.822 -35.961  0.00  0.00     0.046 A 
ENDBRANCH   1  22
TORSDOF 3
ENDMDL
