/Users/jonathanwahrer/Desktop/Msc/3_Semester/Drug_Design_Praktikum/waehrer_HTS_screening/HTS_experiment/out/docking_results/vina_output/6y4q/0755_docked.pdbqt
 OpenBabel03232217523D

 28 31  0  0  0  0  0  0  0  0999 V2000
    5.8020  -25.3960  -43.6560 C   0  0  0  0  0  0  0  0  0  0  0  0
    5.0280  -26.3510  -43.8160 O   0  0  0  0  0  0  0  0  0  0  0  0
    5.3080  -24.0880  -43.4080 N   0  0  0  0  0  0  0  0  0  0  0  0
    6.2270  -22.9690  -43.2200 C   0  0  0  0  0  2  0  0  0  0  0  0
    5.4420  -21.6970  -42.9060 C   0  0  0  0  0  2  0  0  0  0  0  0
    4.5170  -22.0170  -41.8370 N   0  0  0  0  0  0  0  0  0  0  0  0
    3.5730  -23.0820  -42.0380 C   0  0  0  0  0  2  0  0  0  0  0  0
    3.8910  -23.7950  -43.3280 C   0  0  0  0  0  2  0  0  0  0  0  0
    4.5280  -21.2960  -40.5980 C   0  0  0  0  0  0  0  0  0  0  0  0
    5.6550  -21.1290  -39.8910 N   0  0  0  0  0  0  0  0  0  0  0  0
    5.6340  -20.4530  -38.7370 C   0  0  0  0  0  0  0  0  0  0  0  0
    4.4980  -19.9210  -38.2470 N   0  0  0  0  0  0  0  0  0  0  0  0
    6.8870  -20.2730  -37.9630 C   0  0  0  0  0  1  0  0  0  0  0  0
    3.3330  -20.0520  -38.9060 C   0  0  0  0  0  0  0  0  0  0  0  0
    3.3750  -20.7520  -40.0930 C   0  0  0  0  0  3  0  0  0  0  0  0
    2.1130  -19.5110  -38.4320 N   0  0  0  0  0  0  0  0  0  0  0  0
    0.8510  -20.1240  -38.7930 C   0  0  0  0  0  2  0  0  0  0  0  0
   -0.2130  -19.5230  -37.8990 C   0  0  0  0  0  2  0  0  0  0  0  0
   -0.2790  -18.1080  -38.1440 N   0  0  0  0  0  0  0  0  0  0  0  0
    0.9830  -17.4380  -38.1610 C   0  0  0  0  0  2  0  0  0  0  0  0
   -1.1120  -17.8450  -39.2900 C   0  0  0  0  0  1  0  0  0  0  0  0
    2.0500  -18.3400  -37.5780 C   0  0  0  0  0  2  0  0  0  0  0  0
    7.2650  -25.6190  -43.7220 C   0  0  0  0  0  0  0  0  0  0  0  0
    8.0620  -25.8950  -42.7200 O   0  0  0  0  0  0  0  0  0  0  0  0
    9.3060  -26.0370  -43.1000 C   0  0  0  0  0  0  0  0  0  0  0  0
   10.7850  -26.4420  -41.9600 Br  0  0  0  0  0  0  0  0  0  0  0  0
    9.3470  -25.8400  -44.4630 C   0  0  0  0  0  3  0  0  0  0  0  0
    8.0560  -25.5780  -44.8450 C   0  0  0  0  0  3  0  0  0  0  0  0
  1  3  1  0  0  0  0
  2  1  2  0  0  0  0
  3  8  1  0  0  0  0
  3  4  1  0  0  0  0
  4  5  1  0  0  0  0
  5  6  1  0  0  0  0
  6  9  1  0  0  0  0
  7  6  1  0  0  0  0
  8  7  1  0  0  0  0
  9 15  2  0  0  0  0
  9 10  1  0  0  0  0
 10 11  2  0  0  0  0
 11 12  1  0  0  0  0
 11 13  1  0  0  0  0
 14 16  1  0  0  0  0
 14 12  2  0  0  0  0
 15 14  1  0  0  0  0
 16 22  1  0  0  0  0
 17 16  1  0  0  0  0
 17 18  1  0  0  0  0
 19 18  1  0  0  0  0
 20 19  1  0  0  0  0
 20 22  1  0  0  0  0
 21 19  1  0  0  0  0
 23  1  1  0  0  0  0
 23 24  1  0  0  0  0
 25 24  1  0  0  0  0
 25 26  1  0  0  0  0
 27 25  2  0  0  0  0
 28 27  1  0  0  0  0
 28 23  2  0  0  0  0
M  END
>  <Pose>
1

>  <Score>
-6.381

$$$$
