/Users/jonathanwahrer/Desktop/Msc/3_Semester/Drug_Design_Praktikum/waehrer_HTS_screening/HTS_experiment/out/docking_results/vina_output/6y4q/0767_docked.pdbqt
 OpenBabel03232217523D

 32 35  0  0  0  0  0  0  0  0999 V2000
   -0.4080  -18.7350  -37.5490 C   0  0  0  0  0  2  0  0  0  0  0  0
    0.5630  -19.6000  -38.1270 N   0  0  0  0  0  0  0  0  0  0  0  0
    1.9550  -19.4340  -37.8860 C   0  0  0  0  0  0  0  0  0  0  0  0
    2.3250  -18.4760  -37.1270 O   0  0  0  0  0  0  0  0  0  0  0  0
    0.2560  -20.3770  -38.7420 H   0  0  0  0  0  0  0  0  0  0  0  0
    2.9530  -20.3180  -38.4760 C   0  0  0  0  0  0  0  0  0  0  0  0
    3.8570  -20.9590  -37.7800 O   0  0  0  0  0  0  0  0  0  0  0  0
    4.6110  -21.6720  -38.5670 N   0  0  0  0  0  0  0  0  0  0  0  0
    4.2080  -21.5110  -39.8470 C   0  0  0  0  0  0  0  0  0  0  0  0
    3.1710  -20.6610  -39.7510 N   0  0  0  0  0  0  0  0  0  0  0  0
    4.7740  -22.1230  -41.0440 C   0  0  0  0  0  0  0  0  0  0  0  0
    6.0270  -22.1390  -41.4210 O   0  0  0  0  0  0  0  0  0  0  0  0
    6.1980  -22.7710  -42.5430 C   0  0  0  0  0  0  0  0  0  0  0  0
    7.8030  -23.0750  -43.5070 Br  0  0  0  0  0  0  0  0  0  0  0  0
    4.9570  -23.2350  -42.9830 C   0  0  0  0  0  3  0  0  0  0  0  0
    4.0630  -22.8090  -42.0120 C   0  0  0  0  0  3  0  0  0  0  0  0
   -0.7160  -17.5310  -38.4140 C   0  0  0  0  0  2  0  0  0  0  0  0
   -0.1240  -16.3200  -37.8640 N   0  0  0  0  0  0  0  0  0  0  0  0
    0.9340  -15.7030  -38.5530 C   0  0  0  0  0  0  0  0  0  0  0  0
    1.2920  -16.2840  -39.6390 O   0  0  0  0  0  0  0  0  0  0  0  0
   -0.4660  -15.9010  -36.9800 H   0  0  0  0  0  0  0  0  0  0  0  0
    1.6550  -14.5110  -38.1880 C   0  0  0  0  0  0  0  0  0  0  0  0
    2.4290  -13.8760  -39.1590 C   0  0  0  0  0  3  0  0  0  0  0  0
    3.1180  -12.7330  -38.8400 C   0  0  0  0  0  0  0  0  0  0  0  0
    3.0500  -12.2180  -37.5830 C   0  0  0  0  0  0  0  0  0  0  0  0
    3.9020  -12.0700  -39.7890 C   0  0  0  0  0  3  0  0  0  0  0  0
    3.7530  -11.0540  -37.2640 C   0  0  0  0  0  3  0  0  0  0  0  0
    2.3190  -12.8330  -36.6990 O   0  0  0  0  0  0  0  0  0  0  0  0
    4.5250  -10.3990  -38.1930 C   0  0  0  0  0  3  0  0  0  0  0  0
    4.5900  -10.9230  -39.4580 C   0  0  0  0  0  3  0  0  0  0  0  0
    1.6280  -13.9410  -36.9390 C   0  0  0  0  0  0  0  0  0  0  0  0
    0.9640  -14.4350  -35.9970 O   0  0  0  0  0  0  0  0  0  0  0  0
  2  3  1  0  0  0  0
  2  1  1  0  0  0  0
  3  4  2  0  0  0  0
  5  2  1  0  0  0  0
  6  3  1  0  0  0  0
  6  7  1  0  0  0  0
  8  7  1  0  0  0  0
  9 10  1  0  0  0  0
  9  8  2  0  0  0  0
 10  6  2  0  0  0  0
 11  9  1  0  0  0  0
 12 11  1  0  0  0  0
 13 12  1  0  0  0  0
 14 13  1  0  0  0  0
 15 13  2  0  0  0  0
 15 16  1  0  0  0  0
 16 11  2  0  0  0  0
 17 18  1  0  0  0  0
 17  1  1  0  0  0  0
 18 21  1  0  0  0  0
 19 22  1  0  0  0  0
 19 18  1  0  0  0  0
 20 19  2  0  0  0  0
 22 31  1  0  0  0  0
 23 24  1  0  0  0  0
 23 22  2  0  0  0  0
 24 25  1  0  0  0  0
 25 27  2  0  0  0  0
 25 28  1  0  0  0  0
 26 30  1  0  0  0  0
 26 24  2  0  0  0  0
 29 27  1  0  0  0  0
 30 29  2  0  0  0  0
 31 28  1  0  0  0  0
 31 32  2  0  0  0  0
M  END
>  <Pose>
1

>  <Score>
-7.282

$$$$
