MODEL 1
REMARK VINA RESULT:    -7.282      0.000      0.000
REMARK INTER + INTRA:         -11.028
REMARK INTER:                  -9.836
REMARK INTRA:                  -1.192
REMARK UNBOUND:                -1.192
REMARK  6 active torsions:
REMARK  status: ('A' for Active; 'I' for Inactive)
REMARK    1  A    between atoms: C_4  and  C_7 
REMARK    2  A    between atoms: C_10  and  C_12 
REMARK       I    between atoms: C_12  and  N_14 
REMARK    3  A    between atoms: N_14  and  C_15 
REMARK    4  A    between atoms: C_15  and  C_16 
REMARK    5  A    between atoms: C_16  and  N_17 
REMARK       I    between atoms: N_17  and  C_18 
REMARK    6  A    between atoms: C_18  and  C_20 
ROOT
ATOM      1  C   UNK d   1      -0.408 -18.735 -37.549  0.00  0.00     0.142 C 
ENDROOT
BRANCH   1   2
ATOM      2  N   UNK d   1       0.563 -19.600 -38.127  0.00  0.00    -0.352 N 
ATOM      3  C   UNK d   1       1.955 -19.434 -37.886  0.00  0.00     0.297 C 
ATOM      4  O   UNK d   1       2.325 -18.476 -37.127  0.00  0.00    -0.264 OA
ATOM      5  H   UNK d   1       0.256 -20.377 -38.742  0.00  0.00     0.162 HD
BRANCH   3   6
ATOM      6  C   UNK d   1       2.953 -20.318 -38.476  0.00  0.00     0.264 A 
ATOM      7  O   UNK d   1       3.857 -20.959 -37.780  0.00  0.00    -0.185 OA
ATOM      8  N   UNK d   1       4.611 -21.672 -38.567  0.00  0.00    -0.103 NA
ATOM      9  C   UNK d   1       4.208 -21.511 -39.847  0.00  0.00     0.213 A 
ATOM     10  N   UNK d   1       3.171 -20.661 -39.751  0.00  0.00    -0.193 NA
BRANCH   9  11
ATOM     11  C   UNK d   1       4.774 -22.123 -41.044  0.00  0.00     0.127 A 
ATOM     12  O   UNK d   1       6.027 -22.139 -41.421  0.00  0.00    -0.299 OA
ATOM     13  C   UNK d   1       6.198 -22.771 -42.543  0.00  0.00     0.122 A 
ATOM     14 Br   UNK d   1       7.803 -23.075 -43.507  0.00  0.00    -0.023 Br
ATOM     15  C   UNK d   1       4.957 -23.235 -42.983  0.00  0.00     0.048 A 
ATOM     16  C   UNK d   1       4.063 -22.809 -42.012  0.00  0.00     0.045 A 
ENDBRANCH   9  11
ENDBRANCH   3   6
ENDBRANCH   1   2
BRANCH   1  17
ATOM     17  C   UNK d   1      -0.716 -17.531 -38.414  0.00  0.00     0.142 C 
BRANCH  17  18
ATOM     18  N   UNK d   1      -0.124 -16.320 -37.864  0.00  0.00    -0.355 N 
ATOM     19  C   UNK d   1       0.934 -15.703 -38.553  0.00  0.00     0.257 C 
ATOM     20  O   UNK d   1       1.292 -16.284 -39.639  0.00  0.00    -0.267 OA
ATOM     21  H   UNK d   1      -0.466 -15.901 -36.980  0.00  0.00     0.162 HD
BRANCH  19  22
ATOM     22  C   UNK d   1       1.655 -14.511 -38.188  0.00  0.00     0.108 A 
ATOM     23  C   UNK d   1       2.429 -13.876 -39.159  0.00  0.00     0.037 A 
ATOM     24  C   UNK d   1       3.118 -12.733 -38.840  0.00  0.00    -0.001 A 
ATOM     25  C   UNK d   1       3.050 -12.218 -37.583  0.00  0.00     0.089 A 
ATOM     26  C   UNK d   1       3.902 -12.070 -39.789  0.00  0.00     0.014 A 
ATOM     27  C   UNK d   1       3.753 -11.054 -37.264  0.00  0.00     0.038 A 
ATOM     28  O   UNK d   1       2.319 -12.833 -36.699  0.00  0.00    -0.274 OA
ATOM     29  C   UNK d   1       4.525 -10.399 -38.193  0.00  0.00     0.003 A 
ATOM     30  C   UNK d   1       4.590 -10.923 -39.458  0.00  0.00     0.001 A 
ATOM     31  C   UNK d   1       1.628 -13.941 -36.939  0.00  0.00     0.304 A 
ATOM     32  O   UNK d   1       0.964 -14.435 -35.997  0.00  0.00    -0.259 OA
ENDBRANCH  19  22
ENDBRANCH  17  18
ENDBRANCH   1  17
TORSDOF 6
ENDMDL
