MODEL 1
REMARK VINA RESULT:    -6.210      0.000      0.000
REMARK INTER + INTRA:          -8.792
REMARK INTER:                  -8.388
REMARK INTRA:                  -0.403
REMARK UNBOUND:                -0.403
REMARK  7 active torsions:
REMARK  status: ('A' for Active; 'I' for Inactive)
REMARK    1  A    between atoms: N_4  and  C_10 
REMARK    2  A    between atoms: C_11  and  O_33 
REMARK       I    between atoms: N_18  and  C_21 
REMARK    3  A    between atoms: C_21  and  C_23 
REMARK    4  A    between atoms: C_25  and  O_29 
REMARK    5  A    between atoms: O_29  and  C_30 
REMARK    6  A    between atoms: C_30  and  C_31 
REMARK    7  A    between atoms: C_31  and  N_32 
ROOT
ATOM      1  C   UNK d   1       4.592 -20.196 -42.065  0.00  0.00     0.152 C 
ATOM      2  C   UNK d   1       5.278 -20.878 -40.874  0.00  0.00     0.080 C 
ATOM      3  C   UNK d   1       4.266 -21.142 -39.812  0.00  0.00     0.077 C 
ATOM      4  C   UNK d   1       3.722 -19.817 -39.326  0.00  0.00     0.067 C 
ATOM      5  O   UNK d   1       3.941 -18.789 -40.223  0.00  0.00    -0.378 OA
ATOM      6  C   UNK d   1       3.680 -19.136 -41.542  0.00  0.00     0.197 C 
ATOM      7  C   UNK d   1       2.294 -20.018 -38.970  0.00  0.00     0.058 C 
ATOM      8  C   UNK d   1       1.736 -18.689 -38.437  0.00  0.00     0.128 C 
ATOM      9  N   UNK d   1       2.385 -18.414 -37.198  0.00  0.00    -0.359 N 
ATOM     10  C   UNK d   1       3.534 -19.326 -36.880  0.00  0.00     0.128 C 
ATOM     11  C   UNK d   1       4.454 -19.466 -38.048  0.00  0.00     0.058 C 
ATOM     12  C   UNK d   1       2.057 -17.413 -36.304  0.00  0.00     0.187 C 
ATOM     13  O   UNK d   1       2.792 -17.371 -35.212  0.00  0.00    -0.171 OA
ATOM     14  C   UNK d   1       6.037 -22.090 -41.309  0.00  0.00     0.048 C 
ENDROOT
BRANCH   2  15
ATOM     15  O   UNK d   1       6.197 -19.955 -40.370  0.00  0.00    -0.388 OA
ATOM     16  H   UNK d   1       6.425 -20.119 -39.420  0.00  0.00     0.210 HD
ENDBRANCH   2  15
BRANCH   1  17
ATOM     17  N   UNK d   1       4.003 -21.132 -42.967  0.00  0.00    -0.298 N 
ATOM     18  C   UNK d   1       2.913 -21.870 -42.690  0.00  0.00     0.121 A 
ATOM     19  C   UNK d   1       2.371 -22.763 -43.579  0.00  0.00     0.094 A 
ATOM     20 Br   UNK d   1       0.826 -23.741 -43.051  0.00  0.00    -0.044 Br
ATOM     21  C   UNK d   1       2.949 -22.928 -44.813  0.00  0.00     0.268 A 
ATOM     22  N   UNK d   1       4.038 -22.190 -45.090  0.00  0.00    -0.274 N 
ATOM     23  O   UNK d   1       2.447 -23.748 -45.620  0.00  0.00    -0.267 OA
ATOM     24  C   UNK d   1       4.537 -21.338 -44.209  0.00  0.00     0.329 A 
ATOM     25  H   UNK d   1       4.466 -22.326 -46.030  0.00  0.00     0.173 HD
ATOM     26  O   UNK d   1       5.564 -20.680 -44.545  0.00  0.00    -0.246 OA
ENDBRANCH   1  17
BRANCH  12  27
ATOM     27  C   UNK d   1       1.055 -16.408 -36.358  0.00  0.00     0.020 A 
ATOM     28  C   UNK d   1       1.415 -15.049 -36.319  0.00  0.00     0.052 A 
ATOM     29  C   UNK d   1       0.554 -13.999 -36.381  0.00  0.00     0.069 A 
ATOM     30  C   UNK d   1      -0.815 -14.315 -36.496  0.00  0.00     0.037 A 
ATOM     31  C   UNK d   1      -1.186 -15.616 -36.536  0.00  0.00     0.004 A 
ATOM     32  C   UNK d   1      -0.270 -16.680 -36.469  0.00  0.00     0.016 A 
BRANCH  29  33
ATOM     33  O   UNK d   1       0.942 -12.693 -36.336  0.00  0.00    -0.349 OA
BRANCH  33  34
ATOM     34  C   UNK d   1       1.342 -11.823 -37.305  0.00  0.00     0.205 C 
BRANCH  34  35
ATOM     35  C   UNK d   1       2.820 -11.802 -37.495  0.00  0.00     0.293 C 
BRANCH  35  36
ATOM     36  N   UNK d   1       3.175 -12.604 -38.667  0.00  0.00     0.080 N 
ATOM     37  H   UNK d   1       2.992 -12.104 -39.550  0.00  0.00     0.312 HD
ATOM     38  H   UNK d   1       2.810 -13.560 -38.622  0.00  0.00     0.312 HD
ENDBRANCH  35  36
ENDBRANCH  34  35
ENDBRANCH  33  34
ENDBRANCH  29  33
ENDBRANCH  12  27
TORSDOF 7
ENDMDL
