MODEL 1
REMARK VINA RESULT:    -7.229      0.000      0.000
REMARK INTER + INTRA:         -10.198
REMARK INTER:                  -9.554
REMARK INTRA:                  -0.644
REMARK UNBOUND:                -0.644
REMARK  7 active torsions:
REMARK  status: ('A' for Active; 'I' for Inactive)
REMARK    1  A    between atoms: N_4  and  C_10 
REMARK    2  A    between atoms: C_11  and  O_33 
REMARK       I    between atoms: N_18  and  C_21 
REMARK    3  A    between atoms: C_21  and  C_23 
REMARK    4  A    between atoms: C_23  and  N_24 
REMARK    5  A    between atoms: C_23  and  C_25 
REMARK    6  A    between atoms: C_25  and  C_26 
REMARK    7  A    between atoms: C_29  and  O_32 
ROOT
ATOM      1  C   UNK d   1       2.293 -19.951 -38.300  0.00  0.00     0.152 C 
ATOM      2  C   UNK d   1       2.785 -18.558 -38.316  0.00  0.00     0.080 C 
ATOM      3  C   UNK d   1       1.837 -17.552 -37.652  0.00  0.00     0.077 C 
ATOM      4  C   UNK d   1       0.457 -17.645 -38.254  0.00  0.00     0.067 C 
ATOM      5  O   UNK d   1       0.243 -18.868 -38.861  0.00  0.00    -0.378 OA
ATOM      6  C   UNK d   1       0.791 -19.942 -38.231  0.00  0.00     0.197 C 
ATOM      7  C   UNK d   1       0.312 -16.498 -39.238  0.00  0.00     0.058 C 
ATOM      8  C   UNK d   1      -0.373 -15.328 -38.585  0.00  0.00     0.129 C 
ATOM      9  N   UNK d   1       0.120 -15.196 -37.237  0.00  0.00    -0.350 N 
ATOM     10  C   UNK d   1      -0.266 -16.255 -36.316  0.00  0.00     0.129 C 
ATOM     11  C   UNK d   1      -0.550 -17.490 -37.140  0.00  0.00     0.058 C 
ATOM     12  C   UNK d   1       0.901 -14.102 -36.857  0.00  0.00     0.253 C 
ATOM     13  O   UNK d   1       1.284 -14.099 -35.630  0.00  0.00    -0.271 OA
ATOM     14  C   UNK d   1       3.215 -18.040 -39.650  0.00  0.00     0.048 C 
ENDROOT
BRANCH   2  15
ATOM     15  O   UNK d   1       3.942 -18.517 -37.497  0.00  0.00    -0.388 OA
ATOM     16  H   UNK d   1       4.076 -17.625 -37.102  0.00  0.00     0.210 HD
ENDBRANCH   2  15
BRANCH   1  17
ATOM     17  N   UNK d   1       2.765 -20.772 -39.396  0.00  0.00    -0.298 N 
ATOM     18  C   UNK d   1       2.075 -20.813 -40.531  0.00  0.00     0.121 A 
ATOM     19  C   UNK d   1       2.494 -21.589 -41.587  0.00  0.00     0.094 A 
ATOM     20 Br   UNK d   1       1.480 -21.634 -43.218  0.00  0.00    -0.044 Br
ATOM     21  C   UNK d   1       3.650 -22.327 -41.448  0.00  0.00     0.268 A 
ATOM     22  N   UNK d   1       4.306 -22.245 -40.276  0.00  0.00    -0.274 N 
ATOM     23  O   UNK d   1       4.077 -23.056 -42.391  0.00  0.00    -0.267 OA
ATOM     24  C   UNK d   1       3.881 -21.483 -39.256  0.00  0.00     0.329 A 
ATOM     25  H   UNK d   1       5.200 -22.813 -40.164  0.00  0.00     0.173 HD
ATOM     26  O   UNK d   1       4.571 -21.469 -38.184  0.00  0.00    -0.246 OA
ENDBRANCH   1  17
BRANCH  12  27
ATOM     27  C   UNK d   1       1.342 -12.958 -37.649  0.00  0.00     0.313 C 
BRANCH  27  28
ATOM     28  N   UNK d   1       0.339 -11.892 -37.676  0.00  0.00     0.092 N 
ATOM     29  H   UNK d   1       0.464 -11.280 -38.511  0.00  0.00     0.313 HD
ATOM     30  H   UNK d   1       0.488 -11.276 -36.838  0.00  0.00     0.313 HD
ENDBRANCH  27  28
BRANCH  27  31
ATOM     31  C   UNK d   1       2.625 -12.307 -37.184  0.00  0.00     0.083 C 
BRANCH  31  32
ATOM     32  C   UNK d   1       3.428 -12.037 -38.434  0.00  0.00    -0.056 A 
ATOM     33  C   UNK d   1       3.229 -12.793 -39.559  0.00  0.00     0.010 A 
ATOM     34  C   UNK d   1       3.991 -12.511 -40.689  0.00  0.00     0.037 A 
ATOM     35  C   UNK d   1       4.926 -11.502 -40.700  0.00  0.00     0.065 A 
ATOM     36  C   UNK d   1       5.098 -10.762 -39.547  0.00  0.00     0.037 A 
ATOM     37  C   UNK d   1       4.359 -11.019 -38.410  0.00  0.00     0.010 A 
BRANCH  35  38
ATOM     38  O   UNK d   1       5.654 -11.266 -41.851  0.00  0.00    -0.361 OA
ATOM     39  H   UNK d   1       6.294 -10.481 -41.970  0.00  0.00     0.217 HD
ENDBRANCH  35  38
ENDBRANCH  31  32
ENDBRANCH  27  31
ENDBRANCH  12  27
TORSDOF 7
ENDMDL
