MODEL 1
REMARK VINA RESULT:    -6.215      0.000      0.000
REMARK INTER + INTRA:          -9.858
REMARK INTER:                  -8.213
REMARK INTRA:                  -1.644
REMARK UNBOUND:                -1.644
REMARK  6 active torsions:
REMARK  status: ('A' for Active; 'I' for Inactive)
REMARK    1  A    between atoms: N_4  and  C_10 
REMARK    2  A    between atoms: C_11  and  O_34 
REMARK       I    between atoms: N_18  and  C_21 
REMARK    3  A    between atoms: C_21  and  C_23 
REMARK    4  A    between atoms: C_23  and  N_24 
REMARK    5  A    between atoms: C_23  and  C_28 
REMARK       I    between atoms: N_24  and  C_25 
REMARK    6  A    between atoms: C_28  and  C_29 
ROOT
ATOM      1  C   UNK d   1       1.154 -19.135 -38.042  0.00  0.00     0.152 C 
ATOM      2  C   UNK d   1       0.677 -18.192 -39.159  0.00  0.00     0.080 C 
ATOM      3  C   UNK d   1      -0.671 -17.666 -38.647  0.00  0.00     0.077 C 
ATOM      4  C   UNK d   1      -1.569 -18.805 -38.250  0.00  0.00     0.067 C 
ATOM      5  O   UNK d   1      -0.992 -19.990 -38.636  0.00  0.00    -0.378 OA
ATOM      6  C   UNK d   1       0.225 -20.278 -38.021  0.00  0.00     0.197 C 
ATOM      7  C   UNK d   1      -2.841 -18.648 -39.072  0.00  0.00     0.058 C 
ATOM      8  C   UNK d   1      -3.779 -17.691 -38.380  0.00  0.00     0.129 C 
ATOM      9  N   UNK d   1      -3.032 -16.818 -37.459  0.00  0.00    -0.350 N 
ATOM     10  C   UNK d   1      -2.466 -17.474 -36.317  0.00  0.00     0.129 C 
ATOM     11  C   UNK d   1      -1.957 -18.825 -36.814  0.00  0.00     0.058 C 
ATOM     12  C   UNK d   1      -2.853 -15.456 -37.698  0.00  0.00     0.243 C 
ATOM     13  O   UNK d   1      -3.300 -14.908 -38.780  0.00  0.00    -0.271 OA
ATOM     14  C   UNK d   1       0.540 -18.915 -40.461  0.00  0.00     0.048 C 
ENDROOT
BRANCH   2  15
ATOM     15  O   UNK d   1       1.528 -17.123 -39.335  0.00  0.00    -0.388 OA
ATOM     16  H   UNK d   1       1.426 -16.497 -38.573  0.00  0.00     0.210 HD
ENDBRANCH   2  15
BRANCH   1  17
ATOM     17  N   UNK d   1       2.542 -19.359 -38.072  0.00  0.00    -0.298 N 
ATOM     18  C   UNK d   1       3.177 -20.198 -38.893  0.00  0.00     0.121 A 
ATOM     19  C   UNK d   1       4.562 -20.363 -38.860  0.00  0.00     0.094 A 
ATOM     20 Br   UNK d   1       5.362 -21.581 -40.069  0.00  0.00    -0.044 Br
ATOM     21  C   UNK d   1       5.313 -19.646 -37.956  0.00  0.00     0.268 A 
ATOM     22  N   UNK d   1       4.660 -18.805 -37.134  0.00  0.00    -0.274 N 
ATOM     23  O   UNK d   1       6.579 -19.778 -37.903  0.00  0.00    -0.267 OA
ATOM     24  C   UNK d   1       3.325 -18.666 -37.190  0.00  0.00     0.329 A 
ATOM     25  H   UNK d   1       5.190 -18.233 -36.425  0.00  0.00     0.173 HD
ATOM     26  O   UNK d   1       2.772 -17.861 -36.393  0.00  0.00    -0.246 OA
ENDBRANCH   1  17
BRANCH  12  27
ATOM     27  C   UNK d   1      -2.167 -14.566 -36.774  0.00  0.00     0.182 C 
BRANCH  27  28
ATOM     28  N   UNK d   1      -0.873 -14.186 -37.286  0.00  0.00    -0.348 N 
ATOM     29  C   UNK d   1       0.383 -14.635 -36.895  0.00  0.00     0.214 C 
ATOM     30  O   UNK d   1       0.609 -15.466 -35.990  0.00  0.00    -0.274 OA
ATOM     31  C   UNK d   1       1.636 -14.119 -37.577  0.00  0.00     0.117 C 
ATOM     32  H   UNK d   1      -0.905 -13.460 -38.066  0.00  0.00     0.163 HD
ENDBRANCH  27  28
BRANCH  27  33
ATOM     33  C   UNK d   1      -2.996 -13.272 -36.500  0.00  0.00     0.095 C 
BRANCH  33  34
ATOM     34  C   UNK d   1      -2.102 -12.190 -36.050  0.00  0.00     0.053 A 
ATOM     35  N   UNK d   1      -1.341 -11.370 -36.756  0.00  0.00    -0.247 NA
ATOM     36  C   UNK d   1      -0.662 -10.504 -35.954  0.00  0.00     0.207 A 
ATOM     37  N   UNK d   1      -1.020 -10.804 -34.692  0.00  0.00    -0.359 N 
ATOM     38  C   UNK d   1      -1.897 -11.830 -34.728  0.00  0.00     0.116 A 
ATOM     39  H   UNK d   1      -0.649 -10.295 -33.853  0.00  0.00     0.166 HD
ENDBRANCH  33  34
ENDBRANCH  27  33
ENDBRANCH  12  27
TORSDOF 6
ENDMDL
