/Users/jonathanwahrer/Desktop/Msc/3_Semester/Drug_Design_Praktikum/waehrer_HTS_screening/HTS_experiment/out/docking_results/vina_output/6y4q/0784_docked.pdbqt
 OpenBabel03232217533D

 39 42  0  0  1  0  0  0  0  0999 V2000
    1.1540  -19.1350  -38.0420 C   0  0  1  0  0  3  0  0  0  0  0  0
    0.6770  -18.1920  -39.1590 C   0  0  2  0  0  0  0  0  0  0  0  0
   -0.6710  -17.6660  -38.6470 C   0  0  0  0  0  2  0  0  0  0  0  0
   -1.5690  -18.8050  -38.2500 C   0  0  2  0  0  0  0  0  0  0  0  0
   -0.9920  -19.9900  -38.6360 O   0  0  0  0  0  0  0  0  0  0  0  0
    0.2250  -20.2780  -38.0210 C   0  0  0  0  0  2  0  0  0  0  0  0
   -2.8410  -18.6480  -39.0720 C   0  0  0  0  0  2  0  0  0  0  0  0
   -3.7790  -17.6910  -38.3800 C   0  0  0  0  0  2  0  0  0  0  0  0
   -3.0320  -16.8180  -37.4590 N   0  0  0  0  0  0  0  0  0  0  0  0
   -2.4660  -17.4740  -36.3170 C   0  0  0  0  0  2  0  0  0  0  0  0
   -1.9570  -18.8250  -36.8140 C   0  0  0  0  0  2  0  0  0  0  0  0
   -2.8530  -15.4560  -37.6980 C   0  0  0  0  0  0  0  0  0  0  0  0
   -3.3000  -14.9080  -38.7800 O   0  0  0  0  0  0  0  0  0  0  0  0
    0.5400  -18.9150  -40.4610 C   0  0  0  0  0  1  0  0  0  0  0  0
    1.5280  -17.1230  -39.3350 O   0  0  0  0  0  0  0  0  0  0  0  0
    1.4260  -16.4970  -38.5730 H   0  0  0  0  0  0  0  0  0  0  0  0
    2.5420  -19.3590  -38.0720 N   0  0  0  0  0  0  0  0  0  0  0  0
    3.1770  -20.1980  -38.8930 C   0  0  0  0  0  3  0  0  0  0  0  0
    4.5620  -20.3630  -38.8600 C   0  0  0  0  0  0  0  0  0  0  0  0
    5.3620  -21.5810  -40.0690 Br  0  0  0  0  0  0  0  0  0  0  0  0
    5.3130  -19.6460  -37.9560 C   0  0  0  0  0  0  0  0  0  0  0  0
    4.6600  -18.8050  -37.1340 N   0  0  0  0  0  0  0  0  0  0  0  0
    6.5790  -19.7780  -37.9030 O   0  0  0  0  0  0  0  0  0  0  0  0
    3.3250  -18.6660  -37.1900 C   0  0  0  0  0  0  0  0  0  0  0  0
    5.1900  -18.2330  -36.4250 H   0  0  0  0  0  0  0  0  0  0  0  0
    2.7720  -17.8610  -36.3930 O   0  0  0  0  0  0  0  0  0  0  0  0
   -2.1670  -14.5660  -36.7740 C   0  0  1  0  0  3  0  0  0  0  0  0
   -0.8730  -14.1860  -37.2860 N   0  0  0  0  0  0  0  0  0  0  0  0
    0.3830  -14.6350  -36.8950 C   0  0  0  0  0  0  0  0  0  0  0  0
    0.6090  -15.4660  -35.9900 O   0  0  0  0  0  0  0  0  0  0  0  0
    1.6360  -14.1190  -37.5770 C   0  0  0  0  0  1  0  0  0  0  0  0
   -0.9050  -13.4600  -38.0660 H   0  0  0  0  0  0  0  0  0  0  0  0
   -2.9960  -13.2720  -36.5000 C   0  0  0  0  0  2  0  0  0  0  0  0
   -2.1020  -12.1900  -36.0500 C   0  0  0  0  0  0  0  0  0  0  0  0
   -1.3410  -11.3700  -36.7560 N   0  0  0  0  0  0  0  0  0  0  0  0
   -0.6620  -10.5040  -35.9540 C   0  0  0  0  0  3  0  0  0  0  0  0
   -1.0200  -10.8040  -34.6920 N   0  0  0  0  0  0  0  0  0  0  0  0
   -1.8970  -11.8300  -34.7280 C   0  0  0  0  0  3  0  0  0  0  0  0
   -0.6490  -10.2950  -33.8530 H   0  0  0  0  0  0  0  0  0  0  0  0
  1 17  1  6  0  0  0
  1  6  1  0  0  0  0
  2 14  1  6  0  0  0
  2  3  1  0  0  0  0
  2  1  1  0  0  0  0
  3  4  1  0  0  0  0
  4  7  1  6  0  0  0
  4 11  1  0  0  0  0
  5  4  1  0  0  0  0
  5  6  1  0  0  0  0
  7  8  1  0  0  0  0
  8  9  1  0  0  0  0
  9 10  1  0  0  0  0
 11 10  1  0  0  0  0
 12  9  1  0  0  0  0
 12 27  1  0  0  0  0
 13 12  2  0  0  0  0
 15  2  1  0  0  0  0
 15 16  1  0  0  0  0
 17 24  1  0  0  0  0
 18 19  2  0  0  0  0
 18 17  1  0  0  0  0
 19 21  1  0  0  0  0
 20 19  1  0  0  0  0
 21 23  2  0  0  0  0
 21 22  1  0  0  0  0
 22 25  1  0  0  0  0
 24 22  1  0  0  0  0
 24 26  2  0  0  0  0
 27 33  1  6  0  0  0
 28 29  1  0  0  0  0
 28 27  1  0  0  0  0
 29 30  2  0  0  0  0
 31 29  1  0  0  0  0
 32 28  1  0  0  0  0
 33 34  1  0  0  0  0
 34 38  2  0  0  0  0
 35 34  1  0  0  0  0
 35 36  2  0  0  0  0
 36 37  1  0  0  0  0
 37 39  1  0  0  0  0
 38 37  1  0  0  0  0
M  END
>  <Pose>
1

>  <Score>
-6.215

$$$$
