MODEL 1
REMARK VINA RESULT:    -5.962      0.000      0.000
REMARK INTER + INTRA:          -7.261
REMARK INTER:                  -7.008
REMARK INTRA:                  -0.254
REMARK UNBOUND:                -0.254
REMARK  3 active torsions:
REMARK  status: ('A' for Active; 'I' for Inactive)
REMARK    1  A    between atoms: C_7  and  C_9 
REMARK    2  A    between atoms: C_9  and  N_10 
REMARK       I    between atoms: N_10  and  C_11 
REMARK    3  A    between atoms: C_11  and  C_13 
ROOT
ATOM      1  N   UNK d   1       2.575 -18.076 -37.746  0.00  0.00    -0.355 N 
ATOM      2  C   UNK d   1       2.012 -17.238 -36.772  0.00  0.00     0.223 C 
ATOM      3  O   UNK d   1       2.351 -17.355 -35.576  0.00  0.00    -0.273 OA
ATOM      4  H   UNK d   1       2.286 -17.970 -38.737  0.00  0.00     0.162 HD
ENDROOT
BRANCH   1   5
ATOM      5  C   UNK d   1       3.549 -19.072 -37.357  0.00  0.00     0.183 C 
BRANCH   5   6
ATOM      6  C   UNK d   1       3.937 -19.923 -38.510  0.00  0.00     0.070 A 
ATOM      7  N   UNK d   1       3.145 -20.731 -39.239  0.00  0.00    -0.232 NA
ATOM      8  C   UNK d   1       3.876 -21.332 -40.194  0.00  0.00     0.134 A 
ATOM      9  N   UNK d   1       5.149 -20.911 -40.084  0.00  0.00    -0.314 N 
ATOM     10  C   UNK d   1       3.517 -22.243 -41.183  0.00  0.00     0.052 A 
ATOM     11  C   UNK d   1       6.076 -21.395 -40.959  0.00  0.00     0.117 A 
ATOM     12  C   UNK d   1       5.199 -20.046 -39.054  0.00  0.00     0.127 A 
ATOM     13  C   UNK d   1       5.752 -22.297 -41.948  0.00  0.00     0.027 A 
ATOM     14 Br   UNK d   1       7.057 -22.972 -43.176  0.00  0.00    -0.050 Br
ATOM     15  C   UNK d   1       4.448 -22.731 -42.065  0.00  0.00     0.024 A 
ENDBRANCH   5   6
ENDBRANCH   1   5
BRANCH   2  16
ATOM     16  C   UNK d   1       1.019 -16.214 -37.147  0.00  0.00     0.096 C 
ATOM     17  C   UNK d   1       0.241 -16.652 -38.363  0.00  0.00     0.145 C 
ATOM     18  N   UNK d   1      -0.431 -17.888 -38.012  0.00  0.00    -0.320 N 
ATOM     19  C   UNK d   1      -0.917 -18.062 -36.772  0.00  0.00     0.130 A 
ATOM     20  C   UNK d   1      -0.704 -18.995 -38.703  0.00  0.00     0.126 A 
ATOM     21  N   UNK d   1      -1.480 -19.287 -36.741  0.00  0.00    -0.135 NA
ATOM     22  C   UNK d   1      -0.827 -17.070 -35.690  0.00  0.00     0.081 C 
ATOM     23  N   UNK d   1      -1.352 -19.853 -37.905  0.00  0.00    -0.135 NA
ATOM     24  C   UNK d   1       0.105 -15.947 -35.979  0.00  0.00     0.023 C 
ATOM     25  C   UNK d   1      -0.377 -19.310 -40.128  0.00  0.00     0.093 C 
ENDBRANCH   2  16
TORSDOF 3
ENDMDL
