/Users/jonathanwahrer/Desktop/Msc/3_Semester/Drug_Design_Praktikum/waehrer_HTS_screening/HTS_experiment/out/docking_results/vina_output/6y4q/0786_docked.pdbqt
 OpenBabel03232217533D

 25 28  0  0  1  0  0  0  0  0999 V2000
    2.5750  -18.0760  -37.7460 N   0  0  0  0  0  0  0  0  0  0  0  0
    2.0120  -17.2380  -36.7720 C   0  0  0  0  0  0  0  0  0  0  0  0
    2.3510  -17.3550  -35.5760 O   0  0  0  0  0  0  0  0  0  0  0  0
    2.2860  -17.9700  -38.7370 H   0  0  0  0  0  0  0  0  0  0  0  0
    3.5490  -19.0720  -37.3570 C   0  0  0  0  0  2  0  0  0  0  0  0
    3.9370  -19.9230  -38.5100 C   0  0  0  0  0  0  0  0  0  0  0  0
    3.1450  -20.7310  -39.2390 N   0  0  0  0  0  0  0  0  0  0  0  0
    3.8760  -21.3320  -40.1940 C   0  0  0  0  0  0  0  0  0  0  0  0
    5.1490  -20.9110  -40.0840 N   0  0  0  0  0  0  0  0  0  0  0  0
    3.5170  -22.2430  -41.1830 C   0  0  0  0  0  3  0  0  0  0  0  0
    6.0760  -21.3950  -40.9590 C   0  0  0  0  0  3  0  0  0  0  0  0
    5.1990  -20.0460  -39.0540 C   0  0  0  0  0  3  0  0  0  0  0  0
    5.7520  -22.2970  -41.9480 C   0  0  0  0  0  0  0  0  0  0  0  0
    7.0570  -22.9720  -43.1760 Br  0  0  0  0  0  0  0  0  0  0  0  0
    4.4480  -22.7310  -42.0650 C   0  0  0  0  0  3  0  0  0  0  0  0
    1.0190  -16.2140  -37.1470 C   0  0  1  0  0  3  0  0  0  0  0  0
    0.2410  -16.6520  -38.3630 C   0  0  0  0  0  2  0  0  0  0  0  0
   -0.4310  -17.8880  -38.0120 N   0  0  0  0  0  0  0  0  0  0  0  0
   -0.9170  -18.0620  -36.7720 C   0  0  0  0  0  0  0  0  0  0  0  0
   -0.7040  -18.9950  -38.7030 C   0  0  0  0  0  0  0  0  0  0  0  0
   -1.4800  -19.2870  -36.7410 N   0  0  0  0  0  0  0  0  0  0  0  0
   -0.8270  -17.0700  -35.6900 C   0  0  0  0  0  2  0  0  0  0  0  0
   -1.3520  -19.8530  -37.9050 N   0  0  0  0  0  0  0  0  0  0  0  0
    0.1050  -15.9470  -35.9790 C   0  0  0  0  0  2  0  0  0  0  0  0
   -0.3770  -19.3100  -40.1280 C   0  0  0  0  0  1  0  0  0  0  0  0
  1  5  1  0  0  0  0
  1  2  1  0  0  0  0
  2  3  2  0  0  0  0
  4  1  1  0  0  0  0
  6  5  1  0  0  0  0
  7  6  1  0  0  0  0
  8  9  1  0  0  0  0
  8  7  2  0  0  0  0
  9 12  1  0  0  0  0
 10  8  1  0  0  0  0
 11  9  1  0  0  0  0
 12  6  2  0  0  0  0
 13 11  2  0  0  0  0
 14 13  1  0  0  0  0
 15 13  1  0  0  0  0
 15 10  2  0  0  0  0
 16  2  1  1  0  0  0
 16 24  1  0  0  0  0
 17 18  1  0  0  0  0
 17 16  1  0  0  0  0
 18 19  1  0  0  0  0
 19 21  2  0  0  0  0
 19 22  1  0  0  0  0
 20 18  1  0  0  0  0
 20 23  2  0  0  0  0
 23 21  1  0  0  0  0
 24 22  1  0  0  0  0
 25 20  1  0  0  0  0
M  END
>  <Pose>
1

>  <Score>
-5.962

$$$$
