MODEL 1
REMARK VINA RESULT:    -6.186      0.000      0.000
REMARK INTER + INTRA:          -6.734
REMARK INTER:                  -6.548
REMARK INTRA:                  -0.186
REMARK UNBOUND:                -0.186
REMARK  1 active torsions:
REMARK  status: ('A' for Active; 'I' for Inactive)
REMARK    1  A    between atoms: C_6  and  C_11 
REMARK       I    between atoms: C_11  and  N_13 
ROOT
ATOM      1  C   UNK d   1       3.390 -18.708 -37.001  0.00  0.00     0.274 C 
ATOM      2  O   UNK d   1       3.891 -18.908 -35.861  0.00  0.00    -0.266 OA
ATOM      3  N   UNK d   1       2.402 -17.700 -37.129  0.00  0.00    -0.343 N 
ATOM      4  C   UNK d   1       2.006 -16.944 -35.998  0.00  0.00     0.161 C 
ATOM      5  C   UNK d   1       0.621 -16.421 -36.079  0.00  0.00     0.241 C 
ATOM      6  N   UNK d   1      -0.097 -16.726 -37.283  0.00  0.00     0.096 N 
ATOM      7  C   UNK d   1       0.711 -16.475 -38.462  0.00  0.00     0.292 C 
ATOM      8  C   UNK d   1       1.838 -17.490 -38.435  0.00  0.00     0.156 C 
ATOM      9  C   UNK d   1      -1.275 -15.918 -37.189  0.00  0.00     0.273 C 
ATOM     10  C   UNK d   1      -0.823 -14.623 -36.561  0.00  0.00     0.032 C 
ATOM     11  C   UNK d   1       0.570 -14.903 -36.043  0.00  0.00     0.039 C 
ENDROOT
BRANCH   1  12
ATOM     12  C   UNK d   1       3.850 -19.519 -38.137  0.00  0.00     0.148 A 
ATOM     13  N   UNK d   1       3.248 -20.536 -38.770  0.00  0.00    -0.161 NA
ATOM     14  N   UNK d   1       3.993 -21.012 -39.755  0.00  0.00    -0.225 N 
ATOM     15  C   UNK d   1       3.829 -22.010 -40.662  0.00  0.00     0.141 A 
ATOM     16  C   UNK d   1       5.143 -20.316 -39.816  0.00  0.00     0.152 A 
ATOM     17  C   UNK d   1       4.785 -22.307 -41.608  0.00  0.00     0.046 A 
ATOM     18 Br   UNK d   1       4.531 -23.723 -42.882  0.00  0.00    -0.048 Br
ATOM     19  C   UNK d   1       5.954 -21.581 -41.650  0.00  0.00     0.139 A 
ATOM     20  N   UNK d   1       6.094 -20.601 -40.745  0.00  0.00    -0.240 NA
ATOM     21  C   UNK d   1       5.066 -19.378 -38.807  0.00  0.00     0.091 A 
ENDBRANCH   1  12
TORSDOF 1
ENDMDL
