MODEL 1
REMARK VINA RESULT:    -5.722      0.000      0.000
REMARK INTER + INTRA:          -6.842
REMARK INTER:                  -6.391
REMARK INTRA:                  -0.452
REMARK UNBOUND:                -0.452
REMARK  2 active torsions:
REMARK  status: ('A' for Active; 'I' for Inactive)
REMARK    1  A    between atoms: C_7  and  C_11 
REMARK       I    between atoms: C_11  and  N_13 
REMARK       I    between atoms: N_16  and  C_19 
REMARK    2  A    between atoms: C_19  and  C_21 
ROOT
ATOM      1  C   UNK d   1       0.496 -17.874 -38.828  0.00  0.00     0.259 C 
ATOM      2  O   UNK d   1      -0.555 -18.259 -39.417  0.00  0.00    -0.267 OA
ATOM      3  N   UNK d   1       0.434 -17.279 -37.541  0.00  0.00    -0.345 N 
ATOM      4  C   UNK d   1       1.703 -16.861 -36.928  0.00  0.00     0.146 C 
ATOM      5  C   UNK d   1       1.299 -15.737 -35.974  0.00  0.00     0.145 C 
ATOM      6  N   UNK d   1       0.277 -14.996 -36.652  0.00  0.00    -0.354 N 
ATOM      7  C   UNK d   1      -1.072 -15.613 -36.489  0.00  0.00     0.145 C 
ATOM      8  C   UNK d   1      -0.829 -17.083 -36.844  0.00  0.00     0.146 C 
ATOM      9  C   UNK d   1       0.407 -13.861 -37.435  0.00  0.00     0.211 C 
ATOM     10  O   UNK d   1      -0.687 -13.345 -37.913  0.00  0.00    -0.169 OA
ENDROOT
BRANCH   1  11
ATOM     11  C   UNK d   1       1.757 -18.061 -39.502  0.00  0.00     0.099 A 
ATOM     12  C   UNK d   1       2.269 -17.389 -40.587  0.00  0.00     0.160 A 
ATOM     13  N   UNK d   1       3.480 -17.888 -40.887  0.00  0.00    -0.178 NA
ATOM     14  N   UNK d   1       3.753 -18.863 -40.019  0.00  0.00    -0.225 N 
ATOM     15  C   UNK d   1       4.806 -19.659 -39.888  0.00  0.00     0.141 A 
ATOM     16  C   UNK d   1       2.727 -18.997 -39.161  0.00  0.00     0.167 A 
ATOM     17  C   UNK d   1       4.859 -20.599 -38.907  0.00  0.00     0.046 A 
ATOM     18 Br   UNK d   1       6.375 -21.737 -38.726  0.00  0.00    -0.048 Br
ATOM     19  C   UNK d   1       3.813 -20.731 -38.036  0.00  0.00     0.139 A 
ATOM     20  N   UNK d   1       2.764 -19.919 -38.187  0.00  0.00    -0.239 NA
ENDBRANCH   1  11
BRANCH   9  21
ATOM     21  C   UNK d   1       1.603 -13.132 -37.824  0.00  0.00     0.128 A 
ATOM     22  O   UNK d   1       2.192 -12.187 -37.079  0.00  0.00    -0.318 OA
ATOM     23  C   UNK d   1       3.235 -11.696 -37.656  0.00  0.00     0.142 A 
ATOM     24  C   UNK d   1       3.414 -12.307 -38.872  0.00  0.00     0.027 A 
ATOM     25  C   UNK d   1       2.370 -13.213 -38.961  0.00  0.00     0.043 A 
ENDBRANCH   9  21
TORSDOF 2
ENDMDL
