MODEL 1
REMARK VINA RESULT:    -7.468      0.000      0.000
REMARK INTER + INTRA:         -10.376
REMARK INTER:                  -9.651
REMARK INTRA:                  -0.725
REMARK UNBOUND:                -0.725
REMARK  5 active torsions:
REMARK  status: ('A' for Active; 'I' for Inactive)
REMARK    1  A    between atoms: C_7  and  C_11 
REMARK    2  A    between atoms: C_11  and  O_12 
REMARK    3  A    between atoms: O_12  and  C_13 
REMARK    4  A    between atoms: C_13  and  C_15 
REMARK    5  A    between atoms: C_15  and  N_16 
ROOT
ATOM      1  O   UNK d   1       1.823 -17.277 -37.289  0.00  0.00    -0.314 OA
ENDROOT
BRANCH   1   2
ATOM      2  C   UNK d   1       2.815 -18.070 -36.692  0.00  0.00     0.238 C 
BRANCH   2   3
ATOM      3  C   UNK d   1       3.533 -18.950 -37.651  0.00  0.00     0.066 A 
ATOM      4  N   UNK d   1       2.901 -19.520 -38.704  0.00  0.00    -0.233 NA
ATOM      5  C   UNK d   1       3.528 -20.316 -39.587  0.00  0.00     0.137 A 
ATOM      6  N   UNK d   1       4.838 -20.607 -39.488  0.00  0.00    -0.272 N 
ATOM      7  C   UNK d   1       2.844 -20.887 -40.663  0.00  0.00     0.052 A 
ATOM      8  C   UNK d   1       5.452 -21.409 -40.384  0.00  0.00     0.121 A 
ATOM      9  C   UNK d   1       5.510 -20.061 -38.453  0.00  0.00     0.255 A 
ATOM     10  C   UNK d   1       4.804 -21.986 -41.454  0.00  0.00     0.027 A 
ATOM     11 Br   UNK d   1       5.725 -23.119 -42.698  0.00  0.00    -0.050 Br
ATOM     12  C   UNK d   1       3.460 -21.707 -41.583  0.00  0.00     0.024 A 
ATOM     13  C   UNK d   1       4.877 -19.235 -37.529  0.00  0.00     0.104 A 
ATOM     14  O   UNK d   1       6.719 -20.325 -38.353  0.00  0.00    -0.268 OA
ENDBRANCH   2   3
ENDBRANCH   1   2
BRANCH   1  15
ATOM     15  C   UNK d   1       0.906 -16.499 -36.615  0.00  0.00     0.277 C 
ATOM     16  O   UNK d   1       0.636 -16.756 -35.425  0.00  0.00    -0.263 OA
BRANCH  15  17
ATOM     17  C   UNK d   1       0.266 -15.373 -37.333  0.00  0.00     0.246 C 
BRANCH  17  18
ATOM     18  N   UNK d   1       1.237 -14.393 -37.726  0.00  0.00    -0.271 N 
ATOM     19  C   UNK d   1       1.827 -14.270 -39.002  0.00  0.00     0.262 A 
ATOM     20  O   UNK d   1       1.642 -14.962 -40.036  0.00  0.00    -0.267 OA
ATOM     21  C   UNK d   1       2.769 -13.131 -38.967  0.00  0.00     0.048 A 
ATOM     22  C   UNK d   1       2.731 -12.601 -37.706  0.00  0.00     0.048 A 
ATOM     23  C   UNK d   1       3.592 -12.592 -39.941  0.00  0.00     0.018 A 
ATOM     24  C   UNK d   1       3.498 -11.526 -37.357  0.00  0.00     0.018 A 
ATOM     25  C   UNK d   1       1.776 -13.378 -36.912  0.00  0.00     0.262 A 
ATOM     26  C   UNK d   1       4.324 -10.974 -38.305  0.00  0.00     0.001 A 
ATOM     27  C   UNK d   1       4.362 -11.508 -39.579  0.00  0.00     0.001 A 
ATOM     28  O   UNK d   1       1.504 -13.147 -35.694  0.00  0.00    -0.267 OA
ENDBRANCH  17  18
ENDBRANCH  15  17
ENDBRANCH   1  15
TORSDOF 5
ENDMDL
