MODEL 1
REMARK VINA RESULT:    -5.960      0.000      0.000
REMARK INTER + INTRA:          -9.130
REMARK INTER:                  -8.051
REMARK INTRA:                  -1.079
REMARK UNBOUND:                -1.079
REMARK  6 active torsions:
REMARK  status: ('A' for Active; 'I' for Inactive)
REMARK    1  A    between atoms: C_16  and  N_17 
REMARK    2  A    between atoms: N_17  and  C_18 
REMARK    3  A    between atoms: C_19  and  C_24 
REMARK    4  A    between atoms: C_24  and  O_26 
REMARK    5  A    between atoms: O_26  and  C_27 
REMARK    6  A    between atoms: C_27  and  C_28 
ROOT
ATOM      1 Br   UNK d   1      -1.948 -13.349 -39.157  0.00  0.00    -0.046 Br
ATOM      2  C   UNK d   1      -0.714 -14.516 -38.307  0.00  0.00     0.072 A 
ATOM      3  C   UNK d   1      -0.255 -15.654 -38.872  0.00  0.00     0.141 A 
ATOM      4  N   UNK d   1       0.678 -16.433 -38.317  0.00  0.00    -0.118 N 
ATOM      5  C   UNK d   1       1.187 -16.071 -37.140  0.00  0.00     0.716 A 
ATOM      6  N   UNK d   1       2.134 -16.854 -36.551  0.00  0.00    -0.063 NA
ATOM      7  C   UNK d   1       2.584 -17.977 -37.093  0.00  0.00     0.091 A 
ATOM      8  C   UNK d   1       2.075 -18.373 -38.309  0.00  0.00     0.062 A 
ATOM      9  C   UNK d   1       2.499 -19.536 -38.920  0.00  0.00     0.019 A 
ATOM     10  C   UNK d   1       3.459 -20.370 -38.347  0.00  0.00     0.001 A 
ATOM     11  C   UNK d   1       3.962 -19.964 -37.130  0.00  0.00     0.002 A 
ATOM     12  C   UNK d   1       3.541 -18.799 -36.513  0.00  0.00     0.033 A 
ATOM     13  C   UNK d   1       1.111 -17.560 -38.893  0.00  0.00     0.278 A 
ATOM     14  O   UNK d   1       0.639 -17.909 -39.998  0.00  0.00    -0.266 OA
ATOM     15  N   UNK d   1       0.743 -14.936 -36.552  0.00  0.00    -0.173 N 
ATOM     16  C   UNK d   1      -0.178 -14.114 -37.037  0.00  0.00     0.140 A 
ATOM     17  H   UNK d   1       1.230 -14.758 -35.614  0.00  0.00     0.186 HD
ENDROOT
BRANCH  16  18
ATOM     18  N   UNK d   1      -0.745 -13.023 -36.460  0.00  0.00    -0.340 N 
ATOM     19  H   UNK d   1      -1.987 -13.591 -36.495  0.00  0.00     0.167 HD
BRANCH  18  20
ATOM     20  C   UNK d   1      -1.304 -11.948 -35.891  0.00  0.00     0.050 A 
ATOM     21  C   UNK d   1      -0.775 -10.676 -36.150  0.00  0.00     0.066 A 
ATOM     22  C   UNK d   1      -1.159  -9.602 -35.416  0.00  0.00     0.020 A 
ATOM     23  C   UNK d   1      -2.079  -9.742 -34.406  0.00  0.00     0.001 A 
ATOM     24  C   UNK d   1      -2.641 -10.962 -34.105  0.00  0.00     0.002 A 
ATOM     25  C   UNK d   1      -2.234 -12.036 -34.862  0.00  0.00     0.030 A 
BRANCH  21  26
ATOM     26  C   UNK d   1       0.091 -10.420 -37.308  0.00  0.00     0.295 C 
ATOM     27  O   UNK d   1      -0.448  -9.976 -38.353  0.00  0.00    -0.259 OA
BRANCH  26  28
ATOM     28  O   UNK d   1       1.439 -10.629 -37.352  0.00  0.00    -0.317 OA
BRANCH  28  29
ATOM     29  C   UNK d   1       2.063 -11.402 -38.358  0.00  0.00     0.178 C 
BRANCH  29  30
ATOM     30  C   UNK d   1       3.166 -12.273 -37.749  0.00  0.00     0.022 C 
ATOM     31  C   UNK d   1       4.110 -11.385 -36.974  0.00  0.00     0.007 C 
ENDBRANCH  29  30
ENDBRANCH  28  29
ENDBRANCH  26  28
ENDBRANCH  21  26
ENDBRANCH  18  20
ENDBRANCH  16  18
TORSDOF 6
ENDMDL
