/Users/jonathanwahrer/Desktop/Msc/3_Semester/Drug_Design_Praktikum/waehrer_HTS_screening/HTS_experiment/out/docking_results/vina_output/6y4q/0814_docked.pdbqt
 OpenBabel03232217553D

 31 34  0  0  1  0  0  0  0  0999 V2000
    1.0270  -16.4010  -37.8610 N   0  0  0  0  0  0  0  0  0  0  0  0
    2.0760  -16.7700  -37.1620 N   0  0  0  0  0  0  0  0  0  0  0  0
    2.2910  -18.0870  -37.2940 C   0  0  0  0  0  0  0  0  0  0  0  0
    1.3360  -18.5590  -38.1090 N   0  0  0  0  0  0  0  0  0  0  0  0
    0.5490  -17.4990  -38.4580 C   0  0  2  0  0  3  0  0  0  0  0  0
   -0.6180  -17.5450  -39.3370 C   0  0  0  0  0  2  0  0  0  0  0  0
   -1.6900  -18.4900  -38.8460 C   0  0  0  0  0  2  0  0  0  0  0  0
   -1.2890  -19.9380  -39.0170 C   0  0  0  0  0  2  0  0  0  0  0  0
   -0.2120  -20.3680  -38.0700 C   0  0  0  0  0  2  0  0  0  0  0  0
    1.1720  -19.9350  -38.5340 C   0  0  0  0  0  2  0  0  0  0  0  0
    3.3560  -18.8930  -36.6820 C   0  0  0  0  0  2  0  0  0  0  0  0
    4.5750  -18.8560  -37.4310 N   0  0  0  0  0  0  0  0  0  0  0  0
    5.3140  -18.1820  -37.1840 H   0  0  0  0  0  0  0  0  0  0  0  0
    4.8340  -19.7220  -38.5320 C   0  0  0  0  0  0  0  0  0  0  0  0
    5.3340  -19.2590  -39.7290 C   0  0  0  0  0  3  0  0  0  0  0  0
    5.5850  -20.1030  -40.7800 C   0  0  0  0  0  3  0  0  0  0  0  0
    5.3350  -21.4330  -40.6490 C   0  0  0  0  0  0  0  0  0  0  0  0
    4.8340  -21.8990  -39.4530 C   0  0  0  0  0  3  0  0  0  0  0  0
    4.5790  -21.0600  -38.3880 C   0  0  0  0  0  3  0  0  0  0  0  0
    5.5750  -22.3020  -41.6860 O   0  0  0  0  0  0  0  0  0  0  0  0
    4.5590  -23.0410  -42.3160 C   0  0  0  0  0  1  0  0  0  0  0  0
    0.4880  -15.0780  -37.9680 C   0  0  0  0  0  2  0  0  0  0  0  0
    1.3200  -14.0810  -37.2430 C   0  0  0  0  0  0  0  0  0  0  0  0
    1.1580  -13.9840  -35.9970 O   0  0  0  0  0  0  0  0  0  0  0  0
    2.2910  -13.2340  -37.9000 C   0  0  0  0  0  0  0  0  0  0  0  0
    2.6200  -13.3960  -39.2260 C   0  0  0  0  0  3  0  0  0  0  0  0
    3.5560  -12.5730  -39.8450 C   0  0  0  0  0  3  0  0  0  0  0  0
    4.1790  -11.5660  -39.1280 C   0  0  0  0  0  0  0  0  0  0  0  0
    5.4720  -10.4330  -39.9930 Br  0  0  0  0  0  0  0  0  0  0  0  0
    3.8560  -11.3970  -37.8030 C   0  0  0  0  0  3  0  0  0  0  0  0
    2.9280  -12.2230  -37.2170 C   0  0  0  0  0  3  0  0  0  0  0  0
  1  2  1  0  0  0  0
  3  2  2  0  0  0  0
  3 11  1  0  0  0  0
  4  3  1  0  0  0  0
  5  6  1  6  0  0  0
  5  4  1  0  0  0  0
  5  1  1  0  0  0  0
  6  7  1  0  0  0  0
  8  7  1  0  0  0  0
  8  9  1  0  0  0  0
 10  4  1  0  0  0  0
 10  9  1  0  0  0  0
 12 13  1  0  0  0  0
 12 11  1  0  0  0  0
 14 19  1  0  0  0  0
 14 12  1  0  0  0  0
 15 14  2  0  0  0  0
 16 17  2  0  0  0  0
 16 15  1  0  0  0  0
 17 18  1  0  0  0  0
 18 19  2  0  0  0  0
 20 17  1  0  0  0  0
 21 20  1  0  0  0  0
 22  1  1  0  0  0  0
 22 23  1  0  0  0  0
 23 24  2  0  0  0  0
 25 23  1  0  0  0  0
 25 31  1  0  0  0  0
 26 25  2  0  0  0  0
 27 26  1  0  0  0  0
 27 28  2  0  0  0  0
 28 30  1  0  0  0  0
 29 28  1  0  0  0  0
 30 31  2  0  0  0  0
M  END
>  <Pose>
1

>  <Score>
-7.123

$$$$
