MODEL 1
REMARK VINA RESULT:    -7.123      0.000      0.000
REMARK INTER + INTRA:         -11.102
REMARK INTER:                 -10.038
REMARK INTRA:                  -1.064
REMARK UNBOUND:                -1.064
REMARK  7 active torsions:
REMARK  status: ('A' for Active; 'I' for Inactive)
REMARK    1  A    between atoms: C_5  and  C_8 
REMARK    2  A    between atoms: C_8  and  C_10 
REMARK    3  A    between atoms: C_10  and  N_11 
REMARK    4  A    between atoms: C_13  and  C_21 
REMARK    5  A    between atoms: C_21  and  N_22 
REMARK    6  A    between atoms: N_22  and  C_23 
REMARK    7  A    between atoms: C_26  and  O_29 
ROOT
ATOM      1  N   UNK d   1       1.027 -16.401 -37.861  0.00  0.00    -0.249 N 
ATOM      2  N   UNK d   1       2.076 -16.770 -37.162  0.00  0.00    -0.155 NA
ATOM      3  C   UNK d   1       2.291 -18.087 -37.294  0.00  0.00     0.145 A 
ATOM      4  N   UNK d   1       1.336 -18.559 -38.109  0.00  0.00    -0.321 N 
ATOM      5  C   UNK d   1       0.549 -17.499 -38.458  0.00  0.00     0.104 A 
ATOM      6  C   UNK d   1      -0.618 -17.545 -39.337  0.00  0.00     0.078 C 
ATOM      7  C   UNK d   1      -1.690 -18.490 -38.846  0.00  0.00     0.008 C 
ATOM      8  C   UNK d   1      -1.289 -19.938 -39.017  0.00  0.00     0.002 C 
ATOM      9  C   UNK d   1      -0.212 -20.368 -38.070  0.00  0.00     0.020 C 
ATOM     10  C   UNK d   1       1.172 -19.935 -38.534  0.00  0.00     0.132 C 
ENDROOT
BRANCH   3  11
ATOM     11  C   UNK d   1       3.356 -18.893 -36.682  0.00  0.00     0.200 C 
BRANCH  11  12
ATOM     12  N   UNK d   1       4.575 -18.856 -37.431  0.00  0.00    -0.383 N 
ATOM     13  H   UNK d   1       5.314 -18.182 -37.184  0.00  0.00     0.160 HD
BRANCH  12  14
ATOM     14  C   UNK d   1       4.834 -19.722 -38.532  0.00  0.00     0.028 A 
ATOM     15  C   UNK d   1       5.334 -19.259 -39.729  0.00  0.00     0.032 A 
ATOM     16  C   UNK d   1       5.585 -20.103 -40.780  0.00  0.00     0.039 A 
ATOM     17  C   UNK d   1       5.335 -21.433 -40.649  0.00  0.00     0.068 A 
ATOM     18  C   UNK d   1       4.834 -21.899 -39.453  0.00  0.00     0.039 A 
ATOM     19  C   UNK d   1       4.579 -21.060 -38.388  0.00  0.00     0.032 A 
BRANCH  17  20
ATOM     20  O   UNK d   1       5.575 -22.302 -41.686  0.00  0.00    -0.356 OA
ATOM     21  C   UNK d   1       4.559 -23.041 -42.316  0.00  0.00     0.210 C 
ENDBRANCH  17  20
ENDBRANCH  12  14
ENDBRANCH  11  12
ENDBRANCH   3  11
BRANCH   1  22
ATOM     22  C   UNK d   1       0.488 -15.078 -37.968  0.00  0.00     0.236 C 
BRANCH  22  23
ATOM     23  C   UNK d   1       1.320 -14.081 -37.243  0.00  0.00     0.179 C 
ATOM     24  O   UNK d   1       1.158 -13.984 -35.997  0.00  0.00    -0.290 OA
BRANCH  23  25
ATOM     25  C   UNK d   1       2.291 -13.234 -37.900  0.00  0.00     0.011 A 
ATOM     26  C   UNK d   1       2.620 -13.396 -39.226  0.00  0.00     0.016 A 
ATOM     27  C   UNK d   1       3.556 -12.573 -39.845  0.00  0.00     0.020 A 
ATOM     28  C   UNK d   1       4.179 -11.566 -39.128  0.00  0.00     0.011 A 
ATOM     29 Br   UNK d   1       5.472 -10.433 -39.993  0.00  0.00    -0.051 Br
ATOM     30  C   UNK d   1       3.856 -11.397 -37.803  0.00  0.00     0.020 A 
ATOM     31  C   UNK d   1       2.928 -12.223 -37.217  0.00  0.00     0.016 A 
ENDBRANCH  23  25
ENDBRANCH  22  23
ENDBRANCH   1  22
TORSDOF 7
ENDMDL
