/Users/jonathanwahrer/Desktop/Msc/3_Semester/Drug_Design_Praktikum/waehrer_HTS_screening/HTS_experiment/out/docking_results/vina_output/6y4q/0827_docked.pdbqt
 OpenBabel03232217553D

 29 32  0  0  1  0  0  0  0  0999 V2000
    0.6370  -16.5300  -36.4700 C   0  0  2  0  0  0  0  0  0  0  0  0
    0.7180  -17.8040  -37.1810 N   0  0  0  0  0  4  0  0  0  0  0  0
   -0.4760  -18.0580  -37.8120 C   0  0  0  0  0  0  0  0  0  0  0  0
   -0.9540  -19.1830  -38.2810 C   0  0  0  0  0  3  0  0  0  0  0  0
   -2.2140  -19.5690  -38.9790 C   0  0  0  0  0  2  0  0  0  0  0  0
   -3.2400  -18.4820  -39.0390 C   0  0  0  0  0  2  0  0  0  0  0  0
   -2.7000  -17.2420  -39.7100 C   0  0  0  0  0  2  0  0  0  0  0  0
   -2.2090  -16.2600  -38.6650 C   0  0  0  0  0  2  0  0  0  0  0  0
   -1.2440  -16.8330  -37.7820 N   0  0  0  0  0  0  0  0  0  0  0  0
   -0.8770  -16.1510  -36.5340 C   0  0  0  0  0  2  0  0  0  0  0  0
    0.6340  -18.4960  -36.2790 H   0  0  0  0  0  0  0  0  0  0  0  0
    1.9510  -18.1470  -37.6680 C   0  0  0  0  0  0  0  0  0  0  0  0
    2.2480  -18.4020  -38.9740 C   0  0  0  0  0  3  0  0  0  0  0  0
    3.4870  -18.9180  -39.3900 C   0  0  0  0  0  3  0  0  0  0  0  0
    4.4730  -19.1940  -38.4790 C   0  0  0  0  0  0  0  0  0  0  0  0
    4.1790  -18.9350  -37.1480 C   0  0  0  0  0  3  0  0  0  0  0  0
    2.9620  -18.4300  -36.7440 C   0  0  0  0  0  3  0  0  0  0  0  0
    5.6960  -19.7130  -38.8690 O   0  0  0  0  0  0  0  0  0  0  0  0
    6.0970  -21.0510  -38.7110 C   0  0  0  0  0  2  0  0  0  0  0  0
    5.7140  -21.7560  -40.0260 C   0  0  0  0  0  1  0  0  0  0  0  0
    1.2710  -15.4410  -37.2650 C   0  0  0  0  0  0  0  0  0  0  0  0
    1.4630  -15.5300  -38.6250 C   0  0  0  0  0  3  0  0  0  0  0  0
    2.0470  -14.4940  -39.3220 C   0  0  0  0  0  3  0  0  0  0  0  0
    2.4490  -13.3470  -38.6630 C   0  0  0  0  0  0  0  0  0  0  0  0
    3.2580  -11.9450  -39.6450 Br  0  0  0  0  0  0  0  0  0  0  0  0
    2.2640  -13.2440  -37.3080 C   0  0  0  0  0  3  0  0  0  0  0  0
    1.6680  -14.3090  -36.6190 C   0  0  0  0  0  3  0  0  0  0  0  0
    0.9750  -16.6150  -35.1750 O   0  0  0  0  0  0  0  0  0  0  0  0
    1.2440  -15.8280  -34.6790 H   0  0  0  0  0  0  0  0  0  0  0  0
  1 28  1  1  0  0  0
  2  1  1  0  0  0  0
  2 11  1  0  0  0  0
  3  9  1  0  0  0  0
  3  2  1  0  0  0  0
  4  3  2  0  0  0  0
  5  4  1  0  0  0  0
  6  5  1  0  0  0  0
  7  6  1  0  0  0  0
  7  8  1  0  0  0  0
  8  9  1  0  0  0  0
  9 10  1  0  0  0  0
 10  1  1  0  0  0  0
 12  2  1  0  0  0  0
 12 17  1  0  0  0  0
 13 12  2  0  0  0  0
 14 13  1  0  0  0  0
 14 15  2  0  0  0  0
 15 16  1  0  0  0  0
 16 17  2  0  0  0  0
 18 19  1  0  0  0  0
 18 15  1  0  0  0  0
 20 19  1  0  0  0  0
 21 27  1  0  0  0  0
 21  1  1  0  0  0  0
 22 21  2  0  0  0  0
 23 24  2  0  0  0  0
 23 22  1  0  0  0  0
 24 26  1  0  0  0  0
 25 24  1  0  0  0  0
 26 27  2  0  0  0  0
 28 29  1  0  0  0  0
M  END
>  <Pose>
1

>  <Score>
-6.650

$$$$
