MODEL 1
REMARK VINA RESULT:    -6.371      0.000      0.000
REMARK INTER + INTRA:          -8.476
REMARK INTER:                  -7.674
REMARK INTRA:                  -0.802
REMARK UNBOUND:                -0.802
REMARK  4 active torsions:
REMARK  status: ('A' for Active; 'I' for Inactive)
REMARK    1  A    between atoms: C_5  and  C_8 
REMARK    2  A    between atoms: C_8  and  O_26 
REMARK    3  A    between atoms: N_16  and  C_18 
REMARK    4  A    between atoms: C_19  and  O_24 
ROOT
ATOM      1  C   UNK d   1       1.190 -16.604 -36.608  0.00  0.00     0.189 C 
ATOM      2  N   UNK d   1       0.250 -17.270 -37.499  0.00  0.00    -0.324 N 
ATOM      3  C   UNK d   1      -0.950 -16.615 -38.008  0.00  0.00     0.128 C 
ATOM      4  C   UNK d   1      -1.909 -17.556 -38.638  0.00  0.00     0.020 C 
ATOM      5  C   UNK d   1      -2.260 -18.743 -37.779  0.00  0.00     0.005 C 
ATOM      6  C   UNK d   1      -1.356 -19.872 -38.238  0.00  0.00     0.031 C 
ATOM      7  C   UNK d   1       0.047 -19.674 -38.025  0.00  0.00     0.030 C 
ATOM      8  C   UNK d   1       0.741 -18.557 -37.707  0.00  0.00     0.208 C 
ATOM      9  N   UNK d   1       2.142 -18.595 -37.560  0.00  0.00     0.011 N 
ATOM     10  C   UNK d   1       2.442 -17.325 -36.967  0.00  0.00     0.316 C 
ATOM     11  H   UNK d   1       2.490 -19.351 -36.927  0.00  0.00     0.295 HD
ENDROOT
BRANCH   1  12
ATOM     12  C   UNK d   1       1.234 -15.155 -36.890  0.00  0.00    -0.001 A 
ATOM     13  C   UNK d   1       1.874 -14.727 -38.056  0.00  0.00     0.013 A 
ATOM     14  C   UNK d   1       1.933 -13.350 -38.277  0.00  0.00     0.020 A 
ATOM     15  C   UNK d   1       1.382 -12.469 -37.376  0.00  0.00     0.011 A 
ATOM     16 Br   UNK d   1       1.484 -10.589 -37.718  0.00  0.00    -0.051 Br
ATOM     17  C   UNK d   1       0.754 -12.931 -36.231  0.00  0.00     0.020 A 
ATOM     18  C   UNK d   1       0.685 -14.293 -35.993  0.00  0.00     0.013 A 
ENDBRANCH   1  12
BRANCH   1  19
ATOM     19  O   UNK d   1       0.763 -16.822 -35.324  0.00  0.00    -0.365 OA
ATOM     20  H   UNK d   1       1.424 -17.261 -34.748  0.00  0.00     0.213 HD
ENDBRANCH   1  19
BRANCH   9  21
ATOM     21  C   UNK d   1       2.675 -18.721 -38.879  0.00  0.00     0.175 A 
ATOM     22  C   UNK d   1       3.524 -19.765 -39.204  0.00  0.00     0.103 A 
ATOM     23  C   UNK d   1       4.048 -19.754 -40.490  0.00  0.00     0.039 A 
ATOM     24  C   UNK d   1       3.774 -18.781 -41.432  0.00  0.00     0.003 A 
ATOM     25  C   UNK d   1       2.903 -17.737 -41.055  0.00  0.00     0.002 A 
ATOM     26  C   UNK d   1       2.399 -17.760 -39.805  0.00  0.00     0.041 A 
BRANCH  22  27
ATOM     27  O   UNK d   1       3.800 -20.731 -38.285  0.00  0.00    -0.354 OA
ATOM     28  C   UNK d   1       4.865 -21.629 -38.458  0.00  0.00     0.210 C 
ENDBRANCH  22  27
ENDBRANCH   9  21
TORSDOF 4
ENDMDL
