/Users/jonathanwahrer/Desktop/Msc/3_Semester/Drug_Design_Praktikum/waehrer_HTS_screening/HTS_experiment/out/docking_results/vina_output/6y4q/0833_docked.pdbqt
 OpenBabel03232217553D

 28 31  0  0  1  0  0  0  0  0999 V2000
    1.1900  -16.6040  -36.6080 C   0  0  1  0  0  0  0  0  0  0  0  0
    0.2500  -17.2700  -37.4990 N   0  0  0  0  0  0  0  0  0  0  0  0
   -0.9500  -16.6150  -38.0080 C   0  0  0  0  0  2  0  0  0  0  0  0
   -1.9090  -17.5560  -38.6380 C   0  0  0  0  0  2  0  0  0  0  0  0
   -2.2600  -18.7430  -37.7790 C   0  0  0  0  0  2  0  0  0  0  0  0
   -1.3560  -19.8720  -38.2380 C   0  0  0  0  0  2  0  0  0  0  0  0
    0.0470  -19.6740  -38.0250 C   0  0  0  0  0  3  0  0  0  0  0  0
    0.7410  -18.5570  -37.7070 C   0  0  0  0  0  0  0  0  0  0  0  0
    2.1420  -18.5950  -37.5600 N   0  0  0  0  0  4  0  0  0  0  0  0
    2.4420  -17.3250  -36.9670 C   0  0  0  0  0  2  0  0  0  0  0  0
    2.4900  -19.3510  -36.9270 H   0  0  0  0  0  0  0  0  0  0  0  0
    1.2340  -15.1550  -36.8900 C   0  0  0  0  0  0  0  0  0  0  0  0
    1.8740  -14.7270  -38.0560 C   0  0  0  0  0  3  0  0  0  0  0  0
    1.9330  -13.3500  -38.2770 C   0  0  0  0  0  3  0  0  0  0  0  0
    1.3820  -12.4690  -37.3760 C   0  0  0  0  0  0  0  0  0  0  0  0
    1.4840  -10.5890  -37.7180 Br  0  0  0  0  0  0  0  0  0  0  0  0
    0.7540  -12.9310  -36.2310 C   0  0  0  0  0  3  0  0  0  0  0  0
    0.6850  -14.2930  -35.9930 C   0  0  0  0  0  3  0  0  0  0  0  0
    0.7630  -16.8220  -35.3240 O   0  0  0  0  0  0  0  0  0  0  0  0
    1.4240  -17.2610  -34.7480 H   0  0  0  0  0  0  0  0  0  0  0  0
    2.6750  -18.7210  -38.8790 C   0  0  0  0  0  0  0  0  0  0  0  0
    3.5240  -19.7650  -39.2040 C   0  0  0  0  0  0  0  0  0  0  0  0
    4.0480  -19.7540  -40.4900 C   0  0  0  0  0  3  0  0  0  0  0  0
    3.7740  -18.7810  -41.4320 C   0  0  0  0  0  3  0  0  0  0  0  0
    2.9030  -17.7370  -41.0550 C   0  0  0  0  0  3  0  0  0  0  0  0
    2.3990  -17.7600  -39.8050 C   0  0  0  0  0  3  0  0  0  0  0  0
    3.8000  -20.7310  -38.2850 O   0  0  0  0  0  0  0  0  0  0  0  0
    4.8650  -21.6290  -38.4580 C   0  0  0  0  0  1  0  0  0  0  0  0
  1 19  1  1  0  0  0
  2  1  1  0  0  0  0
  3  2  1  0  0  0  0
  4  3  1  0  0  0  0
  4  5  1  0  0  0  0
  6  7  1  0  0  0  0
  6  5  1  0  0  0  0
  7  8  2  0  0  0  0
  8  9  1  0  0  0  0
  8  2  1  0  0  0  0
  9 10  1  0  0  0  0
  9 11  1  0  0  0  0
 10  1  1  0  0  0  0
 12  1  1  0  0  0  0
 12 18  1  0  0  0  0
 13 12  2  0  0  0  0
 14 13  1  0  0  0  0
 14 15  2  0  0  0  0
 15 17  1  0  0  0  0
 16 15  1  0  0  0  0
 17 18  2  0  0  0  0
 19 20  1  0  0  0  0
 21  9  1  0  0  0  0
 22 21  1  0  0  0  0
 22 27  1  0  0  0  0
 23 22  2  0  0  0  0
 24 25  2  0  0  0  0
 24 23  1  0  0  0  0
 25 26  1  0  0  0  0
 26 21  2  0  0  0  0
 28 27  1  0  0  0  0
M  END
>  <Pose>
1

>  <Score>
-6.371

$$$$
