MODEL 1
REMARK VINA RESULT:    -6.365      0.000      0.000
REMARK INTER + INTRA:          -7.614
REMARK INTER:                  -7.668
REMARK INTRA:                   0.053
REMARK UNBOUND:                 0.053
REMARK  4 active torsions:
REMARK  status: ('A' for Active; 'I' for Inactive)
REMARK    1  A    between atoms: C_5  and  C_8 
REMARK    2  A    between atoms: C_8  and  O_25 
REMARK    3  A    between atoms: N_15  and  C_17 
REMARK    4  A    between atoms: C_18  and  O_23 
ROOT
ATOM      1  C   UNK d   1       1.568 -12.885 -37.702  0.00  0.00     0.189 C 
ATOM      2  N   UNK d   1       0.739 -11.908 -37.029  0.00  0.00    -0.324 N 
ATOM      3  C   UNK d   1       0.387 -10.513 -37.184  0.00  0.00     0.128 C 
ATOM      4  C   UNK d   1      -1.045 -10.235 -36.775  0.00  0.00     0.024 C 
ATOM      5  C   UNK d   1      -1.216 -10.657 -35.355  0.00  0.00     0.032 C 
ATOM      6  C   UNK d   1      -0.737 -12.038 -35.135  0.00  0.00     0.030 C 
ATOM      7  C   UNK d   1       0.177 -12.612 -35.923  0.00  0.00     0.208 C 
ATOM      8  N   UNK d   1       0.732 -13.903 -35.805  0.00  0.00     0.011 N 
ATOM      9  C   UNK d   1       1.990 -13.776 -36.569  0.00  0.00     0.316 C 
ATOM     10  H   UNK d   1       1.092 -14.076 -34.810  0.00  0.00     0.295 HD
ENDROOT
BRANCH   1  11
ATOM     11  C   UNK d   1       2.728 -12.282 -38.403  0.00  0.00    -0.001 A 
ATOM     12  C   UNK d   1       3.576 -11.433 -37.725  0.00  0.00     0.013 A 
ATOM     13  C   UNK d   1       4.687 -10.843 -38.327  0.00  0.00     0.020 A 
ATOM     14  C   UNK d   1       4.949 -11.118 -39.650  0.00  0.00     0.011 A 
ATOM     15 Br   UNK d   1       6.471 -10.306 -40.494  0.00  0.00    -0.051 Br
ATOM     16  C   UNK d   1       4.109 -11.964 -40.341  0.00  0.00     0.020 A 
ATOM     17  C   UNK d   1       3.012 -12.542 -39.731  0.00  0.00     0.013 A 
ENDBRANCH   1  11
BRANCH   1  18
ATOM     18  O   UNK d   1       0.857 -13.656 -38.615  0.00  0.00    -0.365 OA
ATOM     19  H   UNK d   1       0.623 -13.061 -39.367  0.00  0.00     0.213 HD
ENDBRANCH   1  18
BRANCH   8  20
ATOM     20  C   UNK d   1      -0.033 -14.968 -36.269  0.00  0.00     0.175 A 
ATOM     21  C   UNK d   1       0.426 -16.260 -36.341  0.00  0.00     0.103 A 
ATOM     22  C   UNK d   1      -0.390 -17.279 -36.836  0.00  0.00     0.039 A 
ATOM     23  C   UNK d   1      -1.667 -17.014 -37.260  0.00  0.00     0.003 A 
ATOM     24  C   UNK d   1      -2.138 -15.721 -37.189  0.00  0.00     0.002 A 
ATOM     25  C   UNK d   1      -1.330 -14.724 -36.701  0.00  0.00     0.041 A 
BRANCH  21  26
ATOM     26  O   UNK d   1       1.696 -16.616 -35.934  0.00  0.00    -0.354 OA
ATOM     27  C   UNK d   1       2.454 -17.532 -36.653  0.00  0.00     0.210 C 
ENDBRANCH  21  26
ENDBRANCH   8  20
TORSDOF 4
ENDMDL
