MODEL 1
REMARK VINA RESULT:    -6.285      0.000      0.000
REMARK INTER + INTRA:         -10.352
REMARK INTER:                  -8.490
REMARK INTRA:                  -1.862
REMARK UNBOUND:                -1.862
REMARK  6 active torsions:
REMARK  status: ('A' for Active; 'I' for Inactive)
REMARK    1  A    between atoms: C_5  and  N_8 
REMARK    2  A    between atoms: N_8  and  C_9 
REMARK    3  A    between atoms: C_9  and  C_10 
REMARK    4  A    between atoms: N_13  and  C_15 
REMARK    5  A    between atoms: C_16  and  C_18 
REMARK    6  A    between atoms: C_21  and  O_24 
ROOT
ATOM      1  C   UNK d   1       2.143 -17.826 -40.604  0.00  0.00     0.145 A 
ATOM      2  N   UNK d   1       2.922 -18.726 -39.982  0.00  0.00    -0.321 N 
ATOM      3  C   UNK d   1       2.183 -19.329 -39.032  0.00  0.00     0.104 A 
ATOM      4  N   UNK d   1       0.919 -18.791 -39.066  0.00  0.00    -0.250 N 
ATOM      5  N   UNK d   1       0.936 -17.886 -40.029  0.00  0.00    -0.155 NA
ATOM      6  C   UNK d   1       2.487 -20.382 -38.057  0.00  0.00     0.078 C 
ATOM      7  C   UNK d   1       3.899 -20.376 -37.535  0.00  0.00     0.008 C 
ATOM      8  C   UNK d   1       4.932 -20.586 -38.594  0.00  0.00     0.002 C 
ATOM      9  C   UNK d   1       5.219 -19.236 -39.209  0.00  0.00     0.020 C 
ATOM     10  C   UNK d   1       4.284 -18.929 -40.352  0.00  0.00     0.132 C 
ENDROOT
BRANCH   4  11
ATOM     11  C   UNK d   1      -0.209 -19.134 -38.296  0.00  0.00     0.221 C 
ATOM     12  C   UNK d   1      -0.689 -18.192 -37.320  0.00  0.00     0.114 C 
ATOM     13  O   UNK d   1      -1.734 -18.655 -36.634  0.00  0.00    -0.194 OA
BRANCH  12  14
ATOM     14  C   UNK d   1      -0.298 -16.870 -36.920  0.00  0.00    -0.002 A 
ATOM     15  C   UNK d   1      -1.189 -15.784 -37.063  0.00  0.00     0.017 A 
ATOM     16  C   UNK d   1      -0.866 -14.503 -36.703  0.00  0.00     0.037 A 
ATOM     17  C   UNK d   1       0.366 -14.210 -36.175  0.00  0.00     0.068 A 
ATOM     18  C   UNK d   1       1.261 -15.233 -36.019  0.00  0.00     0.037 A 
ATOM     19  C   UNK d   1       0.915 -16.545 -36.394  0.00  0.00     0.017 A 
BRANCH  17  20
ATOM     20  O   UNK d   1       0.694 -12.906 -35.809  0.00  0.00    -0.356 OA
ATOM     21  C   UNK d   1       0.099 -11.781 -36.407  0.00  0.00     0.210 C 
ENDBRANCH  17  20
ENDBRANCH  12  14
ENDBRANCH   4  11
BRANCH   1  22
ATOM     22  C   UNK d   1       2.468 -16.889 -41.727  0.00  0.00     0.200 C 
BRANCH  22  23
ATOM     23  N   UNK d   1       1.810 -15.606 -41.591  0.00  0.00    -0.383 N 
ATOM     24  H   UNK d   1       0.879 -15.429 -42.028  0.00  0.00     0.160 HD
BRANCH  23  25
ATOM     25  C   UNK d   1       2.386 -14.514 -40.862  0.00  0.00     0.028 A 
ATOM     26  C   UNK d   1       2.030 -14.287 -39.551  0.00  0.00     0.030 A 
ATOM     27  C   UNK d   1       2.586 -13.245 -38.857  0.00  0.00     0.021 A 
ATOM     28  C   UNK d   1       3.512 -12.409 -39.472  0.00  0.00     0.011 A 
ATOM     29 Br   UNK d   1       4.285 -10.965 -38.508  0.00  0.00    -0.051 Br
ATOM     30  C   UNK d   1       3.883 -12.621 -40.788  0.00  0.00     0.021 A 
ATOM     31  C   UNK d   1       3.306 -13.676 -41.457  0.00  0.00     0.030 A 
ENDBRANCH  23  25
ENDBRANCH  22  23
ENDBRANCH   1  22
TORSDOF 6
ENDMDL
