MODEL 1
REMARK VINA RESULT:    -6.435      0.000      0.000
REMARK INTER + INTRA:          -8.282
REMARK INTER:                  -8.128
REMARK INTRA:                  -0.154
REMARK UNBOUND:                -0.154
REMARK  5 active torsions:
REMARK  status: ('A' for Active; 'I' for Inactive)
REMARK    1  A    between atoms: C_5  and  N_8 
REMARK    2  A    between atoms: C_9  and  O_18 
REMARK    3  A    between atoms: C_9  and  C_19 
REMARK    4  A    between atoms: C_22  and  O_25 
REMARK    5  A    between atoms: O_25  and  C_26 
ROOT
ATOM      1  N   UNK d   1       0.201 -15.563 -36.732  0.00  0.00     0.042 N 
ATOM      2  C   UNK d   1       1.098 -15.650 -37.846  0.00  0.00     0.283 C 
ATOM      3  C   UNK d   1       0.087 -15.750 -38.987  0.00  0.00     0.200 C 
ATOM      4  N   UNK d   1      -0.958 -16.620 -38.425  0.00  0.00    -0.356 N 
ATOM      5  C   UNK d   1      -1.880 -17.293 -39.270  0.00  0.00     0.124 C 
ATOM      6  C   UNK d   1      -2.849 -18.191 -38.562  0.00  0.00     0.020 C 
ATOM      7  C   UNK d   1      -2.098 -19.090 -37.619  0.00  0.00     0.005 C 
ATOM      8  C   UNK d   1      -2.266 -18.446 -36.235  0.00  0.00     0.031 C 
ATOM      9  C   UNK d   1      -1.276 -17.359 -36.100  0.00  0.00     0.030 C 
ATOM     10  C   UNK d   1      -0.746 -16.579 -37.015  0.00  0.00     0.210 C 
ATOM     11  H   UNK d   1       0.777 -15.770 -35.856  0.00  0.00     0.299 HD
ENDROOT
BRANCH   2  12
ATOM     12  O   UNK d   1       2.035 -14.676 -37.979  0.00  0.00    -0.359 OA
ATOM     13  H   UNK d   1       1.705 -13.784 -37.765  0.00  0.00     0.213 HD
ENDBRANCH   2  12
BRANCH   2  14
ATOM     14  C   UNK d   1       1.834 -16.947 -37.868  0.00  0.00     0.007 A 
ATOM     15  C   UNK d   1       1.979 -17.748 -38.960  0.00  0.00     0.015 A 
ATOM     16  C   UNK d   1       2.696 -18.962 -38.915  0.00  0.00     0.037 A 
ATOM     17  C   UNK d   1       3.285 -19.389 -37.750  0.00  0.00     0.068 A 
ATOM     18  C   UNK d   1       3.145 -18.590 -36.641  0.00  0.00     0.037 A 
ATOM     19  C   UNK d   1       2.444 -17.407 -36.689  0.00  0.00     0.015 A 
BRANCH  17  20
ATOM     20  O   UNK d   1       4.004 -20.594 -37.695  0.00  0.00    -0.352 OA
BRANCH  20  21
ATOM     21  C   UNK d   1       4.290 -21.336 -38.857  0.00  0.00     0.171 C 
ATOM     22  C   UNK d   1       5.754 -21.586 -39.035  0.00  0.00     0.034 C 
ENDBRANCH  20  21
ENDBRANCH  17  20
ENDBRANCH   2  14
BRANCH   1  23
ATOM     23  C   UNK d   1      -0.409 -14.352 -36.485  0.00  0.00     0.146 A 
ATOM     24  C   UNK d   1       0.333 -13.314 -35.924  0.00  0.00     0.039 A 
ATOM     25  C   UNK d   1      -0.214 -12.064 -35.675  0.00  0.00     0.021 A 
ATOM     26  C   UNK d   1      -1.531 -11.799 -35.978  0.00  0.00     0.011 A 
ATOM     27 Br   UNK d   1      -2.299 -10.072 -35.660  0.00  0.00    -0.051 Br
ATOM     28  C   UNK d   1      -2.281 -12.792 -36.526  0.00  0.00     0.021 A 
ATOM     29  C   UNK d   1      -1.706 -14.037 -36.765  0.00  0.00     0.039 A 
ENDBRANCH   1  23
TORSDOF 5
ENDMDL
