/Users/jonathanwahrer/Desktop/Msc/3_Semester/Drug_Design_Praktikum/waehrer_HTS_screening/HTS_experiment/out/docking_results/vina_output/6y4q/0850_docked.pdbqt
 OpenBabel03232217563D

 29 32  0  0  1  0  0  0  0  0999 V2000
    0.2010  -15.5630  -36.7320 N   0  0  0  0  0  4  0  0  0  0  0  0
    1.0980  -15.6500  -37.8460 C   0  0  1  0  0  0  0  0  0  0  0  0
    0.0870  -15.7500  -38.9870 C   0  0  0  0  0  2  0  0  0  0  0  0
   -0.9580  -16.6200  -38.4250 N   0  0  0  0  0  0  0  0  0  0  0  0
   -1.8800  -17.2930  -39.2700 C   0  0  0  0  0  2  0  0  0  0  0  0
   -2.8490  -18.1910  -38.5620 C   0  0  0  0  0  2  0  0  0  0  0  0
   -2.0980  -19.0900  -37.6190 C   0  0  0  0  0  2  0  0  0  0  0  0
   -2.2660  -18.4460  -36.2350 C   0  0  0  0  0  2  0  0  0  0  0  0
   -1.2760  -17.3590  -36.1000 C   0  0  0  0  0  3  0  0  0  0  0  0
   -0.7460  -16.5790  -37.0150 C   0  0  0  0  0  0  0  0  0  0  0  0
    0.7770  -15.7700  -35.8560 H   0  0  0  0  0  0  0  0  0  0  0  0
    2.0350  -14.6760  -37.9790 O   0  0  0  0  0  0  0  0  0  0  0  0
    1.7050  -13.7840  -37.7650 H   0  0  0  0  0  0  0  0  0  0  0  0
    1.8340  -16.9470  -37.8680 C   0  0  0  0  0  0  0  0  0  0  0  0
    1.9790  -17.7480  -38.9600 C   0  0  0  0  0  3  0  0  0  0  0  0
    2.6960  -18.9620  -38.9150 C   0  0  0  0  0  3  0  0  0  0  0  0
    3.2850  -19.3890  -37.7500 C   0  0  0  0  0  0  0  0  0  0  0  0
    3.1450  -18.5900  -36.6410 C   0  0  0  0  0  3  0  0  0  0  0  0
    2.4440  -17.4070  -36.6890 C   0  0  0  0  0  3  0  0  0  0  0  0
    4.0040  -20.5940  -37.6950 O   0  0  0  0  0  0  0  0  0  0  0  0
    4.2900  -21.3360  -38.8570 C   0  0  0  0  0  2  0  0  0  0  0  0
    5.7540  -21.5860  -39.0350 C   0  0  0  0  0  1  0  0  0  0  0  0
   -0.4090  -14.3520  -36.4850 C   0  0  0  0  0  0  0  0  0  0  0  0
    0.3330  -13.3140  -35.9240 C   0  0  0  0  0  3  0  0  0  0  0  0
   -0.2140  -12.0640  -35.6750 C   0  0  0  0  0  3  0  0  0  0  0  0
   -1.5310  -11.7990  -35.9780 C   0  0  0  0  0  0  0  0  0  0  0  0
   -2.2990  -10.0720  -35.6600 Br  0  0  0  0  0  0  0  0  0  0  0  0
   -2.2810  -12.7920  -36.5260 C   0  0  0  0  0  3  0  0  0  0  0  0
   -1.7060  -14.0370  -36.7650 C   0  0  0  0  0  3  0  0  0  0  0  0
  1 23  1  0  0  0  0
  1 11  1  0  0  0  0
  2 12  1  6  0  0  0
  2  1  1  0  0  0  0
  3  4  1  0  0  0  0
  3  2  1  0  0  0  0
  4 10  1  0  0  0  0
  5  6  1  0  0  0  0
  5  4  1  0  0  0  0
  6  7  1  0  0  0  0
  7  8  1  0  0  0  0
  8  9  1  0  0  0  0
 10  1  1  0  0  0  0
 10  9  2  0  0  0  0
 12 13  1  0  0  0  0
 14  2  1  0  0  0  0
 14 19  1  0  0  0  0
 15 16  1  0  0  0  0
 15 14  2  0  0  0  0
 16 17  2  0  0  0  0
 17 20  1  0  0  0  0
 17 18  1  0  0  0  0
 19 18  2  0  0  0  0
 21 20  1  0  0  0  0
 22 21  1  0  0  0  0
 23 24  1  0  0  0  0
 24 25  2  0  0  0  0
 26 25  1  0  0  0  0
 26 27  1  0  0  0  0
 28 26  2  0  0  0  0
 29 28  1  0  0  0  0
 29 23  2  0  0  0  0
M  END
>  <Pose>
1

>  <Score>
-6.435

$$$$
