MODEL 1
REMARK VINA RESULT:    -6.071      0.000      0.000
REMARK INTER + INTRA:          -8.779
REMARK INTER:                  -7.491
REMARK INTRA:                  -1.288
REMARK UNBOUND:                -1.288
REMARK  4 active torsions:
REMARK  status: ('A' for Active; 'I' for Inactive)
REMARK    1  A    between atoms: C_12  and  C_15 
REMARK    2  A    between atoms: C_12  and  C_23 
REMARK    3  A    between atoms: C_15  and  N_16 
REMARK    4  A    between atoms: C_23  and  N_24 
ROOT
ATOM      1 Br   UNK d   1      -0.215 -22.662 -42.870  0.00  0.00    -0.048 Br
ATOM      2  C   UNK d   1      -1.031 -22.635 -41.136  0.00  0.00     0.052 A 
ATOM      3  C   UNK d   1      -0.866 -21.542 -40.319  0.00  0.00     0.100 A 
ATOM      4  C   UNK d   1      -1.447 -21.482 -39.042  0.00  0.00     0.047 A 
ATOM      5  C   UNK d   1      -2.189 -22.575 -38.652  0.00  0.00     0.038 A 
ATOM      6  C   UNK d   1      -2.369 -23.684 -39.451  0.00  0.00     0.019 A 
ATOM      7  C   UNK d   1      -1.790 -23.720 -40.699  0.00  0.00    -0.024 A 
ATOM      8  C   UNK d   1      -1.926 -24.867 -41.632  0.00  0.00     0.051 C 
ATOM      9 Br   UNK d   1      -3.402 -25.185 -38.884  0.00  0.00    -0.051 Br
ATOM     10  C   UNK d   1      -1.245 -20.311 -38.213  0.00  0.00     0.176 C 
ATOM     11  O   UNK d   1      -1.835 -20.204 -37.133  0.00  0.00    -0.291 OA
ATOM     12  C   UNK d   1      -0.331 -19.249 -38.670  0.00  0.00     0.095 C 
ATOM     13  C   UNK d   1      -0.423 -19.198 -40.179  0.00  0.00     0.197 C 
ATOM     14  O   UNK d   1      -0.110 -20.456 -40.749  0.00  0.00    -0.347 OA
ENDROOT
BRANCH  12  15
ATOM     15  C   UNK d   1      -0.606 -17.911 -38.054  0.00  0.00     0.256 C 
BRANCH  15  16
ATOM     16  N   UNK d   1      -0.573 -17.859 -36.643  0.00  0.00    -0.069 N 
ATOM     17  C   UNK d   1       0.474 -16.981 -36.209  0.00  0.00     0.239 C 
ATOM     18  C   UNK d   1       0.229 -15.535 -36.450  0.00  0.00     0.007 C 
ATOM     19  C   UNK d   1      -1.129 -15.154 -36.899  0.00  0.00     0.007 C 
ATOM     20  C   UNK d   1       1.220 -15.070 -37.524  0.00  0.00     0.011 C 
ATOM     21  C   UNK d   1      -2.223 -16.096 -36.580  0.00  0.00     0.028 C 
ATOM     22  C   UNK d   1      -1.780 -17.410 -36.006  0.00  0.00     0.235 C 
ATOM     23  H   UNK d   1      -0.360 -18.811 -36.253  0.00  0.00     0.279 HD
ENDBRANCH  15  16
ENDBRANCH  12  15
BRANCH  12  24
ATOM     24  C   UNK d   1       1.064 -19.713 -38.301  0.00  0.00     0.256 C 
BRANCH  24  25
ATOM     25  N   UNK d   1       2.099 -19.290 -39.182  0.00  0.00    -0.069 N 
ATOM     26  C   UNK d   1       3.021 -20.393 -39.445  0.00  0.00     0.239 C 
ATOM     27  C   UNK d   1       4.282 -20.295 -38.637  0.00  0.00     0.007 C 
ATOM     28  C   UNK d   1       3.949 -19.865 -37.227  0.00  0.00     0.007 C 
ATOM     29  C   UNK d   1       4.857 -21.714 -38.530  0.00  0.00     0.011 C 
ATOM     30  C   UNK d   1       3.436 -18.460 -37.287  0.00  0.00     0.028 C 
ATOM     31  C   UNK d   1       2.903 -18.200 -38.674  0.00  0.00     0.235 C 
ATOM     32  H   UNK d   1       1.712 -19.014 -40.088  0.00  0.00     0.279 HD
ENDBRANCH  24  25
ENDBRANCH  12  24
TORSDOF 4
ENDMDL
