MODEL 1
REMARK VINA RESULT:    -6.506      0.000      0.000
REMARK INTER + INTRA:          -9.025
REMARK INTER:                  -8.027
REMARK INTRA:                  -0.998
REMARK UNBOUND:                -0.998
REMARK  4 active torsions:
REMARK  status: ('A' for Active; 'I' for Inactive)
REMARK    1  A    between atoms: C_12  and  C_15 
REMARK    2  A    between atoms: C_12  and  C_22 
REMARK    3  A    between atoms: C_15  and  N_16 
REMARK    4  A    between atoms: C_22  and  N_23 
ROOT
ATOM      1 Br   UNK d   1       3.350 -13.664 -42.024  0.00  0.00    -0.048 Br
ATOM      2  C   UNK d   1       3.040 -13.299 -40.198  0.00  0.00     0.052 A 
ATOM      3  C   UNK d   1       2.186 -14.128 -39.513  0.00  0.00     0.100 A 
ATOM      4  C   UNK d   1       1.878 -13.957 -38.152  0.00  0.00     0.047 A 
ATOM      5  C   UNK d   1       2.468 -12.890 -37.463  0.00  0.00     0.038 A 
ATOM      6  C   UNK d   1       3.322 -12.067 -38.163  0.00  0.00     0.019 A 
ATOM      7  C   UNK d   1       3.611 -12.254 -39.502  0.00  0.00    -0.024 A 
ATOM      8  C   UNK d   1       4.546 -11.337 -40.239  0.00  0.00     0.051 C 
ATOM      9 Br   UNK d   1       4.125 -10.617 -37.222  0.00  0.00    -0.051 Br
ATOM     10  C   UNK d   1       0.963 -14.860 -37.482  0.00  0.00     0.176 C 
ATOM     11  O   UNK d   1       0.271 -14.368 -36.556  0.00  0.00    -0.291 OA
ATOM     12  C   UNK d   1       0.932 -16.260 -37.948  0.00  0.00     0.095 C 
ATOM     13  C   UNK d   1       0.602 -16.019 -39.490  0.00  0.00     0.197 C 
ATOM     14  O   UNK d   1       1.547 -15.209 -40.091  0.00  0.00    -0.347 OA
ENDROOT
BRANCH  12  15
ATOM     15  C   UNK d   1      -0.139 -17.100 -37.450  0.00  0.00     0.256 C 
BRANCH  15  16
ATOM     16  N   UNK d   1      -1.502 -17.003 -37.685  0.00  0.00    -0.070 N 
ATOM     17  C   UNK d   1      -2.403 -16.432 -36.763  0.00  0.00     0.235 C 
ATOM     18  C   UNK d   1      -3.816 -16.992 -36.859  0.00  0.00     0.028 C 
ATOM     19  C   UNK d   1      -3.871 -18.435 -36.470  0.00  0.00     0.003 C 
ATOM     20  C   UNK d   1      -2.593 -19.086 -36.902  0.00  0.00     0.028 C 
ATOM     21  C   UNK d   1      -2.021 -18.337 -38.061  0.00  0.00     0.235 C 
ATOM     22  H   UNK d   1      -1.702 -16.476 -38.635  0.00  0.00     0.279 HD
ENDBRANCH  15  16
ENDBRANCH  12  15
BRANCH  12  23
ATOM     23  C   UNK d   1       2.290 -16.846 -37.880  0.00  0.00     0.256 C 
BRANCH  23  24
ATOM     24  N   UNK d   1       2.478 -18.236 -37.893  0.00  0.00    -0.070 N 
ATOM     25  C   UNK d   1       2.980 -18.619 -39.220  0.00  0.00     0.235 C 
ATOM     26  C   UNK d   1       2.936 -20.118 -39.435  0.00  0.00     0.028 C 
ATOM     27  C   UNK d   1       3.935 -20.708 -38.426  0.00  0.00     0.003 C 
ATOM     28  C   UNK d   1       3.383 -20.306 -37.078  0.00  0.00     0.028 C 
ATOM     29  C   UNK d   1       3.473 -18.773 -36.979  0.00  0.00     0.235 C 
ATOM     30  H   UNK d   1       1.649 -18.850 -37.762  0.00  0.00     0.279 HD
ENDBRANCH  23  24
ENDBRANCH  12  23
TORSDOF 4
ENDMDL
