/Users/jonathanwahrer/Desktop/Msc/3_Semester/Drug_Design_Praktikum/waehrer_HTS_screening/HTS_experiment/out/docking_results/vina_output/6y4q/0862_docked.pdbqt
 OpenBabel03232217573D

 30 33  0  0  0  0  0  0  0  0999 V2000
    3.3500  -13.6640  -42.0240 Br  0  0  0  0  0  0  0  0  0  0  0  0
    3.0400  -13.2990  -40.1980 C   0  0  0  0  0  0  0  0  0  0  0  0
    2.1860  -14.1280  -39.5130 C   0  0  0  0  0  0  0  0  0  0  0  0
    1.8780  -13.9570  -38.1520 C   0  0  0  0  0  0  0  0  0  0  0  0
    2.4680  -12.8900  -37.4630 C   0  0  0  0  0  3  0  0  0  0  0  0
    3.3220  -12.0670  -38.1630 C   0  0  0  0  0  0  0  0  0  0  0  0
    3.6110  -12.2540  -39.5020 C   0  0  0  0  0  0  0  0  0  0  0  0
    4.5460  -11.3370  -40.2390 C   0  0  0  0  0  1  0  0  0  0  0  0
    4.1250  -10.6170  -37.2220 Br  0  0  0  0  0  0  0  0  0  0  0  0
    0.9630  -14.8600  -37.4820 C   0  0  0  0  0  0  0  0  0  0  0  0
    0.2710  -14.3680  -36.5560 O   0  0  0  0  0  0  0  0  0  0  0  0
    0.9320  -16.2600  -37.9480 C   0  0  0  0  0  0  0  0  0  0  0  0
    0.6020  -16.0190  -39.4900 C   0  0  0  0  0  2  0  0  0  0  0  0
    1.5470  -15.2090  -40.0910 O   0  0  0  0  0  0  0  0  0  0  0  0
   -0.1390  -17.1000  -37.4500 C   0  0  0  0  0  2  0  0  0  0  0  0
   -1.5020  -17.0030  -37.6850 N   0  0  0  0  0  4  0  0  0  0  0  0
   -2.4030  -16.4320  -36.7630 C   0  0  0  0  0  2  0  0  0  0  0  0
   -3.8160  -16.9920  -36.8590 C   0  0  0  0  0  2  0  0  0  0  0  0
   -3.8710  -18.4350  -36.4700 C   0  0  0  0  0  2  0  0  0  0  0  0
   -2.5930  -19.0860  -36.9020 C   0  0  0  0  0  2  0  0  0  0  0  0
   -2.0210  -18.3370  -38.0610 C   0  0  0  0  0  2  0  0  0  0  0  0
   -1.7020  -16.4760  -38.6350 H   0  0  0  0  0  0  0  0  0  0  0  0
    2.2900  -16.8460  -37.8800 C   0  0  0  0  0  2  0  0  0  0  0  0
    2.4780  -18.2360  -37.8930 N   0  0  0  0  0  4  0  0  0  0  0  0
    2.9800  -18.6190  -39.2200 C   0  0  0  0  0  2  0  0  0  0  0  0
    2.9360  -20.1180  -39.4350 C   0  0  0  0  0  2  0  0  0  0  0  0
    3.9350  -20.7080  -38.4260 C   0  0  0  0  0  2  0  0  0  0  0  0
    3.3830  -20.3060  -37.0780 C   0  0  0  0  0  2  0  0  0  0  0  0
    3.4730  -18.7730  -36.9790 C   0  0  0  0  0  2  0  0  0  0  0  0
    1.6490  -18.8500  -37.7620 H   0  0  0  0  0  0  0  0  0  0  0  0
  1  2  1  0  0  0  0
  2  3  2  0  0  0  0
  2  7  1  0  0  0  0
  3  4  1  0  0  0  0
  4 10  1  0  0  0  0
  4  5  2  0  0  0  0
  6  5  1  0  0  0  0
  6  9  1  0  0  0  0
  7  6  2  0  0  0  0
  8  7  1  0  0  0  0
 10 11  2  0  0  0  0
 12 23  1  0  0  0  0
 12 10  1  0  0  0  0
 12 15  1  0  0  0  0
 13 12  1  0  0  0  0
 14  3  1  0  0  0  0
 14 13  1  0  0  0  0
 16 15  1  0  0  0  0
 16 17  1  0  0  0  0
 18 17  1  0  0  0  0
 18 19  1  0  0  0  0
 20 19  1  0  0  0  0
 21 16  1  0  0  0  0
 21 20  1  0  0  0  0
 22 16  1  0  0  0  0
 24 23  1  0  0  0  0
 24 30  1  0  0  0  0
 24 29  1  0  0  0  0
 25 24  1  0  0  0  0
 26 25  1  0  0  0  0
 26 27  1  0  0  0  0
 27 28  1  0  0  0  0
 28 29  1  0  0  0  0
M  END
>  <Pose>
1

>  <Score>
-6.506

$$$$
