MODEL 1
REMARK VINA RESULT:    -6.951      0.000      0.000
REMARK INTER + INTRA:          -9.827
REMARK INTER:                  -8.983
REMARK INTRA:                  -0.844
REMARK UNBOUND:                -0.844
REMARK  5 active torsions:
REMARK  status: ('A' for Active; 'I' for Inactive)
REMARK    1  A    between atoms: C_5  and  C_8 
REMARK    2  A    between atoms: N_9  and  N_10 
REMARK    3  A    between atoms: N_10  and  C_11 
REMARK    4  A    between atoms: C_13  and  N_23 
REMARK    5  A    between atoms: C_15  and  N_17 
ROOT
ATOM      1  C   UNK d   1       0.999 -17.230 -37.018  0.00  0.00     0.774 A 
ATOM      2  N   UNK d   1      -0.074 -17.872 -37.532  0.00  0.00     0.133 NA
ATOM      3  C   UNK d   1       0.014 -19.083 -38.136  0.00  0.00     0.756 A 
ATOM      4  N   UNK d   1       1.231 -19.625 -38.206  0.00  0.00     0.131 NA
ATOM      5  C   UNK d   1       2.342 -19.046 -37.718  0.00  0.00     0.756 A 
ATOM      6  N   UNK d   1       2.188 -17.846 -37.130  0.00  0.00     0.133 NA
ENDROOT
BRANCH   1   7
ATOM      7  N   UNK d   1       0.834 -15.969 -36.401  0.00  0.00    -0.105 N 
ATOM      8  H   UNK d   1       0.085 -15.843 -35.700  0.00  0.00     0.208 HD
BRANCH   7   9
ATOM      9  N   UNK d   1       1.663 -14.905 -36.728  0.00  0.00    -0.172 NA
ATOM     10  C   UNK d   1       1.623 -14.287 -37.854  0.00  0.00     0.150 C 
BRANCH  10  11
ATOM     11  C   UNK d   1       2.526 -13.177 -38.126  0.00  0.00    -0.016 A 
ATOM     12  C   UNK d   1       3.092 -12.975 -39.374  0.00  0.00     0.035 A 
ATOM     13  C   UNK d   1       3.947 -11.923 -39.627  0.00  0.00     0.050 A 
ATOM     14  C   UNK d   1       4.274 -11.023 -38.633  0.00  0.00     0.133 A 
ATOM     15 Br   UNK d   1       4.713 -11.669 -41.358  0.00  0.00    -0.048 Br
ATOM     16  F   UNK d   1       5.115  -9.976 -38.862  0.00  0.00    -0.205 F 
ATOM     17  C   UNK d   1       3.718 -11.211 -37.389  0.00  0.00     0.044 A 
ATOM     18  C   UNK d   1       2.858 -12.272 -37.139  0.00  0.00     0.016 A 
ENDBRANCH  10  11
ENDBRANCH   7   9
ENDBRANCH   1   7
BRANCH   3  19
ATOM     19  N   UNK d   1      -1.149 -19.714 -38.659  0.00  0.00    -0.209 N 
ATOM     20  C   UNK d   1      -2.338 -19.007 -39.073  0.00  0.00     0.167 C 
ATOM     21  C   UNK d   1      -3.459 -19.681 -38.284  0.00  0.00     0.188 C 
ATOM     22  O   UNK d   1      -3.613 -20.942 -38.729  0.00  0.00    -0.388 OA
ATOM     23  C   UNK d   1      -2.546 -21.728 -38.915  0.00  0.00     0.188 C 
ATOM     24  C   UNK d   1      -1.191 -21.151 -38.804  0.00  0.00     0.167 C 
ENDBRANCH   3  19
BRANCH   5  25
ATOM     25  N   UNK d   1       3.606 -19.684 -37.829  0.00  0.00    -0.209 N 
ATOM     26  C   UNK d   1       3.729 -20.854 -38.679  0.00  0.00     0.167 C 
ATOM     27  C   UNK d   1       5.144 -21.382 -38.607  0.00  0.00     0.188 C 
ATOM     28  O   UNK d   1       6.111 -20.434 -38.783  0.00  0.00    -0.388 OA
ATOM     29  C   UNK d   1       5.912 -19.228 -38.167  0.00  0.00     0.188 C 
ATOM     30  C   UNK d   1       4.786 -19.244 -37.146  0.00  0.00     0.167 C 
ENDBRANCH   5  25
TORSDOF 5
ENDMDL
