/Users/jonathanwahrer/Desktop/Msc/3_Semester/Drug_Design_Praktikum/waehrer_HTS_screening/HTS_experiment/out/docking_results/vina_output/6y4q/0872_docked.pdbqt
 OpenBabel03232217583D

 32 35  0  0  0  0  0  0  0  0999 V2000
    0.9220  -15.9520  -37.2570 N   0  0  0  0  0  0  0  0  0  0  0  0
    1.0020  -15.8650  -35.9420 N   0  0  0  0  0  0  0  0  0  0  0  0
    1.8610  -16.7970  -35.5680 N   0  0  0  0  0  0  0  0  0  0  0  0
    2.3310  -17.4800  -36.6330 C   0  0  0  0  0  0  0  0  0  0  0  0
    1.7270  -16.9330  -37.7010 C   0  0  0  0  0  0  0  0  0  0  0  0
    2.2150  -17.6400  -38.7750 C   0  0  0  0  0  0  0  0  0  0  0  0
    1.8900  -17.4330  -39.9750 O   0  0  0  0  0  0  0  0  0  0  0  0
    3.0910  -18.5910  -38.3930 N   0  0  0  0  0  0  0  0  0  0  0  0
    3.1680  -18.4970  -37.0560 C   0  0  0  0  0  0  0  0  0  0  0  0
    3.8880  -19.2200  -36.3170 O   0  0  0  0  0  0  0  0  0  0  0  0
    0.4890  -15.1910  -35.3030 H   0  0  0  0  0  0  0  0  0  0  0  0
    2.1200  -16.9570  -34.5590 H   0  0  0  0  0  0  0  0  0  0  0  0
    0.0820  -15.0920  -38.0610 C   0  0  0  0  0  2  0  0  0  0  0  0
    0.8560  -13.8380  -38.4160 C   0  0  0  0  0  0  0  0  0  0  0  0
    2.2430  -13.8990  -38.5140 N   0  0  0  0  0  0  0  0  0  0  0  0
    2.6830  -14.8650  -38.3270 H   0  0  0  0  0  0  0  0  0  0  0  0
    0.1940  -12.8120  -38.6010 O   0  0  0  0  0  0  0  0  0  0  0  0
    3.0790  -12.8180  -38.8320 C   0  0  0  0  0  0  0  0  0  0  0  0
    3.4840  -11.9580  -37.7980 C   0  0  0  0  0  0  0  0  0  0  0  0
    3.0370  -12.2310  -36.5410 F   0  0  0  0  0  0  0  0  0  0  0  0
    4.3010  -10.8900  -38.0660 C   0  0  0  0  0  3  0  0  0  0  0  0
    4.7380  -10.6380  -39.3500 C   0  0  0  0  0  0  0  0  0  0  0  0
    4.3640  -11.4560  -40.3910 C   0  0  0  0  0  3  0  0  0  0  0  0
    5.5430   -9.5730  -39.5730 F   0  0  0  0  0  0  0  0  0  0  0  0
    3.5240  -12.5500  -40.0900 C   0  0  0  0  0  3  0  0  0  0  0  0
    3.7780  -19.4990  -39.2720 C   0  0  0  0  0  0  0  0  0  0  0  0
    5.0230  -19.1820  -39.7810 C   0  0  0  0  0  3  0  0  0  0  0  0
    5.7180  -20.0210  -40.6260 C   0  0  0  0  0  3  0  0  0  0  0  0
    5.1180  -21.2200  -40.9580 C   0  0  0  0  0  0  0  0  0  0  0  0
    3.8730  -21.5910  -40.4780 C   0  0  0  0  0  3  0  0  0  0  0  0
    6.1050  -22.3720  -42.1370 Br  0  0  0  0  0  0  0  0  0  0  0  0
    3.2300  -20.7050  -39.6370 C   0  0  0  0  0  3  0  0  0  0  0  0
  1  2  1  0  0  0  0
  2  3  1  0  0  0  0
  2 11  1  0  0  0  0
  3 12  1  0  0  0  0
  4  3  1  0  0  0  0
  5  1  1  0  0  0  0
  5  4  2  0  0  0  0
  6  8  1  0  0  0  0
  6  5  1  0  0  0  0
  7  6  2  0  0  0  0
  8  9  1  0  0  0  0
  9  4  1  0  0  0  0
  9 10  2  0  0  0  0
 13  1  1  0  0  0  0
 14 13  1  0  0  0  0
 15 14  1  0  0  0  0
 15 16  1  0  0  0  0
 17 14  2  0  0  0  0
 18 15  1  0  0  0  0
 18 19  1  0  0  0  0
 19 20  1  0  0  0  0
 21 19  2  0  0  0  0
 22 21  1  0  0  0  0
 23 25  1  0  0  0  0
 23 22  2  0  0  0  0
 24 22  1  0  0  0  0
 25 18  2  0  0  0  0
 26  8  1  0  0  0  0
 27 26  2  0  0  0  0
 28 27  1  0  0  0  0
 29 28  2  0  0  0  0
 29 30  1  0  0  0  0
 30 32  2  0  0  0  0
 31 29  1  0  0  0  0
 32 26  1  0  0  0  0
M  END
>  <Pose>
1

>  <Score>
-7.454

$$$$
