/Users/jonathanwahrer/Desktop/Msc/3_Semester/Drug_Design_Praktikum/waehrer_HTS_screening/HTS_experiment/out/docking_results/vina_output/6y4q/0874_docked.pdbqt
 OpenBabel03232217583D

 31 34  0  0  0  0  0  0  0  0999 V2000
    0.9580  -15.9300  -37.2500 N   0  0  0  0  0  0  0  0  0  0  0  0
    1.0770  -15.9170  -35.9410 N   0  0  0  0  0  0  0  0  0  0  0  0
    1.9060  -16.8710  -35.5440 N   0  0  0  0  0  0  0  0  0  0  0  0
    2.3400  -17.5310  -36.6400 C   0  0  0  0  0  0  0  0  0  0  0  0
    1.7570  -16.9480  -37.6680 C   0  0  0  0  0  0  0  0  0  0  0  0
    2.2010  -17.6230  -38.7940 C   0  0  0  0  0  0  0  0  0  0  0  0
    1.8550  -17.3450  -39.9620 O   0  0  0  0  0  0  0  0  0  0  0  0
    3.0510  -18.6110  -38.4590 N   0  0  0  0  0  0  0  0  0  0  0  0
    3.1380  -18.5540  -37.1170 C   0  0  0  0  0  0  0  0  0  0  0  0
    3.8320  -19.3060  -36.3980 O   0  0  0  0  0  0  0  0  0  0  0  0
    0.5720  -15.2300  -35.3220 H   0  0  0  0  0  0  0  0  0  0  0  0
    2.1790  -17.0820  -34.5530 H   0  0  0  0  0  0  0  0  0  0  0  0
    0.1580  -15.0660  -38.0990 C   0  0  0  0  0  2  0  0  0  0  0  0
    0.9130  -13.8150  -38.3900 C   0  0  0  0  0  0  0  0  0  0  0  0
    2.2940  -13.8250  -38.5630 N   0  0  0  0  0  0  0  0  0  0  0  0
    2.7630  -14.7860  -38.4730 H   0  0  0  0  0  0  0  0  0  0  0  0
    0.2390  -12.7750  -38.4670 O   0  0  0  0  0  0  0  0  0  0  0  0
    3.1500  -12.7230  -38.8450 C   0  0  0  0  0  0  0  0  0  0  0  0
    3.5600  -11.8840  -37.7970 C   0  0  0  0  0  0  0  0  0  0  0  0
    3.1170  -12.1630  -36.5360 F   0  0  0  0  0  0  0  0  0  0  0  0
    4.3840  -10.8060  -38.0010 C   0  0  0  0  0  3  0  0  0  0  0  0
    4.8480  -10.4980  -39.2580 C   0  0  0  0  0  3  0  0  0  0  0  0
    4.4510  -11.3100  -40.2800 C   0  0  0  0  0  3  0  0  0  0  0  0
    3.6210  -12.4030  -40.0920 C   0  0  0  0  0  3  0  0  0  0  0  0
    3.7070  -19.5120  -39.3510 C   0  0  0  0  0  0  0  0  0  0  0  0
    4.9620  -19.2330  -39.8550 C   0  0  0  0  0  3  0  0  0  0  0  0
    5.6100  -20.0940  -40.7180 C   0  0  0  0  0  3  0  0  0  0  0  0
    5.0240  -21.2770  -41.1150 C   0  0  0  0  0  0  0  0  0  0  0  0
    3.7710  -21.5770  -40.6250 C   0  0  0  0  0  3  0  0  0  0  0  0
    5.8990  -22.4890  -42.3090 Br  0  0  0  0  0  0  0  0  0  0  0  0
    3.1390  -20.7030  -39.7630 C   0  0  0  0  0  3  0  0  0  0  0  0
  1  2  1  0  0  0  0
  2  3  1  0  0  0  0
  2 11  1  0  0  0  0
  3 12  1  0  0  0  0
  4  3  1  0  0  0  0
  5  1  1  0  0  0  0
  5  4  2  0  0  0  0
  6  8  1  0  0  0  0
  6  5  1  0  0  0  0
  7  6  2  0  0  0  0
  8  9  1  0  0  0  0
  9  4  1  0  0  0  0
  9 10  2  0  0  0  0
 13  1  1  0  0  0  0
 14 13  1  0  0  0  0
 15 16  1  0  0  0  0
 15 14  1  0  0  0  0
 17 14  2  0  0  0  0
 18 15  1  0  0  0  0
 18 19  1  0  0  0  0
 19 20  1  0  0  0  0
 21 19  2  0  0  0  0
 22 21  1  0  0  0  0
 23 24  1  0  0  0  0
 23 22  2  0  0  0  0
 24 18  2  0  0  0  0
 25  8  1  0  0  0  0
 26 25  2  0  0  0  0
 27 26  1  0  0  0  0
 28 27  2  0  0  0  0
 28 29  1  0  0  0  0
 29 31  2  0  0  0  0
 30 28  1  0  0  0  0
 31 25  1  0  0  0  0
M  END
>  <Pose>
1

>  <Score>
-7.388

$$$$
