MODEL 1
REMARK VINA RESULT:    -7.388      0.000      0.000
REMARK INTER + INTRA:         -10.084
REMARK INTER:                  -9.115
REMARK INTRA:                  -0.969
REMARK UNBOUND:                -0.969
REMARK  4 active torsions:
REMARK  status: ('A' for Active; 'I' for Inactive)
REMARK    1  A    between atoms: C_3  and  N_8 
REMARK       I    between atoms: N_8  and  C_9 
REMARK    2  A    between atoms: C_9  and  C_11 
REMARK    3  A    between atoms: C_11  and  N_12 
REMARK    4  A    between atoms: N_19  and  C_22 
ROOT
ATOM      1  N   UNK d   1       0.958 -15.930 -37.250  0.00  0.00    -0.261 N 
ATOM      2  N   UNK d   1       1.077 -15.917 -35.941  0.00  0.00    -0.239 N 
ATOM      3  N   UNK d   1       1.906 -16.871 -35.544  0.00  0.00    -0.279 N 
ATOM      4  C   UNK d   1       2.340 -17.531 -36.640  0.00  0.00     0.152 A 
ATOM      5  C   UNK d   1       1.757 -16.948 -37.668  0.00  0.00     0.155 A 
ATOM      6  C   UNK d   1       2.201 -17.623 -38.794  0.00  0.00     0.286 A 
ATOM      7  O   UNK d   1       1.855 -17.345 -39.962  0.00  0.00    -0.265 OA
ATOM      8  N   UNK d   1       3.051 -18.611 -38.459  0.00  0.00    -0.241 N 
ATOM      9  C   UNK d   1       3.138 -18.554 -37.117  0.00  0.00     0.286 A 
ATOM     10  O   UNK d   1       3.832 -19.306 -36.398  0.00  0.00    -0.265 OA
ATOM     11  H   UNK d   1       0.572 -15.230 -35.322  0.00  0.00     0.208 HD
ATOM     12  H   UNK d   1       2.179 -17.082 -34.553  0.00  0.00     0.189 HD
ENDROOT
BRANCH   1  13
ATOM     13  C   UNK d   1       0.158 -15.066 -38.099  0.00  0.00     0.254 C 
BRANCH  13  14
ATOM     14  C   UNK d   1       0.913 -13.815 -38.390  0.00  0.00     0.242 C 
ATOM     15  N   UNK d   1       2.294 -13.825 -38.563  0.00  0.00    -0.323 N 
ATOM     16  H   UNK d   1       2.763 -14.786 -38.473  0.00  0.00     0.169 HD
ATOM     17  O   UNK d   1       0.239 -12.775 -38.467  0.00  0.00    -0.271 OA
BRANCH  15  18
ATOM     18  C   UNK d   1       3.150 -12.723 -38.845  0.00  0.00     0.073 A 
ATOM     19  C   UNK d   1       3.560 -11.884 -37.797  0.00  0.00     0.143 A 
ATOM     20  F   UNK d   1       3.117 -12.163 -36.536  0.00  0.00    -0.204 F 
ATOM     21  C   UNK d   1       4.384 -10.806 -38.001  0.00  0.00     0.044 A 
ATOM     22  C   UNK d   1       4.848 -10.498 -39.258  0.00  0.00     0.003 A 
ATOM     23  C   UNK d   1       4.451 -11.310 -40.280  0.00  0.00     0.002 A 
ATOM     24  C   UNK d   1       3.621 -12.403 -40.092  0.00  0.00     0.033 A 
ENDBRANCH  15  18
ENDBRANCH  13  14
ENDBRANCH   1  13
BRANCH   8  25
ATOM     25  C   UNK d   1       3.707 -19.512 -39.351  0.00  0.00     0.046 A 
ATOM     26  C   UNK d   1       4.962 -19.233 -39.855  0.00  0.00     0.031 A 
ATOM     27  C   UNK d   1       5.610 -20.094 -40.718  0.00  0.00     0.021 A 
ATOM     28  C   UNK d   1       5.024 -21.277 -41.115  0.00  0.00     0.011 A 
ATOM     29  C   UNK d   1       3.771 -21.577 -40.625  0.00  0.00     0.021 A 
ATOM     30 Br   UNK d   1       5.899 -22.489 -42.309  0.00  0.00    -0.051 Br
ATOM     31  C   UNK d   1       3.139 -20.703 -39.763  0.00  0.00     0.031 A 
ENDBRANCH   8  25
TORSDOF 4
ENDMDL
