/Users/jonathanwahrer/Desktop/Msc/3_Semester/Drug_Design_Praktikum/waehrer_HTS_screening/HTS_experiment/out/docking_results/vina_output/6y4q/0886_docked.pdbqt
 OpenBabel03232217583D

 31 34  0  0  0  0  0  0  0  0999 V2000
    1.4730  -18.9010  -38.0840 N   0  0  0  0  0  0  0  0  0  0  0  0
    1.3660  -17.6950  -37.5010 C   0  0  0  0  0  0  0  0  0  0  0  0
    2.3830  -16.9940  -37.2470 O   0  0  0  0  0  0  0  0  0  0  0  0
    0.0530  -17.3570  -37.2360 C   0  0  0  0  0  0  0  0  0  0  0  0
   -0.6590  -18.3920  -37.6730 C   0  0  0  0  0  0  0  0  0  0  0  0
   -1.9430  -18.1090  -37.4320 N   0  0  0  0  0  0  0  0  0  0  0  0
   -2.0080  -16.9220  -36.8590 N   0  0  0  0  0  0  0  0  0  0  0  0
   -0.7840  -16.4230  -36.7200 N   0  0  0  0  0  0  0  0  0  0  0  0
    0.1940  -19.3420  -38.1930 C   0  0  0  0  0  0  0  0  0  0  0  0
   -0.0820  -20.4630  -38.7060 O   0  0  0  0  0  0  0  0  0  0  0  0
   -2.7420  -18.7560  -37.6770 H   0  0  0  0  0  0  0  0  0  0  0  0
   -2.8660  -16.4380  -36.5570 H   0  0  0  0  0  0  0  0  0  0  0  0
   -0.3740  -15.1690  -36.1570 C   0  0  0  0  0  2  0  0  0  0  0  0
    0.2840  -14.2430  -37.0850 C   0  0  0  0  0  0  0  0  0  0  0  0
   -0.4320  -13.6520  -37.9080 O   0  0  0  0  0  0  0  0  0  0  0  0
    1.6670  -14.0420  -37.0320 N   0  0  0  0  0  0  0  0  0  0  0  0
    2.2290  -14.5910  -36.2850 H   0  0  0  0  0  0  0  0  0  0  0  0
    2.4790  -13.2020  -37.8290 C   0  0  0  0  0  0  0  0  0  0  0  0
    2.6830  -13.4410  -39.1670 C   0  0  0  0  0  3  0  0  0  0  0  0
    3.4800  -12.6350  -39.9870 C   0  0  0  0  0  3  0  0  0  0  0  0
    4.0750  -11.5540  -39.3880 C   0  0  0  0  0  0  0  0  0  0  0  0
    3.8870  -11.2920  -38.0540 C   0  0  0  0  0  3  0  0  0  0  0  0
    5.1860  -10.3970  -40.4590 Br  0  0  0  0  0  0  0  0  0  0  0  0
    3.1010  -12.0980  -37.2730 C   0  0  0  0  0  3  0  0  0  0  0  0
    2.6530  -19.5880  -38.4970 C   0  0  0  0  0  0  0  0  0  0  0  0
    3.3630  -20.4550  -37.6980 C   0  0  0  0  0  3  0  0  0  0  0  0
    4.5170  -21.0970  -38.1530 C   0  0  0  0  0  3  0  0  0  0  0  0
    4.9750  -20.8750  -39.4200 C   0  0  0  0  0  0  0  0  0  0  0  0
    6.1060  -21.5060  -39.8550 F   0  0  0  0  0  0  0  0  0  0  0  0
    4.2800  -20.0120  -40.2360 C   0  0  0  0  0  3  0  0  0  0  0  0
    3.1440  -19.3850  -39.7780 C   0  0  0  0  0  3  0  0  0  0  0  0
  1  2  1  0  0  0  0
  2  3  2  0  0  0  0
  2  4  1  0  0  0  0
  4  8  1  0  0  0  0
  5  6  1  0  0  0  0
  5  4  2  0  0  0  0
  6  7  1  0  0  0  0
  7  8  1  0  0  0  0
  7 12  1  0  0  0  0
  8 13  1  0  0  0  0
  9  1  1  0  0  0  0
  9  5  1  0  0  0  0
 10  9  2  0  0  0  0
 11  6  1  0  0  0  0
 14 16  1  0  0  0  0
 14 13  1  0  0  0  0
 15 14  2  0  0  0  0
 16 17  1  0  0  0  0
 18 24  1  0  0  0  0
 18 16  1  0  0  0  0
 19 18  2  0  0  0  0
 20 21  2  0  0  0  0
 20 19  1  0  0  0  0
 21 22  1  0  0  0  0
 22 24  2  0  0  0  0
 23 21  1  0  0  0  0
 25  1  1  0  0  0  0
 25 26  1  0  0  0  0
 27 26  2  0  0  0  0
 28 27  1  0  0  0  0
 29 28  1  0  0  0  0
 30 31  1  0  0  0  0
 30 28  2  0  0  0  0
 31 25  2  0  0  0  0
M  END
>  <Pose>
1

>  <Score>
-6.851

$$$$
