MODEL 1
REMARK VINA RESULT:    -6.851      0.000      0.000
REMARK INTER + INTRA:          -9.677
REMARK INTER:                  -8.453
REMARK INTRA:                  -1.224
REMARK UNBOUND:                -1.224
REMARK  4 active torsions:
REMARK  status: ('A' for Active; 'I' for Inactive)
REMARK    1  A    between atoms: C_5  and  N_8 
REMARK    2  A    between atoms: N_15  and  C_16 
REMARK    3  A    between atoms: C_16  and  C_17 
REMARK       I    between atoms: C_17  and  N_19 
REMARK    4  A    between atoms: N_19  and  C_20 
ROOT
ATOM      1  N   UNK d   1       1.473 -18.901 -38.084  0.00  0.00    -0.241 N 
ATOM      2  C   UNK d   1       1.366 -17.695 -37.501  0.00  0.00     0.286 A 
ATOM      3  O   UNK d   1       2.383 -16.994 -37.247  0.00  0.00    -0.265 OA
ATOM      4  C   UNK d   1       0.053 -17.357 -37.236  0.00  0.00     0.155 A 
ATOM      5  C   UNK d   1      -0.659 -18.392 -37.673  0.00  0.00     0.152 A 
ATOM      6  N   UNK d   1      -1.943 -18.109 -37.432  0.00  0.00    -0.279 N 
ATOM      7  N   UNK d   1      -2.008 -16.922 -36.859  0.00  0.00    -0.239 N 
ATOM      8  N   UNK d   1      -0.784 -16.423 -36.720  0.00  0.00    -0.261 N 
ATOM      9  C   UNK d   1       0.194 -19.342 -38.193  0.00  0.00     0.286 A 
ATOM     10  O   UNK d   1      -0.082 -20.463 -38.706  0.00  0.00    -0.265 OA
ATOM     11  H   UNK d   1      -2.742 -18.756 -37.677  0.00  0.00     0.189 HD
ATOM     12  H   UNK d   1      -2.866 -16.438 -36.557  0.00  0.00     0.208 HD
ENDROOT
BRANCH   8  13
ATOM     13  C   UNK d   1      -0.374 -15.169 -36.157  0.00  0.00     0.254 C 
BRANCH  13  14
ATOM     14  C   UNK d   1       0.284 -14.243 -37.085  0.00  0.00     0.242 C 
ATOM     15  O   UNK d   1      -0.432 -13.652 -37.908  0.00  0.00    -0.271 OA
ATOM     16  N   UNK d   1       1.667 -14.042 -37.032  0.00  0.00    -0.326 N 
ATOM     17  H   UNK d   1       2.229 -14.591 -36.285  0.00  0.00     0.169 HD
BRANCH  16  18
ATOM     18  C   UNK d   1       2.479 -13.202 -37.829  0.00  0.00     0.034 A 
ATOM     19  C   UNK d   1       2.683 -13.441 -39.167  0.00  0.00     0.031 A 
ATOM     20  C   UNK d   1       3.480 -12.635 -39.987  0.00  0.00     0.021 A 
ATOM     21  C   UNK d   1       4.075 -11.554 -39.388  0.00  0.00     0.011 A 
ATOM     22  C   UNK d   1       3.887 -11.292 -38.054  0.00  0.00     0.021 A 
ATOM     23 Br   UNK d   1       5.186 -10.397 -40.459  0.00  0.00    -0.051 Br
ATOM     24  C   UNK d   1       3.101 -12.098 -37.273  0.00  0.00     0.031 A 
ENDBRANCH  16  18
ENDBRANCH  13  14
ENDBRANCH   8  13
BRANCH   1  25
ATOM     25  C   UNK d   1       2.653 -19.588 -38.497  0.00  0.00     0.046 A 
ATOM     26  C   UNK d   1       3.363 -20.455 -37.698  0.00  0.00     0.033 A 
ATOM     27  C   UNK d   1       4.517 -21.097 -38.153  0.00  0.00     0.044 A 
ATOM     28  C   UNK d   1       4.975 -20.875 -39.420  0.00  0.00     0.116 A 
ATOM     29  F   UNK d   1       6.106 -21.506 -39.855  0.00  0.00    -0.206 F 
ATOM     30  C   UNK d   1       4.280 -20.012 -40.236  0.00  0.00     0.044 A 
ATOM     31  C   UNK d   1       3.144 -19.385 -39.778  0.00  0.00     0.033 A 
ENDBRANCH   1  25
TORSDOF 4
ENDMDL
