/Users/jonathanwahrer/Desktop/Msc/3_Semester/Drug_Design_Praktikum/waehrer_HTS_screening/HTS_experiment/out/docking_results/vina_output/6y4q/0892_docked.pdbqt
 OpenBabel03232217593D

 27 30  0  0  1  0  0  0  0  0999 V2000
    0.1560  -14.6690  -38.6390 C   0  0  2  0  0  3  0  0  0  0  0  0
    0.4930  -15.4770  -37.4900 N   0  0  0  0  0  0  0  0  0  0  0  0
    1.3160  -16.6370  -37.6590 C   0  0  0  0  0  0  0  0  0  0  0  0
    2.3700  -17.5140  -36.5900 S   0  0  0  0  0  0  0  0  0  0  0  0
    2.9020  -18.7250  -37.6580 C   0  0  0  0  0  0  0  0  0  0  0  0
    2.2560  -18.4200  -38.8050 C   0  0  0  0  0  0  0  0  0  0  0  0
    1.4410  -17.3520  -38.8140 C   0  0  0  0  0  0  0  0  0  0  0  0
    0.6040  -16.7730  -39.9030 C   0  0  0  0  0  0  0  0  0  0  0  0
    0.5780  -17.2890  -41.0450 O   0  0  0  0  0  0  0  0  0  0  0  0
   -0.1860  -15.6240  -39.6800 N   0  0  0  0  0  0  0  0  0  0  0  0
    2.5500  -19.3650  -39.9640 C   0  0  0  0  0  2  0  0  0  0  0  0
    3.0290  -20.6630  -39.4000 C   0  0  0  0  0  2  0  0  0  0  0  0
    4.2820  -20.3490  -38.6950 N   0  0  0  0  0  4  0  0  0  0  0  0
    3.8400  -19.8450  -37.4120 C   0  0  0  0  0  2  0  0  0  0  0  0
    5.1220  -21.5170  -38.5710 C   0  0  0  0  0  1  0  0  0  0  0  0
    0.1640  -15.2620  -36.5230 H   0  0  0  0  0  0  0  0  0  0  0  0
   -1.0410  -15.4360  -40.2630 H   0  0  0  0  0  0  0  0  0  0  0  0
    4.7570  -19.5660  -39.1900 H   0  0  0  0  0  0  0  0  0  0  0  0
    1.3870  -13.9190  -39.0060 C   0  0  0  0  0  0  0  0  0  0  0  0
    2.0190  -13.0250  -38.1750 C   0  0  0  0  0  0  0  0  0  0  0  0
    3.1670  -12.3370  -38.5720 C   0  0  0  0  0  0  0  0  0  0  0  0
    1.5110  -12.7970  -36.9160 O   0  0  0  0  0  1  0  0  0  0  0  0
    4.0860  -10.9800  -37.2540 I   0  0  0  0  0  0  0  0  0  0  0  0
    3.7100  -12.5270  -39.8050 C   0  0  0  0  0  3  0  0  0  0  0  0
    3.0930  -13.4190  -40.6510 C   0  0  0  0  0  0  0  0  0  0  0  0
    1.9650  -14.0980  -40.2700 C   0  0  0  0  0  3  0  0  0  0  0  0
    3.8500  -13.6880  -42.3770 Br  0  0  0  0  0  0  0  0  0  0  0  0
  1 19  1  6  0  0  0
  1  2  1  0  0  0  0
  2 16  1  0  0  0  0
  3  2  1  0  0  0  0
  3  4  1  0  0  0  0
  5 14  1  0  0  0  0
  5  4  1  0  0  0  0
  6  5  2  0  0  0  0
  7  6  1  0  0  0  0
  7  3  2  0  0  0  0
  8 10  1  0  0  0  0
  8  7  1  0  0  0  0
  9  8  2  0  0  0  0
 10  1  1  0  0  0  0
 11 12  1  0  0  0  0
 11  6  1  0  0  0  0
 12 13  1  0  0  0  0
 13 15  1  0  0  0  0
 13 14  1  0  0  0  0
 17 10  1  0  0  0  0
 18 13  1  0  0  0  0
 19 20  1  0  0  0  0
 20 22  1  0  0  0  0
 21 20  2  0  0  0  0
 21 23  1  0  0  0  0
 24 21  1  0  0  0  0
 25 26  1  0  0  0  0
 25 24  2  0  0  0  0
 26 19  2  0  0  0  0
 27 25  1  0  0  0  0
M  END
>  <Pose>
1

>  <Score>
-6.243

$$$$
