MODEL 1
REMARK VINA RESULT:    -6.243      0.000      0.000
REMARK INTER + INTRA:          -6.875
REMARK INTER:                  -6.608
REMARK INTRA:                  -0.268
REMARK UNBOUND:                -0.268
REMARK  1 active torsions:
REMARK  status: ('A' for Active; 'I' for Inactive)
REMARK    1  A    between atoms: C_4  and  C_9 
ROOT
ATOM      1  C   UNK d   1       0.156 -14.669 -38.639  0.00  0.00     0.222 C 
ATOM      2  N   UNK d   1       0.493 -15.477 -37.490  0.00  0.00    -0.358 N 
ATOM      3  C   UNK d   1       1.316 -16.637 -37.659  0.00  0.00     0.088 A 
ATOM      4  S   UNK d   1       2.370 -17.514 -36.590  0.00  0.00    -0.074 SA
ATOM      5  C   UNK d   1       2.902 -18.725 -37.658  0.00  0.00     0.018 A 
ATOM      6  C   UNK d   1       2.256 -18.420 -38.805  0.00  0.00    -0.023 A 
ATOM      7  C   UNK d   1       1.441 -17.352 -38.814  0.00  0.00     0.073 A 
ATOM      8  C   UNK d   1       0.604 -16.773 -39.903  0.00  0.00     0.256 C 
ATOM      9  O   UNK d   1       0.578 -17.289 -41.045  0.00  0.00    -0.267 OA
ATOM     10  N   UNK d   1      -0.186 -15.624 -39.680  0.00  0.00    -0.331 N 
ATOM     11  C   UNK d   1       2.550 -19.365 -39.964  0.00  0.00     0.068 C 
ATOM     12  C   UNK d   1       3.029 -20.663 -39.400  0.00  0.00     0.239 C 
ATOM     13  N   UNK d   1       4.282 -20.349 -38.695  0.00  0.00    -0.070 N 
ATOM     14  C   UNK d   1       3.840 -19.845 -37.412  0.00  0.00     0.281 C 
ATOM     15  C   UNK d   1       5.122 -21.517 -38.571  0.00  0.00     0.270 C 
ATOM     16  H   UNK d   1       0.164 -15.262 -36.523  0.00  0.00     0.162 HD
ATOM     17  H   UNK d   1      -1.041 -15.436 -40.263  0.00  0.00     0.165 HD
ATOM     18  H   UNK d   1       4.757 -19.566 -39.190  0.00  0.00     0.279 HD
ENDROOT
BRANCH   1  19
ATOM     19  C   UNK d   1       1.387 -13.919 -39.006  0.00  0.00     0.023 A 
ATOM     20  C   UNK d   1       2.019 -13.025 -38.175  0.00  0.00     0.134 A 
ATOM     21  C   UNK d   1       3.167 -12.337 -38.572  0.00  0.00     0.044 A 
ATOM     22  O   UNK d   1       1.511 -12.797 -36.916  0.00  0.00    -0.190 OA
ATOM     23  I   UNK d   1       4.086 -10.980 -37.254  0.00  0.00    -0.042 I 
ATOM     24  C   UNK d   1       3.710 -12.527 -39.805  0.00  0.00     0.040 A 
ATOM     25  C   UNK d   1       3.093 -13.419 -40.651  0.00  0.00     0.013 A 
ATOM     26  C   UNK d   1       1.965 -14.098 -40.270  0.00  0.00     0.033 A 
ATOM     27 Br   UNK d   1       3.850 -13.688 -42.377  0.00  0.00    -0.051 Br
ENDBRANCH   1  19
TORSDOF 1
ENDMDL
