/Users/jonathanwahrer/Desktop/Msc/3_Semester/Drug_Design_Praktikum/waehrer_HTS_screening/HTS_experiment/out/docking_results/vina_output/6y4q/0895_docked.pdbqt
 OpenBabel03232217593D

 28 31  0  0  1  0  0  0  0  0999 V2000
    0.7170  -16.5110  -36.8950 C   0  0  2  0  0  3  0  0  0  0  0  0
    2.0490  -16.9770  -36.5070 N   0  0  0  0  0  0  0  0  0  0  0  0
    2.6340  -18.1550  -37.1160 C   0  0  0  0  0  0  0  0  0  0  0  0
    3.9840  -19.1340  -36.7030 S   0  0  0  0  0  0  0  0  0  0  0  0
    3.8990  -20.2570  -37.9710 C   0  0  0  0  0  0  0  0  0  0  0  0
    2.8130  -19.8400  -38.6930 C   0  0  0  0  0  0  0  0  0  0  0  0
    2.1610  -18.7460  -38.2430 C   0  0  0  0  0  0  0  0  0  0  0  0
    0.9610  -18.0970  -38.8450 C   0  0  0  0  0  0  0  0  0  0  0  0
    0.4190  -18.5500  -39.8980 O   0  0  0  0  0  0  0  0  0  0  0  0
    0.4150  -16.9540  -38.2290 N   0  0  0  0  0  0  0  0  0  0  0  0
    2.5600  -20.7340  -39.9020 C   0  0  0  0  0  2  0  0  0  0  0  0
    3.8430  -20.9040  -40.6720 C   0  0  0  0  0  2  0  0  0  0  0  0
    4.9810  -21.1630  -39.8570 N   0  0  0  0  0  4  0  0  0  0  0  0
    4.6240  -21.4790  -38.4780 C   0  0  0  0  0  2  0  0  0  0  0  0
    5.7540  -19.9130  -39.7810 C   0  0  0  0  0  1  0  0  0  0  0  0
    2.6120  -16.4850  -35.7900 H   0  0  0  0  0  0  0  0  0  0  0  0
   -0.2690  -16.3650  -38.7710 H   0  0  0  0  0  0  0  0  0  0  0  0
    5.6150  -21.9140  -40.2370 H   0  0  0  0  0  0  0  0  0  0  0  0
    0.8000  -15.0250  -36.9290 C   0  0  0  0  0  0  0  0  0  0  0  0
    1.8400  -14.4440  -37.6430 C   0  0  0  0  0  3  0  0  0  0  0  0
    2.0170  -13.0970  -37.7440 C   0  0  0  0  0  0  0  0  0  0  0  0
    1.1000  -12.2750  -37.0920 C   0  0  0  0  0  0  0  0  0  0  0  0
    0.0570  -12.8260  -36.3750 C   0  0  0  0  0  0  0  0  0  0  0  0
    1.2450  -10.9030  -37.1710 O   0  0  0  0  0  1  0  0  0  0  0  0
   -1.3200  -11.5640  -35.3960 I   0  0  0  0  0  0  0  0  0  0  0  0
   -0.0890  -14.2020  -36.2950 C   0  0  0  0  0  3  0  0  0  0  0  0
    3.0450  -12.4870  -38.4500 O   0  0  0  0  0  0  0  0  0  0  0  0
    3.2750  -12.8860  -39.7880 C   0  0  0  0  0  1  0  0  0  0  0  0
  1 19  1  6  0  0  0
  1  2  1  0  0  0  0
  2 16  1  0  0  0  0
  3  4  1  0  0  0  0
  3  2  1  0  0  0  0
  5  4  1  0  0  0  0
  6  7  1  0  0  0  0
  6  5  2  0  0  0  0
  7  3  2  0  0  0  0
  8  7  1  0  0  0  0
  8 10  1  0  0  0  0
  9  8  2  0  0  0  0
 10  1  1  0  0  0  0
 11  6  1  0  0  0  0
 12 11  1  0  0  0  0
 12 13  1  0  0  0  0
 13 15  1  0  0  0  0
 13 14  1  0  0  0  0
 14  5  1  0  0  0  0
 17 10  1  0  0  0  0
 18 13  1  0  0  0  0
 19 26  1  0  0  0  0
 20 19  2  0  0  0  0
 21 20  1  0  0  0  0
 21 22  2  0  0  0  0
 22 23  1  0  0  0  0
 23 26  2  0  0  0  0
 23 25  1  0  0  0  0
 24 22  1  0  0  0  0
 27 21  1  0  0  0  0
 28 27  1  0  0  0  0
M  END
>  <Pose>
1

>  <Score>
-6.776

$$$$
