MODEL 1
REMARK VINA RESULT:    -6.776      0.000      0.000
REMARK INTER + INTRA:          -8.063
REMARK INTER:                  -7.568
REMARK INTRA:                  -0.496
REMARK UNBOUND:                -0.496
REMARK  2 active torsions:
REMARK  status: ('A' for Active; 'I' for Inactive)
REMARK    1  A    between atoms: C_4  and  O_23 
REMARK    2  A    between atoms: C_6  and  C_8 
ROOT
ATOM      1  C   UNK d   1       0.717 -16.511 -36.895  0.00  0.00     0.219 C 
ATOM      2  N   UNK d   1       2.049 -16.977 -36.507  0.00  0.00    -0.358 N 
ATOM      3  C   UNK d   1       2.634 -18.155 -37.116  0.00  0.00     0.088 A 
ATOM      4  S   UNK d   1       3.984 -19.134 -36.703  0.00  0.00    -0.074 SA
ATOM      5  C   UNK d   1       3.899 -20.257 -37.971  0.00  0.00     0.018 A 
ATOM      6  C   UNK d   1       2.813 -19.840 -38.693  0.00  0.00    -0.023 A 
ATOM      7  C   UNK d   1       2.161 -18.746 -38.243  0.00  0.00     0.073 A 
ATOM      8  C   UNK d   1       0.961 -18.097 -38.845  0.00  0.00     0.256 C 
ATOM      9  O   UNK d   1       0.419 -18.550 -39.898  0.00  0.00    -0.267 OA
ATOM     10  N   UNK d   1       0.415 -16.954 -38.229  0.00  0.00    -0.332 N 
ATOM     11  C   UNK d   1       2.560 -20.734 -39.902  0.00  0.00     0.068 C 
ATOM     12  C   UNK d   1       3.843 -20.904 -40.672  0.00  0.00     0.239 C 
ATOM     13  N   UNK d   1       4.981 -21.163 -39.857  0.00  0.00    -0.070 N 
ATOM     14  C   UNK d   1       4.624 -21.479 -38.478  0.00  0.00     0.281 C 
ATOM     15  C   UNK d   1       5.754 -19.913 -39.781  0.00  0.00     0.270 C 
ATOM     16  H   UNK d   1       2.612 -16.485 -35.790  0.00  0.00     0.162 HD
ATOM     17  H   UNK d   1      -0.269 -16.365 -38.771  0.00  0.00     0.165 HD
ATOM     18  H   UNK d   1       5.615 -21.914 -40.237  0.00  0.00     0.279 HD
ENDROOT
BRANCH   1  19
ATOM     19  C   UNK d   1       0.800 -15.025 -36.929  0.00  0.00    -0.012 A 
ATOM     20  C   UNK d   1       1.840 -14.444 -37.643  0.00  0.00     0.050 A 
ATOM     21  C   UNK d   1       2.017 -13.097 -37.744  0.00  0.00     0.106 A 
ATOM     22  C   UNK d   1       1.100 -12.275 -37.092  0.00  0.00     0.157 A 
ATOM     23  C   UNK d   1       0.057 -12.826 -36.375  0.00  0.00     0.046 A 
ATOM     24  O   UNK d   1       1.245 -10.903 -37.171  0.00  0.00    -0.188 OA
ATOM     25  I   UNK d   1      -1.320 -11.564 -35.396  0.00  0.00    -0.041 I 
ATOM     26  C   UNK d   1      -0.089 -14.202 -36.295  0.00  0.00     0.032 A 
BRANCH  21  27
ATOM     27  O   UNK d   1       3.045 -12.487 -38.450  0.00  0.00    -0.353 OA
ATOM     28  C   UNK d   1       3.275 -12.886 -39.788  0.00  0.00     0.210 C 
ENDBRANCH  21  27
ENDBRANCH   1  19
TORSDOF 2
ENDMDL
