MODEL 1
REMARK VINA RESULT:    -5.942      0.000      0.000
REMARK INTER + INTRA:          -8.912
REMARK INTER:                  -8.026
REMARK INTRA:                  -0.886
REMARK UNBOUND:                -0.886
REMARK  6 active torsions:
REMARK  status: ('A' for Active; 'I' for Inactive)
REMARK    1  A    between atoms: C_3  and  N_8 
REMARK    2  A    between atoms: N_8  and  C_9 
REMARK    3  A    between atoms: C_20  and  C_21 
REMARK    4  A    between atoms: C_21  and  C_22 
REMARK    5  A    between atoms: C_22  and  O_24 
REMARK    6  A    between atoms: O_24  and  C_25 
ROOT
ATOM      1  C   UNK d   1       1.826 -15.498 -39.696  0.00  0.00     0.179 A 
ATOM      2  N   UNK d   1       1.975 -15.906 -40.951  0.00  0.00    -0.202 NA
ATOM      3  C   UNK d   1       2.259 -17.160 -41.340  0.00  0.00     0.230 A 
ATOM      4  N   UNK d   1       2.460 -17.831 -42.481  0.00  0.00    -0.081 NA
ATOM      5  O   UNK d   1       2.711 -19.084 -42.234  0.00  0.00    -0.103 OA
ATOM      6  N   UNK d   1       2.688 -19.287 -40.947  0.00  0.00    -0.082 NA
ATOM      7  C   UNK d   1       2.410 -18.124 -40.337  0.00  0.00     0.217 A 
ATOM      8  N   UNK d   1       2.273 -17.775 -39.071  0.00  0.00    -0.256 N 
ATOM      9  C   UNK d   1       1.991 -16.514 -38.734  0.00  0.00     0.206 A 
ATOM     10  N   UNK d   1       1.917 -16.485 -37.413  0.00  0.00    -0.126 NA
ATOM     11  N   UNK d   1       2.150 -17.717 -36.927  0.00  0.00    -0.133 NA
ATOM     12  C   UNK d   1       2.378 -18.549 -37.953  0.00  0.00     0.145 A 
ENDROOT
BRANCH   1  13
ATOM     13  N   UNK d   1       1.529 -14.186 -39.275  0.00  0.00    -0.337 N 
ATOM     14  H   UNK d   1       0.486 -13.914 -39.198  0.00  0.00     0.167 HD
BRANCH  13  15
ATOM     15  C   UNK d   1       2.430 -13.156 -38.935  0.00  0.00     0.050 A 
ATOM     16  C   UNK d   1       2.323 -12.554 -37.661  0.00  0.00     0.033 A 
ATOM     17  I   UNK d   1       0.839 -13.224 -36.316  0.00  0.00    -0.042 I 
ATOM     18  C   UNK d   1       3.178 -11.543 -37.298  0.00  0.00     0.020 A 
ATOM     19  C   UNK d   1       4.156 -11.106 -38.188  0.00  0.00     0.001 A 
ATOM     20  C   UNK d   1       4.235 -11.706 -39.414  0.00  0.00     0.002 A 
ATOM     21  C   UNK d   1       3.385 -12.739 -39.817  0.00  0.00     0.031 A 
ENDBRANCH  13  15
ENDBRANCH   1  13
BRANCH  12  22
ATOM     22  C   UNK d   1       2.677 -20.005 -37.940  0.00  0.00     0.192 C 
BRANCH  22  23
ATOM     23  C   UNK d   1       4.129 -20.303 -37.893  0.00  0.00     0.266 C 
ATOM     24  O   UNK d   1       4.990 -19.453 -37.584  0.00  0.00    -0.265 OA
BRANCH  23  25
ATOM     25  O   UNK d   1       4.549 -21.566 -38.207  0.00  0.00    -0.322 OA
BRANCH  25  26
ATOM     26  C   UNK d   1       5.701 -21.875 -38.907  0.00  0.00     0.174 C 
ATOM     27  C   UNK d   1       5.687 -21.581 -40.359  0.00  0.00     0.034 C 
ENDBRANCH  25  26
ENDBRANCH  23  25
ENDBRANCH  22  23
ENDBRANCH  12  22
TORSDOF 6
ENDMDL
