/Users/jonathanwahrer/Desktop/Msc/3_Semester/Drug_Design_Praktikum/waehrer_HTS_screening/HTS_experiment/out/docking_results/vina_output/6y4q/0906_docked.pdbqt
 OpenBabel03232217593D

 27 30  0  0  1  0  0  0  0  0999 V2000
    1.8260  -15.4980  -39.6960 C   0  0  2  0  0  3  0  0  0  0  0  0
    1.9750  -15.9060  -40.9510 N   0  0  0  0  0  0  0  0  0  0  0  0
    2.2590  -17.1600  -41.3400 C   0  0  0  0  0  0  0  0  0  0  0  0
    2.4600  -17.8310  -42.4810 N   0  0  0  0  0  2  0  0  0  0  0  0
    2.7110  -19.0840  -42.2340 O   0  0  0  0  0  0  0  0  0  0  0  0
    2.6880  -19.2870  -40.9470 N   0  0  0  0  0  0  0  0  0  0  0  0
    2.4100  -18.1240  -40.3370 C   0  0  0  0  0  0  0  0  0  0  0  0
    2.2730  -17.7750  -39.0710 N   0  0  0  0  0  0  0  0  0  0  0  0
    1.9910  -16.5140  -38.7340 C   0  0  0  0  0  0  0  0  0  0  0  0
    1.9170  -16.4850  -37.4130 N   0  0  0  0  0  0  0  0  0  0  0  0
    2.1500  -17.7170  -36.9270 N   0  0  0  0  0  0  0  0  0  0  0  0
    2.3780  -18.5490  -37.9530 C   0  0  0  0  0  0  0  0  0  0  0  0
    1.5290  -14.1860  -39.2750 N   0  0  0  0  0  0  0  0  0  0  0  0
    0.4860  -13.9140  -39.1980 H   0  0  0  0  0  0  0  0  0  0  0  0
    2.4300  -13.1560  -38.9350 C   0  0  0  0  0  0  0  0  0  0  0  0
    2.3230  -12.5540  -37.6610 C   0  0  0  0  0  0  0  0  0  0  0  0
    0.8390  -13.2240  -36.3160 I   0  0  0  0  0  0  0  0  0  0  0  0
    3.1780  -11.5430  -37.2980 C   0  0  0  0  0  3  0  0  0  0  0  0
    4.1560  -11.1060  -38.1880 C   0  0  0  0  0  3  0  0  0  0  0  0
    4.2350  -11.7060  -39.4140 C   0  0  0  0  0  3  0  0  0  0  0  0
    3.3850  -12.7390  -39.8170 C   0  0  0  0  0  3  0  0  0  0  0  0
    2.6770  -20.0050  -37.9400 C   0  0  0  0  0  2  0  0  0  0  0  0
    4.1290  -20.3030  -37.8930 C   0  0  0  0  0  0  0  0  0  0  0  0
    4.9900  -19.4530  -37.5840 O   0  0  0  0  0  0  0  0  0  0  0  0
    4.5490  -21.5660  -38.2070 O   0  0  0  0  0  0  0  0  0  0  0  0
    5.7010  -21.8750  -38.9070 C   0  0  0  0  0  2  0  0  0  0  0  0
    5.6870  -21.5810  -40.3590 C   0  0  0  0  0  1  0  0  0  0  0  0
  1 13  1  6  0  0  0
  1  9  1  0  0  0  0
  2  1  1  0  0  0  0
  3  2  2  0  0  0  0
  3  7  1  0  0  0  0
  4  5  1  0  0  0  0
  4  3  1  0  0  0  0
  5  6  1  0  0  0  0
  6  7  2  0  0  0  0
  7  8  1  0  0  0  0
  8  9  1  0  0  0  0
  8 12  1  0  0  0  0
  9 10  2  0  0  0  0
 10 11  1  0  0  0  0
 12 22  1  0  0  0  0
 12 11  2  0  0  0  0
 13 14  1  0  0  0  0
 13 15  1  0  0  0  0
 15 16  1  0  0  0  0
 16 18  2  0  0  0  0
 16 17  1  0  0  0  0
 19 18  1  0  0  0  0
 20 19  2  0  0  0  0
 21 20  1  0  0  0  0
 21 15  2  0  0  0  0
 22 23  1  0  0  0  0
 23 24  2  0  0  0  0
 25 23  1  0  0  0  0
 26 25  1  0  0  0  0
 27 26  1  0  0  0  0
M  END
>  <Pose>
1

>  <Score>
-5.942

$$$$
