/Users/jonathanwahrer/Desktop/Msc/3_Semester/Drug_Design_Praktikum/waehrer_HTS_screening/HTS_experiment/out/docking_results/vina_output/6y4q/0908_docked.pdbqt
 OpenBabel03232217593D

 25 28  0  0  0  0  0  0  0  0999 V2000
    2.8620  -19.1680  -38.2420 N   0  0  0  0  0  0  0  0  0  0  0  0
    3.3760  -19.0630  -39.4800 C   0  0  0  0  0  0  0  0  0  0  0  0
    3.0900  -18.1550  -40.3160 O   0  0  0  0  0  0  0  0  0  0  0  0
    4.2710  -20.0810  -39.7410 C   0  0  0  0  0  0  0  0  0  0  0  0
    4.3020  -20.8160  -38.6420 C   0  0  0  0  0  0  0  0  0  0  0  0
    5.1830  -21.8080  -38.9120 N   0  0  0  0  0  0  0  0  0  0  0  0
    5.6690  -21.6770  -40.1330 N   0  0  0  0  0  0  0  0  0  0  0  0
    5.1190  -20.6150  -40.6640 N   0  0  0  0  0  0  0  0  0  0  0  0
    3.4370  -20.2620  -37.7110 C   0  0  0  0  0  0  0  0  0  0  0  0
    3.2350  -20.7340  -36.5450 O   0  0  0  0  0  0  0  0  0  0  0  0
    5.4550  -22.5770  -38.2640 H   0  0  0  0  0  0  0  0  0  0  0  0
    6.3620  -22.3020  -40.5920 H   0  0  0  0  0  0  0  0  0  0  0  0
    1.9110  -18.3210  -37.5940 C   0  0  0  0  0  0  0  0  0  0  0  0
    0.5530  -18.5030  -37.7580 C   0  0  0  0  0  0  0  0  0  0  0  0
   -0.0710  -20.0910  -39.0100 I   0  0  0  0  0  0  0  0  0  0  0  0
   -0.3840  -17.6970  -37.1420 C   0  0  0  0  0  3  0  0  0  0  0  0
    0.0100  -16.6590  -36.3230 C   0  0  0  0  0  3  0  0  0  0  0  0
    1.3650  -16.4680  -36.1530 C   0  0  0  0  0  3  0  0  0  0  0  0
    2.2970  -17.2810  -36.7740 C   0  0  0  0  0  3  0  0  0  0  0  0
    5.3260  -20.0690  -41.9590 C   0  0  0  0  0  0  0  0  0  0  0  0
    4.8470  -20.6800  -43.0970 C   0  0  0  0  0  3  0  0  0  0  0  0
    5.0660  -20.1210  -44.3460 C   0  0  0  0  0  3  0  0  0  0  0  0
    5.7650  -18.9430  -44.5050 C   0  0  0  0  0  3  0  0  0  0  0  0
    6.2450  -18.3300  -43.3670 C   0  0  0  0  0  3  0  0  0  0  0  0
    6.0330  -18.8760  -42.1250 C   0  0  0  0  0  3  0  0  0  0  0  0
  1  9  1  0  0  0  0
  1 13  1  0  0  0  0
  2  1  1  0  0  0  0
  3  2  2  0  0  0  0
  4  2  1  0  0  0  0
  4  5  2  0  0  0  0
  5  9  1  0  0  0  0
  6  5  1  0  0  0  0
  6 11  1  0  0  0  0
  7  6  1  0  0  0  0
  8  7  1  0  0  0  0
  8  4  1  0  0  0  0
  9 10  2  0  0  0  0
 12  7  1  0  0  0  0
 13 19  1  0  0  0  0
 14 13  2  0  0  0  0
 14 16  1  0  0  0  0
 15 14  1  0  0  0  0
 16 17  2  0  0  0  0
 17 18  1  0  0  0  0
 19 18  2  0  0  0  0
 20  8  1  0  0  0  0
 21 20  2  0  0  0  0
 22 21  1  0  0  0  0
 23 22  2  0  0  0  0
 23 24  1  0  0  0  0
 24 25  2  0  0  0  0
 25 20  1  0  0  0  0
M  END
>  <Pose>
1

>  <Score>
-5.903

$$$$
