MODEL 1
REMARK VINA RESULT:    -5.903      0.000      0.000
REMARK INTER + INTRA:          -7.095
REMARK INTER:                  -6.594
REMARK INTRA:                  -0.502
REMARK UNBOUND:                -0.502
REMARK  2 active torsions:
REMARK  status: ('A' for Active; 'I' for Inactive)
REMARK    1  A    between atoms: C_3  and  N_8 
REMARK    2  A    between atoms: N_15  and  C_16 
ROOT
ATOM      1  N   UNK d   1       2.862 -19.168 -38.242  0.00  0.00    -0.240 N 
ATOM      2  C   UNK d   1       3.376 -19.063 -39.480  0.00  0.00     0.286 A 
ATOM      3  O   UNK d   1       3.090 -18.155 -40.316  0.00  0.00    -0.265 OA
ATOM      4  C   UNK d   1       4.271 -20.081 -39.741  0.00  0.00     0.160 A 
ATOM      5  C   UNK d   1       4.302 -20.816 -38.642  0.00  0.00     0.152 A 
ATOM      6  N   UNK d   1       5.183 -21.808 -38.912  0.00  0.00    -0.278 N 
ATOM      7  N   UNK d   1       5.669 -21.677 -40.133  0.00  0.00    -0.234 N 
ATOM      8  N   UNK d   1       5.119 -20.615 -40.664  0.00  0.00    -0.234 N 
ATOM      9  C   UNK d   1       3.437 -20.262 -37.711  0.00  0.00     0.286 A 
ATOM     10  O   UNK d   1       3.235 -20.734 -36.545  0.00  0.00    -0.265 OA
ATOM     11  H   UNK d   1       5.455 -22.577 -38.264  0.00  0.00     0.189 HD
ATOM     12  H   UNK d   1       6.362 -22.302 -40.592  0.00  0.00     0.209 HD
ENDROOT
BRANCH   1  13
ATOM     13  C   UNK d   1       1.911 -18.321 -37.594  0.00  0.00     0.062 A 
ATOM     14  C   UNK d   1       0.553 -18.503 -37.758  0.00  0.00     0.034 A 
ATOM     15  I   UNK d   1      -0.071 -20.091 -39.010  0.00  0.00    -0.042 I 
ATOM     16  C   UNK d   1      -0.384 -17.697 -37.142  0.00  0.00     0.020 A 
ATOM     17  C   UNK d   1       0.010 -16.659 -36.323  0.00  0.00     0.001 A 
ATOM     18  C   UNK d   1       1.365 -16.468 -36.153  0.00  0.00     0.002 A 
ATOM     19  C   UNK d   1       2.297 -17.281 -36.774  0.00  0.00     0.031 A 
ENDBRANCH   1  13
BRANCH   8  20
ATOM     20  C   UNK d   1       5.326 -20.069 -41.959  0.00  0.00     0.058 A 
ATOM     21  C   UNK d   1       4.847 -20.680 -43.097  0.00  0.00     0.031 A 
ATOM     22  C   UNK d   1       5.066 -20.121 -44.346  0.00  0.00     0.002 A 
ATOM     23  C   UNK d   1       5.765 -18.943 -44.505  0.00  0.00     0.000 A 
ATOM     24  C   UNK d   1       6.245 -18.330 -43.367  0.00  0.00     0.002 A 
ATOM     25  C   UNK d   1       6.033 -18.876 -42.125  0.00  0.00     0.031 A 
ENDBRANCH   8  20
TORSDOF 2
ENDMDL
