MODEL 1
REMARK VINA RESULT:    -5.493      0.000      0.000
REMARK INTER + INTRA:          -7.314
REMARK INTER:                  -6.456
REMARK INTRA:                  -0.858
REMARK UNBOUND:                -0.858
REMARK  3 active torsions:
REMARK  status: ('A' for Active; 'I' for Inactive)
REMARK    1  A    between atoms: C_3  and  C_8 
REMARK       I    between atoms: C_8  and  N_10 
REMARK    2  A    between atoms: N_10  and  C_11 
REMARK    3  A    between atoms: C_17  and  N_20 
ROOT
ATOM      1  C   UNK d   1       2.406 -17.624 -39.945  0.00  0.00     0.069 A 
ATOM      2  C   UNK d   1       2.749 -18.555 -38.937  0.00  0.00     0.146 A 
ATOM      3  N   UNK d   1       2.591 -18.519 -37.619  0.00  0.00    -0.101 NA
ATOM      4  O   UNK d   1       3.074 -19.616 -37.120  0.00  0.00    -0.106 OA
ATOM      5  N   UNK d   1       3.540 -20.366 -38.053  0.00  0.00    -0.101 NA
ATOM      6  C   UNK d   1       3.356 -19.734 -39.220  0.00  0.00     0.146 A 
ATOM      7  C   UNK d   1       3.657 -20.053 -40.525  0.00  0.00     0.064 A 
ATOM      8  C   UNK d   1       3.339 -19.172 -41.526  0.00  0.00     0.034 A 
ATOM      9  C   UNK d   1       2.720 -17.968 -41.252  0.00  0.00     0.034 A 
ENDROOT
BRANCH   1  10
ATOM     10  N   UNK d   1       1.720 -16.512 -39.501  0.00  0.00    -0.319 N 
ATOM     11  C   UNK d   1       1.058 -15.439 -39.072  0.00  0.00     0.275 C 
ATOM     12  O   UNK d   1      -0.051 -15.012 -39.596  0.00  0.00    -0.266 OA
ATOM     13  H   UNK d   1       0.897 -16.610 -40.580  0.00  0.00     0.169 HD
BRANCH  11  14
ATOM     14  C   UNK d   1       1.459 -14.554 -37.944  0.00  0.00     0.138 A 
ATOM     15  C   UNK d   1       2.212 -13.406 -38.070  0.00  0.00     0.059 A 
ATOM     16  I   UNK d   1       3.048 -12.631 -39.867  0.00  0.00    -0.040 I 
ATOM     17  C   UNK d   1       2.322 -12.847 -36.821  0.00  0.00     0.159 A 
ATOM     18  N   UNK d   1       1.652 -13.648 -35.995  0.00  0.00    -0.183 NA
ATOM     19  N   UNK d   1       1.129 -14.674 -36.656  0.00  0.00    -0.268 N 
ATOM     20  C   UNK d   1       0.290 -15.703 -36.014  0.00  0.00     0.180 C 
ENDBRANCH  11  14
ENDBRANCH   1  10
BRANCH   7  21
ATOM     21  N   UNK d   1       4.292 -21.279 -40.775  0.00  0.00    -0.375 N 
ATOM     22  C   UNK d   1       5.728 -21.480 -40.582  0.00  0.00     0.149 C 
ATOM     23  C   UNK d   1       6.257 -21.807 -41.963  0.00  0.00     0.187 C 
ATOM     24  O   UNK d   1       5.274 -21.856 -42.938  0.00  0.00    -0.388 OA
ATOM     25  C   UNK d   1       4.210 -22.687 -42.660  0.00  0.00     0.187 C 
ATOM     26  C   UNK d   1       3.678 -22.499 -41.250  0.00  0.00     0.149 C 
ENDBRANCH   7  21
TORSDOF 3
ENDMDL
