/Users/jonathanwahrer/Desktop/Msc/3_Semester/Drug_Design_Praktikum/waehrer_HTS_screening/HTS_experiment/out/docking_results/vina_output/6y4q/0910_docked.pdbqt
 OpenBabel03232217593D

 26 29  0  0  0  0  0  0  0  0999 V2000
    2.4060  -17.6240  -39.9450 C   0  0  0  0  0  0  0  0  0  0  0  0
    2.7490  -18.5550  -38.9370 C   0  0  0  0  0  0  0  0  0  0  0  0
    2.5910  -18.5190  -37.6190 N   0  0  0  0  0  0  0  0  0  0  0  0
    3.0740  -19.6160  -37.1200 O   0  0  0  0  0  0  0  0  0  0  0  0
    3.5400  -20.3660  -38.0530 N   0  0  0  0  0  0  0  0  0  0  0  0
    3.3560  -19.7340  -39.2200 C   0  0  0  0  0  0  0  0  0  0  0  0
    3.6570  -20.0530  -40.5250 C   0  0  0  0  0  0  0  0  0  0  0  0
    3.3390  -19.1720  -41.5260 C   0  0  0  0  0  3  0  0  0  0  0  0
    2.7200  -17.9680  -41.2520 C   0  0  0  0  0  3  0  0  0  0  0  0
    1.7200  -16.5120  -39.5010 N   0  0  0  0  0  0  0  0  0  0  0  0
    1.0580  -15.4390  -39.0720 C   0  0  0  0  0  0  0  0  0  0  0  0
   -0.0510  -15.0120  -39.5960 O   0  0  0  0  0  0  0  0  0  0  0  0
    0.8970  -16.6100  -40.5800 H   0  0  0  0  0  0  0  0  0  0  0  0
    1.4590  -14.5540  -37.9440 C   0  0  0  0  0  0  0  0  0  0  0  0
    2.2120  -13.4060  -38.0700 C   0  0  0  0  0  0  0  0  0  0  0  0
    3.0480  -12.6310  -39.8670 I   0  0  0  0  0  0  0  0  0  0  0  0
    2.3220  -12.8470  -36.8210 C   0  0  0  0  0  3  0  0  0  0  0  0
    1.6520  -13.6480  -35.9950 N   0  0  0  0  0  0  0  0  0  0  0  0
    1.1290  -14.6740  -36.6560 N   0  0  0  0  0  0  0  0  0  0  0  0
    0.2900  -15.7030  -36.0140 C   0  0  0  0  0  1  0  0  0  0  0  0
    4.2920  -21.2790  -40.7750 N   0  0  0  0  0  0  0  0  0  0  0  0
    5.7280  -21.4800  -40.5820 C   0  0  0  0  0  2  0  0  0  0  0  0
    6.2570  -21.8070  -41.9630 C   0  0  0  0  0  2  0  0  0  0  0  0
    5.2740  -21.8560  -42.9380 O   0  0  0  0  0  0  0  0  0  0  0  0
    4.2100  -22.6870  -42.6600 C   0  0  0  0  0  2  0  0  0  0  0  0
    3.6780  -22.4990  -41.2500 C   0  0  0  0  0  2  0  0  0  0  0  0
  1 10  1  0  0  0  0
  1  2  1  0  0  0  0
  2  3  2  0  0  0  0
  3  4  1  0  0  0  0
  5  4  1  0  0  0  0
  6  2  1  0  0  0  0
  6  5  2  0  0  0  0
  7  6  1  0  0  0  0
  8  9  1  0  0  0  0
  8  7  2  0  0  0  0
  9  1  2  0  0  0  0
 10 11  1  0  0  0  0
 11 14  1  0  0  0  0
 12 11  2  0  0  0  0
 13 10  1  0  0  0  0
 14 19  1  0  0  0  0
 15 14  2  0  0  0  0
 15 17  1  0  0  0  0
 16 15  1  0  0  0  0
 17 18  2  0  0  0  0
 19 20  1  0  0  0  0
 19 18  1  0  0  0  0
 21 22  1  0  0  0  0
 21  7  1  0  0  0  0
 23 22  1  0  0  0  0
 24 25  1  0  0  0  0
 24 23  1  0  0  0  0
 25 26  1  0  0  0  0
 26 21  1  0  0  0  0
M  END
>  <Pose>
1

>  <Score>
-5.493

$$$$
