/Users/jonathanwahrer/Desktop/Msc/3_Semester/Drug_Design_Praktikum/waehrer_HTS_screening/HTS_experiment/out/docking_results/vina_output/6y4q/0920_docked.pdbqt
 OpenBabel03232217593D

 24 27  0  0  1  0  0  0  0  0999 V2000
    0.9560  -16.5600  -36.7520 N   0  0  0  0  0  0  0  0  0  0  0  0
    1.3950  -17.1810  -37.8020 C   0  0  1  0  0  3  0  0  0  0  0  0
    1.0670  -17.3460  -39.5640 S   0  0  0  0  0  0  0  0  0  0  0  0
    2.3910  -18.5040  -39.8240 C   0  0  0  0  0  3  0  0  0  0  0  0
    2.9980  -18.7190  -38.6780 C   0  0  0  0  0  0  0  0  0  0  0  0
    2.4860  -18.0180  -37.5590 N   0  0  0  0  0  0  0  0  0  0  0  0
    2.7850  -17.8950  -36.1090 C   0  0  0  0  0  3  0  0  0  0  0  0
    1.7230  -16.9780  -35.6100 C   0  0  0  0  0  3  0  0  0  0  0  0
   -0.1290  -15.6530  -36.7250 C   0  0  0  0  0  2  0  0  0  0  0  0
    0.0570  -14.2390  -36.9200 C   0  0  1  0  0  3  0  0  0  0  0  0
   -0.9740  -13.5360  -36.5330 O   0  0  0  0  0  1  0  0  0  0  0  0
    1.1360  -13.4490  -37.4480 C   0  0  0  0  0  0  0  0  0  0  0  0
    2.0660  -12.8490  -36.6550 C   0  0  0  0  0  3  0  0  0  0  0  0
    3.0710  -12.0890  -37.1900 C   0  0  0  0  0  3  0  0  0  0  0  0
    3.2110  -11.8810  -38.5480 C   0  0  0  0  0  0  0  0  0  0  0  0
    4.7200  -10.7340  -39.4100 I   0  0  0  0  0  0  0  0  0  0  0  0
    2.2540  -12.4990  -39.3540 C   0  0  0  0  0  3  0  0  0  0  0  0
    1.2600  -13.2510  -38.8220 C   0  0  0  0  0  3  0  0  0  0  0  0
    4.1460  -19.6730  -38.6640 C   0  0  0  0  0  0  0  0  0  0  0  0
    5.4130  -19.2890  -38.3090 C   0  0  0  0  0  3  0  0  0  0  0  0
    6.4920  -20.1950  -38.2890 C   0  0  0  0  0  3  0  0  0  0  0  0
    6.2950  -21.5120  -38.6320 C   0  0  0  0  0  3  0  0  0  0  0  0
    5.0280  -21.9020  -38.9890 C   0  0  0  0  0  3  0  0  0  0  0  0
    3.9710  -21.0020  -39.0050 C   0  0  0  0  0  3  0  0  0  0  0  0
  1  9  1  0  0  0  0
  1  8  1  0  0  0  0
  2  3  1  6  0  0  0
  2  6  1  0  0  0  0
  2  1  1  0  0  0  0
  4  3  1  0  0  0  0
  4  5  2  0  0  0  0
  5 19  1  0  0  0  0
  5  6  1  0  0  0  0
  6  7  1  0  0  0  0
  7  8  2  0  0  0  0
 10  9  1  0  0  0  0
 10 11  1  1  0  0  0
 12 10  1  0  0  0  0
 12 13  1  0  0  0  0
 14 13  2  0  0  0  0
 15 14  1  0  0  0  0
 16 15  1  0  0  0  0
 17 18  1  0  0  0  0
 17 15  2  0  0  0  0
 18 12  2  0  0  0  0
 19 20  1  0  0  0  0
 20 21  2  0  0  0  0
 22 21  1  0  0  0  0
 23 22  2  0  0  0  0
 24 23  1  0  0  0  0
 24 19  2  0  0  0  0
M  END
>  <Pose>
1

>  <Score>
-6.447

$$$$
