MODEL 1
REMARK VINA RESULT:    -6.447      0.000      0.000
REMARK INTER + INTRA:          -8.292
REMARK INTER:                  -7.578
REMARK INTRA:                  -0.714
REMARK UNBOUND:                -0.714
REMARK  3 active torsions:
REMARK  status: ('A' for Active; 'I' for Inactive)
REMARK    1  A    between atoms: C_5  and  C_8 
REMARK    2  A    between atoms: C_10  and  N_11 
REMARK    3  A    between atoms: C_15  and  C_19 
ROOT
ATOM      1  N   UNK d   1       0.956 -16.560 -36.752  0.00  0.00    -0.353 N 
ATOM      2  C   UNK d   1       1.395 -17.181 -37.802  0.00  0.00     0.149 A 
ATOM      3  S   UNK d   1       1.067 -17.346 -39.564  0.00  0.00    -0.063 SA
ATOM      4  C   UNK d   1       2.391 -18.504 -39.824  0.00  0.00     0.083 A 
ATOM      5  C   UNK d   1       2.998 -18.719 -38.678  0.00  0.00     0.053 A 
ATOM      6  N   UNK d   1       2.486 -18.018 -37.559  0.00  0.00    -0.325 N 
ATOM      7  C   UNK d   1       2.785 -17.895 -36.109  0.00  0.00     0.151 A 
ATOM      8  C   UNK d   1       1.723 -16.978 -35.610  0.00  0.00     0.145 A 
ENDROOT
BRANCH   1   9
ATOM      9  C   UNK d   1      -0.129 -15.653 -36.725  0.00  0.00     0.193 C 
ATOM     10  C   UNK d   1       0.057 -14.239 -36.920  0.00  0.00     0.112 C 
ATOM     11  O   UNK d   1      -0.974 -13.536 -36.533  0.00  0.00    -0.194 OA
BRANCH  10  12
ATOM     12  C   UNK d   1       1.136 -13.449 -37.448  0.00  0.00    -0.002 A 
ATOM     13  C   UNK d   1       2.066 -12.849 -36.655  0.00  0.00     0.015 A 
ATOM     14  C   UNK d   1       3.071 -12.089 -37.190  0.00  0.00     0.019 A 
ATOM     15  C   UNK d   1       3.211 -11.881 -38.548  0.00  0.00     0.006 A 
ATOM     16  I   UNK d   1       4.720 -10.734 -39.410  0.00  0.00    -0.045 I 
ATOM     17  C   UNK d   1       2.254 -12.499 -39.354  0.00  0.00     0.019 A 
ATOM     18  C   UNK d   1       1.260 -13.251 -38.822  0.00  0.00     0.015 A 
ENDBRANCH  10  12
ENDBRANCH   1   9
BRANCH   5  19
ATOM     19  C   UNK d   1       4.146 -19.673 -38.664  0.00  0.00    -0.009 A 
ATOM     20  C   UNK d   1       5.413 -19.289 -38.309  0.00  0.00     0.014 A 
ATOM     21  C   UNK d   1       6.492 -20.195 -38.289  0.00  0.00     0.001 A 
ATOM     22  C   UNK d   1       6.295 -21.512 -38.632  0.00  0.00     0.000 A 
ATOM     23  C   UNK d   1       5.028 -21.902 -38.989  0.00  0.00     0.001 A 
ATOM     24  C   UNK d   1       3.971 -21.002 -39.005  0.00  0.00     0.014 A 
ENDBRANCH   5  19
TORSDOF 3
ENDMDL
