/Users/jonathanwahrer/Desktop/Msc/3_Semester/Drug_Design_Praktikum/waehrer_HTS_screening/HTS_experiment/out/docking_results/vina_output/6y4q/0924_docked.pdbqt
 OpenBabel03232218003D

 29 32  0  0  0  0  0  0  0  0999 V2000
    1.9900  -17.8420  -36.9810 C   0  0  0  0  0  0  0  0  0  0  0  0
    3.1630  -18.4000  -37.3220 N   0  0  0  0  0  4  0  0  0  0  0  0
    3.2160  -19.4640  -38.1330 C   0  0  0  0  0  0  0  0  0  0  0  0
    2.0440  -19.9410  -38.5830 N   0  0  0  0  0  0  0  0  0  0  0  0
    0.8470  -19.4090  -38.2630 C   0  0  0  0  0  0  0  0  0  0  0  0
    0.8370  -18.3390  -37.4460 N   0  0  0  0  0  2  0  0  0  0  0  0
    1.9580  -16.6910  -36.1030 N   0  0  0  0  0  0  0  0  0  0  0  0
    2.8200  -16.4090  -35.5860 H   0  0  0  0  0  0  0  0  0  0  0  0
    0.7970  -16.0110  -35.9420 N   0  0  0  0  0  0  0  0  0  0  0  0
    0.5710  -14.8680  -36.4220 C   0  0  0  0  0  3  0  0  0  0  0  0
    1.4430  -14.0490  -37.2180 C   0  0  0  0  0  0  0  0  0  0  0  0
    1.7540  -14.2030  -38.5370 C   0  0  0  0  0  3  0  0  0  0  0  0
    2.6210  -13.3430  -39.2260 C   0  0  0  0  0  3  0  0  0  0  0  0
    3.1960  -12.2950  -38.5760 C   0  0  0  0  0  0  0  0  0  0  0  0
    4.5010  -10.9570  -39.5160 I   0  0  0  0  0  0  0  0  0  0  0  0
    2.9000  -12.1150  -37.2430 C   0  0  0  0  0  3  0  0  0  0  0  0
    2.0500  -12.9610  -36.5730 C   0  0  0  0  0  3  0  0  0  0  0  0
    4.4510  -20.0740  -38.5080 N   0  0  0  0  0  0  0  0  0  0  0  0
    4.6130  -21.4880  -38.6670 C   0  0  0  0  0  2  0  0  0  0  0  0
    6.1020  -21.7610  -38.8910 C   0  0  0  0  0  2  0  0  0  0  0  0
    6.8850  -21.1210  -37.9440 O   0  0  0  0  0  0  0  0  0  0  0  0
    6.8250  -19.7510  -38.0200 C   0  0  0  0  0  2  0  0  0  0  0  0
    5.6110  -19.2290  -38.7440 C   0  0  0  0  0  2  0  0  0  0  0  0
   -0.3470  -19.9760  -38.7820 N   0  0  0  0  0  0  0  0  0  0  0  0
   -1.3420  -20.5020  -37.8760 C   0  0  0  0  0  2  0  0  0  0  0  0
   -1.9440  -21.7180  -38.5940 C   0  0  0  0  0  2  0  0  0  0  0  0
   -2.6110  -21.2550  -39.6970 O   0  0  0  0  0  0  0  0  0  0  0  0
   -1.8570  -20.6120  -40.6390 C   0  0  0  0  0  3  0  0  0  0  0  0
   -0.5680  -20.0290  -40.1860 C   0  0  0  0  0  3  0  0  0  0  0  0
  1  7  1  0  0  0  0
  2  1  2  0  0  0  0
  3  2  2  0  0  0  0
  4  5  2  0  0  0  0
  4  3  1  0  0  0  0
  5  6  1  0  0  0  0
  6  1  1  0  0  0  0
  7  9  1  0  0  0  0
  7  8  1  0  0  0  0
 10  9  2  0  0  0  0
 11 17  1  0  0  0  0
 11 10  1  0  0  0  0
 12 11  2  0  0  0  0
 13 14  2  0  0  0  0
 13 12  1  0  0  0  0
 14 16  1  0  0  0  0
 15 14  1  0  0  0  0
 16 17  2  0  0  0  0
 18  3  1  0  0  0  0
 19 18  1  0  0  0  0
 20 19  1  0  0  0  0
 20 21  1  0  0  0  0
 22 21  1  0  0  0  0
 23 18  1  0  0  0  0
 23 22  1  0  0  0  0
 24  5  1  0  0  0  0
 24 25  1  0  0  0  0
 26 25  1  0  0  0  0
 27 26  1  0  0  0  0
 28 29  2  0  0  0  0
 28 27  1  0  0  0  0
 29 24  1  0  0  0  0
M  END
>  <Pose>
1

>  <Score>
-7.146

$$$$
