MODEL 1
REMARK VINA RESULT:    -6.433      0.000      0.000
REMARK INTER + INTRA:          -6.099
REMARK INTER:                  -7.561
REMARK INTRA:                   1.463
REMARK UNBOUND:                 1.463
REMARK  3 active torsions:
REMARK  status: ('A' for Active; 'I' for Inactive)
REMARK    1  A    between atoms: C_5  and  N_8 
REMARK    2  A    between atoms: C_10  and  C_16 
REMARK    3  A    between atoms: C_22  and  O_29 
ROOT
ATOM      1  N   UNK d   1       0.717 -16.909 -37.850  0.00  0.00    -0.241 N 
ATOM      2  C   UNK d   1       0.725 -15.593 -38.124  0.00  0.00     0.204 A 
ATOM      3  C   UNK d   1      -0.362 -14.781 -37.885  0.00  0.00     0.100 A 
ATOM      4  C   UNK d   1      -1.470 -15.400 -37.342  0.00  0.00     0.262 A 
ATOM      5  O   UNK d   1      -2.549 -14.794 -37.064  0.00  0.00    -0.267 OA
ATOM      6  N   UNK d   1      -1.491 -16.739 -37.058  0.00  0.00    -0.274 N 
ATOM      7  C   UNK d   1      -0.388 -17.460 -37.324  0.00  0.00     0.336 A 
ATOM      8  O   UNK d   1      -0.360 -18.693 -37.081  0.00  0.00    -0.246 OA
ATOM      9  O   UNK d   1       1.847 -15.015 -38.660  0.00  0.00    -0.171 OA
ATOM     10  H   UNK d   1      -2.326 -17.200 -36.651  0.00  0.00     0.173 HD
ENDROOT
BRANCH   3  11
ATOM     11  C   UNK d   1      -0.435 -13.359 -38.168  0.00  0.00     0.267 C 
ATOM     12  N   UNK d   1      -1.102 -12.531 -37.215  0.00  0.00    -0.062 N 
ATOM     13  C   UNK d   1      -0.470 -12.472 -35.925  0.00  0.00     0.240 C 
ATOM     14  C   UNK d   1      -0.991 -11.152 -37.758  0.00  0.00     0.270 C 
ATOM     15  H   UNK d   1      -2.128 -12.637 -37.148  0.00  0.00     0.280 HD
ATOM     16  C   UNK d   1       0.907 -13.101 -35.903  0.00  0.00     0.067 C 
ATOM     17  C   UNK d   1       1.659 -12.644 -37.131  0.00  0.00    -0.042 A 
ATOM     18  C   UNK d   1       0.944 -12.764 -38.296  0.00  0.00     0.020 A 
ATOM     19  C   UNK d   1       2.912 -12.128 -37.108  0.00  0.00     0.047 A 
ATOM     20  C   UNK d   1       1.485 -12.356 -39.491  0.00  0.00     0.113 A 
ATOM     21  C   UNK d   1       2.768 -11.828 -39.461  0.00  0.00     0.139 A 
ATOM     22  C   UNK d   1       3.501 -11.703 -38.298  0.00  0.00     0.108 A 
ATOM     23  O   UNK d   1       3.600 -11.327 -40.474  0.00  0.00    -0.320 OA
ATOM     24  O   UNK d   1       4.730 -11.145 -38.612  0.00  0.00    -0.323 OA
ATOM     25  C   UNK d   1       4.942 -11.250 -40.029  0.00  0.00     0.352 C 
BRANCH  20  26
ATOM     26  O   UNK d   1       0.766 -12.478 -40.645  0.00  0.00    -0.352 OA
ATOM     27  C   UNK d   1       0.963 -13.402 -41.667  0.00  0.00     0.210 C 
ENDBRANCH  20  26
ENDBRANCH   3  11
BRANCH   1  28
ATOM     28  C   UNK d   1       1.849 -17.726 -38.106  0.00  0.00     0.046 A 
ATOM     29  C   UNK d   1       2.127 -18.240 -39.363  0.00  0.00     0.031 A 
ATOM     30  C   UNK d   1       3.214 -19.026 -39.611  0.00  0.00     0.020 A 
ATOM     31  C   UNK d   1       4.100 -19.345 -38.588  0.00  0.00     0.006 A 
ATOM     32  I   UNK d   1       5.769 -20.555 -38.984  0.00  0.00    -0.045 I 
ATOM     33  C   UNK d   1       3.828 -18.836 -37.340  0.00  0.00     0.020 A 
ATOM     34  C   UNK d   1       2.732 -18.041 -37.079  0.00  0.00     0.031 A 
ENDBRANCH   1  28
TORSDOF 3
ENDMDL
