MODEL 1
REMARK VINA RESULT:    -6.924      0.000      0.000
REMARK INTER + INTRA:          -8.550
REMARK INTER:                  -8.139
REMARK INTRA:                  -0.412
REMARK UNBOUND:                -0.412
REMARK  3 active torsions:
REMARK  status: ('A' for Active; 'I' for Inactive)
REMARK    1  A    between atoms: C_5  and  N_8 
REMARK    2  A    between atoms: C_11  and  N_15 
REMARK    3  A    between atoms: N_18  and  C_21 
ROOT
ATOM      1  N   UNK d   1       0.644 -15.156 -37.053  0.00  0.00    -0.251 N 
ATOM      2  C   UNK d   1       0.963 -16.464 -36.607  0.00  0.00     0.254 C 
ATOM      3  O   UNK d   1       2.095 -16.797 -36.170  0.00  0.00    -0.270 OA
ATOM      4  C   UNK d   1      -0.233 -17.342 -36.738  0.00  0.00     0.181 C 
ATOM      5  C   UNK d   1      -1.363 -16.341 -36.570  0.00  0.00     0.138 C 
ATOM      6  C   UNK d   1      -0.775 -15.047 -36.972  0.00  0.00     0.233 C 
ATOM      7  O   UNK d   1      -1.406 -13.978 -37.215  0.00  0.00    -0.273 OA
ENDROOT
BRANCH   4   8
ATOM      8  N   UNK d   1      -0.200 -17.951 -38.004  0.00  0.00    -0.397 N 
ATOM      9  C   UNK d   1       0.646 -17.485 -39.010  0.00  0.00     0.138 C 
ATOM     10  C   UNK d   1       0.926 -18.682 -39.956  0.00  0.00     0.161 C 
ATOM     11  N   UNK d   1       1.320 -19.818 -39.136  0.00  0.00    -0.211 N 
ATOM     12  C   UNK d   1       0.353 -20.278 -38.170  0.00  0.00     0.161 C 
ATOM     13  C   UNK d   1      -0.761 -19.236 -38.115  0.00  0.00     0.138 C 
BRANCH  11  14
ATOM     14  C   UNK d   1       2.585 -20.424 -39.283  0.00  0.00     0.724 A 
ATOM     15  N   UNK d   1       3.415 -20.567 -38.214  0.00  0.00    -0.075 NA
ATOM     16  C   UNK d   1       4.615 -21.139 -38.289  0.00  0.00     0.138 A 
ATOM     17  C   UNK d   1       5.082 -21.626 -39.502  0.00  0.00     0.040 A 
ATOM     18  C   UNK d   1       4.233 -21.477 -40.585  0.00  0.00     0.138 A 
ATOM     19  N   UNK d   1       3.032 -20.895 -40.465  0.00  0.00    -0.075 NA
ENDBRANCH  11  14
ENDBRANCH   4   8
BRANCH   1  20
ATOM     20  C   UNK d   1       1.543 -14.124 -37.502  0.00  0.00     0.045 A 
ATOM     21  C   UNK d   1       1.962 -14.112 -38.816  0.00  0.00     0.031 A 
ATOM     22  C   UNK d   1       2.824 -13.145 -39.293  0.00  0.00     0.020 A 
ATOM     23  C   UNK d   1       3.300 -12.150 -38.464  0.00  0.00     0.006 A 
ATOM     24  I   UNK d   1       4.619 -10.650 -39.152  0.00  0.00    -0.045 I 
ATOM     25  C   UNK d   1       2.892 -12.147 -37.148  0.00  0.00     0.020 A 
ATOM     26  C   UNK d   1       2.029 -13.125 -36.693  0.00  0.00     0.031 A 
ENDBRANCH   1  20
TORSDOF 3
ENDMDL
