MODEL 1
REMARK VINA RESULT:    -6.023      0.000      0.000
REMARK INTER + INTRA:          -8.518
REMARK INTER:                  -7.784
REMARK INTRA:                  -0.734
REMARK UNBOUND:                -0.734
REMARK  6 active torsions:
REMARK  status: ('A' for Active; 'I' for Inactive)
REMARK    1  A    between atoms: N_5  and  C_7 
REMARK    2  A    between atoms: C_9  and  C_13 
REMARK    3  A    between atoms: C_10  and  O_12 
REMARK    4  A    between atoms: C_13  and  O_14 
REMARK    5  A    between atoms: C_18  and  N_19 
REMARK       I    between atoms: N_19  and  C_20 
REMARK    6  A    between atoms: C_20  and  C_22 
ROOT
ATOM      1  I   UNK d   1       2.123 -17.102 -40.441  0.00  0.00    -0.042 I 
ATOM      2  C   UNK d   1       0.584 -17.974 -39.295  0.00  0.00     0.040 A 
ATOM      3  C   UNK d   1       0.191 -17.594 -38.045  0.00  0.00     0.074 A 
ATOM      4  C   UNK d   1      -0.848 -18.468 -37.724  0.00  0.00     0.148 A 
ATOM      5  N   UNK d   1      -1.087 -19.335 -38.709  0.00  0.00    -0.312 N 
ATOM      6  C   UNK d   1      -0.216 -19.040 -39.674  0.00  0.00     0.114 A 
ATOM      7  N   UNK d   1      -1.436 -18.321 -36.525  0.00  0.00    -0.223 NA
ATOM      8  C   UNK d   1      -1.036 -17.369 -35.668  0.00  0.00     0.237 A 
ATOM      9  N   UNK d   1      -0.041 -16.533 -35.979  0.00  0.00    -0.223 NA
ATOM     10  C   UNK d   1       0.614 -16.612 -37.179  0.00  0.00     0.147 A 
ENDROOT
BRANCH   5  11
ATOM     11  C   UNK d   1      -2.063 -20.381 -38.767  0.00  0.00     0.232 C 
ATOM     12  O   UNK d   1      -1.552 -21.639 -38.471  0.00  0.00    -0.356 OA
ATOM     13  C   UNK d   1      -2.638 -22.471 -38.727  0.00  0.00     0.176 C 
ATOM     14  C   UNK d   1      -3.310 -21.947 -39.974  0.00  0.00     0.153 C 
ATOM     15  C   UNK d   1      -2.585 -20.613 -40.188  0.00  0.00     0.088 C 
BRANCH  13  16
ATOM     16  C   UNK d   1      -2.144 -23.884 -39.067  0.00  0.00     0.198 C 
BRANCH  16  17
ATOM     17  O   UNK d   1      -2.061 -24.629 -37.883  0.00  0.00    -0.398 OA
ATOM     18  H   UNK d   1      -2.182 -25.613 -38.072  0.00  0.00     0.209 HD
ENDBRANCH  16  17
ENDBRANCH  13  16
BRANCH  14  19
ATOM     19  O   UNK d   1      -4.649 -21.628 -39.744  0.00  0.00    -0.393 OA
ATOM     20  H   UNK d   1      -4.816 -21.864 -38.780  0.00  0.00     0.210 HD
ENDBRANCH  14  19
ENDBRANCH   5  11
BRANCH  10  21
ATOM     21  N   UNK d   1       1.667 -15.695 -37.457  0.00  0.00    -0.306 N 
ATOM     22  C   UNK d   1       1.332 -14.354 -37.799  0.00  0.00     0.257 C 
ATOM     23  O   UNK d   1       0.110 -14.057 -37.835  0.00  0.00    -0.267 OA
ATOM     24  H   UNK d   1       2.668 -15.911 -37.434  0.00  0.00     0.170 HD
BRANCH  22  25
ATOM     25  C   UNK d   1       2.293 -13.329 -38.101  0.00  0.00     0.032 A 
ATOM     26  C   UNK d   1       2.696 -12.430 -37.153  0.00  0.00     0.017 A 
ATOM     27  C   UNK d   1       3.632 -11.431 -37.430  0.00  0.00     0.001 A 
ATOM     28  C   UNK d   1       4.164 -11.342 -38.682  0.00  0.00     0.000 A 
ATOM     29  C   UNK d   1       3.778 -12.228 -39.654  0.00  0.00     0.001 A 
ATOM     30  C   UNK d   1       2.839 -13.222 -39.354  0.00  0.00     0.017 A 
ENDBRANCH  22  25
ENDBRANCH  10  21
TORSDOF 6
ENDMDL
