/Users/jonathanwahrer/Desktop/Msc/3_Semester/Drug_Design_Praktikum/waehrer_HTS_screening/HTS_experiment/out/docking_results/vina_output/6y4q/0961_docked.pdbqt
 OpenBabel03232218013D

 29 33  0  0  1  0  0  0  0  0999 V2000
    0.3510  -16.8360  -37.6060 C   0  0  1  0  0  3  0  0  0  0  0  0
   -0.8520  -17.1490  -37.1900 N   0  0  0  0  0  0  0  0  0  0  0  0
   -1.6910  -16.1730  -36.7270 C   0  0  0  0  0  3  0  0  0  0  0  0
   -1.3580  -14.8550  -36.6680 C   0  0  0  0  0  3  0  0  0  0  0  0
   -0.1030  -14.4860  -37.1000 C   0  0  0  0  0  0  0  0  0  0  0  0
    0.5710  -13.2880  -37.1890 N   0  0  0  0  0  0  0  0  0  0  0  0
    1.7800  -13.4990  -37.6830 C   0  0  0  0  0  0  0  0  0  0  0  0
    1.8630  -14.8390  -37.9060 N   0  0  0  0  0  0  0  0  0  0  0  0
    0.7310  -15.4640  -37.5590 C   0  0  0  0  0  0  0  0  0  0  0  0
   -0.0710  -12.0670  -36.7930 C   0  0  0  0  0  1  0  0  0  0  0  0
   -1.3660  -18.4850  -37.2660 C   0  0  0  0  0  1  0  0  0  0  0  0
    1.3940  -17.7520  -38.0270 C   0  0  0  0  0  3  0  0  0  0  0  0
    1.9810  -17.9350  -39.1570 C   0  0  0  0  0  3  0  0  0  0  0  0
    3.0260  -18.8410  -39.5760 C   0  0  0  0  0  0  0  0  0  0  0  0
    3.7600  -18.7650  -40.7130 C   0  0  0  0  0  0  0  0  0  0  0  0
    3.3650  -17.4500  -42.0350 Br  0  0  0  0  0  0  0  0  0  0  0  0
    4.8100  -19.6750  -40.9940 C   0  0  0  0  0  3  0  0  0  0  0  0
    5.1200  -20.6760  -40.1140 C   0  0  0  0  0  0  0  0  0  0  0  0
    4.3900  -20.7790  -38.9510 C   0  0  0  0  0  0  0  0  0  0  0  0
    6.0640  -21.7070  -40.0880 O   0  0  0  0  0  0  0  0  0  0  0  0
    3.3720  -19.8900  -38.6880 C   0  0  0  0  0  3  0  0  0  0  0  0
    4.9030  -21.8750  -38.2370 O   0  0  0  0  0  0  0  0  0  0  0  0
    6.2180  -22.0720  -38.7170 C   0  0  0  0  0  2  0  0  0  0  0  0
    2.8460  -12.5350  -37.9770 C   0  0  0  0  0  0  0  0  0  0  0  0
    3.4270  -11.7100  -37.0720 C   0  0  0  0  0  3  0  0  0  0  0  0
    4.4240  -10.8030  -37.4790 C   0  0  0  0  0  3  0  0  0  0  0  0
    4.8170  -10.7480  -38.7960 C   0  0  0  0  0  3  0  0  0  0  0  0
    4.2390  -11.5830  -39.7430 C   0  0  0  0  0  3  0  0  0  0  0  0
    3.2830  -12.4410  -39.3090 C   0  0  0  0  0  3  0  0  0  0  0  0
  1 12  1  1  0  0  0
  1  9  1  0  0  0  0
  1  2  1  0  0  0  0
  2  3  1  0  0  0  0
  3  4  2  0  0  0  0
  5  4  1  0  0  0  0
  6  5  1  0  0  0  0
  6 10  1  0  0  0  0
  7  6  1  0  0  0  0
  8  7  2  0  0  0  0
  8  9  1  0  0  0  0
  9  5  2  0  0  0  0
 11  2  1  0  0  0  0
 13 12  2  0  0  0  0
 14 13  1  0  0  0  0
 14 21  1  0  0  0  0
 15 14  2  0  0  0  0
 16 15  1  0  0  0  0
 17 15  1  0  0  0  0
 17 18  2  0  0  0  0
 18 20  1  0  0  0  0
 18 19  1  0  0  0  0
 19 21  2  0  0  0  0
 19 22  1  0  0  0  0
 20 23  1  0  0  0  0
 23 22  1  0  0  0  0
 24  7  1  0  0  0  0
 24 25  1  0  0  0  0
 26 25  2  0  0  0  0
 27 26  1  0  0  0  0
 28 29  1  0  0  0  0
 28 27  2  0  0  0  0
 29 24  2  0  0  0  0
M  END
>  <Pose>
1

>  <Score>
-7.921

$$$$
