MODEL 1
REMARK VINA RESULT:    -7.921      0.000      0.000
REMARK INTER + INTRA:          -9.928
REMARK INTER:                  -9.311
REMARK INTRA:                  -0.617
REMARK UNBOUND:                -0.617
REMARK  3 active torsions:
REMARK  status: ('A' for Active; 'I' for Inactive)
REMARK    1  A    between atoms: C_7  and  C_8 
REMARK    2  A    between atoms: C_9  and  C_10 
REMARK    3  A    between atoms: C_16  and  C_19 
ROOT
ATOM      1  C   UNK d   1       0.351 -16.836 -37.606  0.00  0.00     0.065 A 
ATOM      2  N   UNK d   1      -0.852 -17.149 -37.190  0.00  0.00    -0.359 N 
ATOM      3  C   UNK d   1      -1.691 -16.173 -36.727  0.00  0.00     0.093 A 
ATOM      4  C   UNK d   1      -1.358 -14.855 -36.668  0.00  0.00     0.049 A 
ATOM      5  C   UNK d   1      -0.103 -14.486 -37.100  0.00  0.00     0.068 A 
ATOM      6  N   UNK d   1       0.571 -13.288 -37.189  0.00  0.00    -0.333 N 
ATOM      7  C   UNK d   1       1.780 -13.499 -37.683  0.00  0.00     0.141 A 
ATOM      8  N   UNK d   1       1.863 -14.839 -37.906  0.00  0.00    -0.226 NA
ATOM      9  C   UNK d   1       0.731 -15.464 -37.559  0.00  0.00     0.113 A 
ATOM     10  C   UNK d   1      -0.071 -12.067 -36.793  0.00  0.00     0.158 C 
ATOM     11  C   UNK d   1      -1.366 -18.485 -37.266  0.00  0.00     0.156 C 
ENDROOT
BRANCH   1  12
ATOM     12  C   UNK d   1       1.394 -17.752 -38.027  0.00  0.00     0.033 C 
ATOM     13  C   UNK d   1       1.981 -17.935 -39.157  0.00  0.00     0.015 C 
BRANCH  13  14
ATOM     14  C   UNK d   1       3.026 -18.841 -39.576  0.00  0.00    -0.016 A 
ATOM     15  C   UNK d   1       3.760 -18.765 -40.713  0.00  0.00     0.024 A 
ATOM     16 Br   UNK d   1       3.365 -17.450 -42.035  0.00  0.00    -0.050 Br
ATOM     17  C   UNK d   1       4.810 -19.675 -40.994  0.00  0.00     0.059 A 
ATOM     18  C   UNK d   1       5.120 -20.676 -40.114  0.00  0.00     0.106 A 
ATOM     19  C   UNK d   1       4.390 -20.779 -38.951  0.00  0.00     0.105 A 
ATOM     20  O   UNK d   1       6.064 -21.707 -40.088  0.00  0.00    -0.323 OA
ATOM     21  C   UNK d   1       3.372 -19.890 -38.688  0.00  0.00     0.052 A 
ATOM     22  O   UNK d   1       4.903 -21.875 -38.237  0.00  0.00    -0.323 OA
ATOM     23  C   UNK d   1       6.218 -22.072 -38.717  0.00  0.00     0.352 C 
ENDBRANCH  13  14
ENDBRANCH   1  12
BRANCH   7  24
ATOM     24  C   UNK d   1       2.846 -12.535 -37.977  0.00  0.00     0.010 A 
ATOM     25  C   UNK d   1       3.427 -11.710 -37.072  0.00  0.00     0.015 A 
ATOM     26  C   UNK d   1       4.424 -10.803 -37.479  0.00  0.00     0.001 A 
ATOM     27  C   UNK d   1       4.817 -10.748 -38.796  0.00  0.00     0.000 A 
ATOM     28  C   UNK d   1       4.239 -11.583 -39.743  0.00  0.00     0.001 A 
ATOM     29  C   UNK d   1       3.283 -12.441 -39.309  0.00  0.00     0.015 A 
ENDBRANCH   7  24
TORSDOF 3
ENDMDL
