MODEL 1
REMARK VINA RESULT:    -5.713      0.000      0.000
REMARK INTER + INTRA:          -7.443
REMARK INTER:                  -6.381
REMARK INTRA:                  -1.062
REMARK UNBOUND:                -1.062
REMARK  2 active torsions:
REMARK  status: ('A' for Active; 'I' for Inactive)
REMARK    1  A    between atoms: C_10  and  C_21 
REMARK    2  A    between atoms: C_26  and  C_27 
ROOT
ATOM      1 Br   UNK d   1      -4.623 -16.586 -39.308  0.00  0.00    -0.045 Br
ATOM      2  C   UNK d   1      -3.192 -15.339 -39.212  0.00  0.00     0.083 A 
ATOM      3  C   UNK d   1      -1.876 -15.705 -38.941  0.00  0.00     0.107 A 
ATOM      4  C   UNK d   1      -0.868 -14.756 -38.880  0.00  0.00     0.013 A 
ATOM      5  C   UNK d   1      -1.159 -13.424 -39.089  0.00  0.00     0.037 A 
ATOM      6  C   UNK d   1      -2.448 -13.056 -39.356  0.00  0.00     0.049 A 
ATOM      7  C   UNK d   1      -3.442 -14.000 -39.414  0.00  0.00     0.144 A 
ATOM      8  O   UNK d   1      -4.743 -13.545 -39.695  0.00  0.00    -0.189 OA
ATOM      9 Br   UNK d   1      -2.784 -11.186 -39.639  0.00  0.00    -0.048 Br
ATOM     10  C   UNK d   1       0.442 -15.092 -38.614  0.00  0.00     0.003 A 
ATOM     11  C   UNK d   1       0.724 -16.426 -38.407  0.00  0.00     0.013 A 
ATOM     12  C   UNK d   1      -0.405 -17.360 -38.489  0.00  0.00     0.108 A 
ATOM     13  C   UNK d   1      -0.103 -18.706 -38.277  0.00  0.00     0.097 A 
ATOM     14  C   UNK d   1       1.186 -19.102 -38.007  0.00  0.00     0.209 A 
ATOM     15  O   UNK d   1       1.411 -20.325 -37.823  0.00  0.00    -0.285 OA
ATOM     16  C   UNK d   1       2.235 -18.191 -37.936  0.00  0.00     0.063 A 
ATOM     17  C   UNK d   1       2.012 -16.860 -38.134  0.00  0.00     0.038 A 
ATOM     18 Br   UNK d   1       3.997 -18.828 -37.557  0.00  0.00    -0.047 Br
ATOM     19 Br   UNK d   1      -1.534 -19.986 -38.368  0.00  0.00    -0.044 Br
ATOM     20  O   UNK d   1      -1.633 -16.975 -38.748  0.00  0.00    -0.306 OA
ENDROOT
BRANCH  10  21
ATOM     21  C   UNK d   1       1.504 -14.087 -38.542  0.00  0.00     0.016 A 
ATOM     22  C   UNK d   1       1.774 -13.432 -37.355  0.00  0.00     0.046 A 
ATOM     23  C   UNK d   1       2.765 -12.478 -37.263  0.00  0.00     0.026 A 
ATOM     24 Cl   UNK d   1       0.821 -13.834 -35.922  0.00  0.00    -0.083 Cl
ATOM     25  C   UNK d   1       3.500 -12.178 -38.392  0.00  0.00     0.026 A 
ATOM     26  C   UNK d   1       3.266 -12.800 -39.581  0.00  0.00     0.052 A 
ATOM     27  C   UNK d   1       2.272 -13.750 -39.654  0.00  0.00     0.075 A 
ATOM     28 Cl   UNK d   1       4.249 -12.358 -40.968  0.00  0.00    -0.083 Cl
BRANCH  27  29
ATOM     29  C   UNK d   1       2.014 -14.409 -40.912  0.00  0.00     0.212 C 
ATOM     30  O   UNK d   1       2.638 -15.446 -41.270  0.00  0.00    -0.644 OA
ATOM     31  O   UNK d   1       1.050 -13.911 -41.785  0.00  0.00    -0.644 OA
ENDBRANCH  27  29
ENDBRANCH  10  21
TORSDOF 2
ENDMDL
