MODEL 1
REMARK VINA RESULT:    -6.794      0.000      0.000
REMARK INTER + INTRA:          -6.794
REMARK INTER:                  -6.794
REMARK INTRA:                   0.000
REMARK UNBOUND:                 0.000
REMARK  0 active torsions:
REMARK  status: ('A' for Active; 'I' for Inactive)
ROOT
ATOM      1 Br   UNK d   1       3.375 -22.431 -41.312  0.00  0.00    -0.045 Br
ATOM      2  C   UNK d   1       3.513 -20.937 -40.135  0.00  0.00     0.083 A 
ATOM      3  C   UNK d   1       2.419 -20.085 -39.899  0.00  0.00     0.106 A 
ATOM      4  C   UNK d   1       2.477 -19.007 -39.065  0.00  0.00     0.023 A 
ATOM      5  C   UNK d   1       3.691 -18.754 -38.423  0.00  0.00     0.036 A 
ATOM      6  C   UNK d   1       4.751 -19.579 -38.651  0.00  0.00     0.049 A 
ATOM      7  C   UNK d   1       4.698 -20.672 -39.493  0.00  0.00     0.144 A 
ATOM      8  O   UNK d   1       5.832 -21.480 -39.681  0.00  0.00    -0.189 OA
ATOM      9 Br   UNK d   1       6.413 -19.240 -37.777  0.00  0.00    -0.048 Br
ATOM     10  C   UNK d   1       1.326 -18.143 -38.841  0.00  0.00     0.159 A 
ATOM     11  O   UNK d   1       0.995 -18.256 -37.458  0.00  0.00    -0.291 OA
ATOM     12  C   UNK d   1       1.089 -17.058 -36.806  0.00  0.00     0.295 A 
ATOM     13  O   UNK d   1       0.854 -16.869 -35.590  0.00  0.00    -0.259 OA
ATOM     14  C   UNK d   1       1.504 -16.092 -37.805  0.00  0.00     0.049 A 
ATOM     15  C   UNK d   1       1.656 -16.701 -39.030  0.00  0.00     0.003 A 
ATOM     16  C   UNK d   1       2.042 -15.936 -40.081  0.00  0.00     0.012 A 
ATOM     17  C   UNK d   1       2.272 -14.588 -39.905  0.00  0.00     0.001 A 
ATOM     18  C   UNK d   1       2.121 -13.975 -38.680  0.00  0.00     0.001 A 
ATOM     19  C   UNK d   1       1.730 -14.733 -37.608  0.00  0.00     0.018 A 
ATOM     20  C   UNK d   1       0.136 -18.542 -39.584  0.00  0.00     0.023 A 
ATOM     21  C   UNK d   1       0.139 -19.634 -40.407  0.00  0.00     0.106 A 
ATOM     22  C   UNK d   1      -1.021 -20.005 -41.118  0.00  0.00     0.083 A 
ATOM     23  C   UNK d   1      -2.159 -19.247 -40.969  0.00  0.00     0.144 A 
ATOM     24  C   UNK d   1      -2.170 -18.137 -40.137  0.00  0.00     0.049 A 
ATOM     25  C   UNK d   1      -1.042 -17.784 -39.451  0.00  0.00     0.036 A 
ATOM     26 Br   UNK d   1      -3.739 -17.078 -39.922  0.00  0.00    -0.048 Br
ATOM     27  O   UNK d   1      -3.292 -19.623 -41.674  0.00  0.00    -0.189 OA
ATOM     28 Br   UNK d   1      -0.977 -21.540 -42.258  0.00  0.00    -0.045 Br
ATOM     29  O   UNK d   1       1.258 -20.434 -40.593  0.00  0.00    -0.306 OA
ENDROOT
TORSDOF 0
ENDMDL
