MODEL 1
REMARK VINA RESULT:    -6.517      0.000      0.000
REMARK INTER + INTRA:          -6.517
REMARK INTER:                  -6.517
REMARK INTRA:                   0.000
REMARK UNBOUND:                 0.000
REMARK  0 active torsions:
REMARK  status: ('A' for Active; 'I' for Inactive)
ROOT
ATOM      1  I   UNK d   1      -1.507 -21.510 -42.751  0.00  0.00    -0.038 I 
ATOM      2  C   UNK d   1      -1.489 -19.921 -41.360  0.00  0.00     0.078 A 
ATOM      3  C   UNK d   1      -0.296 -19.680 -40.686  0.00  0.00     0.105 A 
ATOM      4  C   UNK d   1      -0.254 -18.666 -39.786  0.00  0.00     0.023 A 
ATOM      5  C   UNK d   1      -1.404 -17.904 -39.567  0.00  0.00     0.035 A 
ATOM      6  C   UNK d   1      -2.590 -18.135 -40.229  0.00  0.00     0.045 A 
ATOM      7  C   UNK d   1      -2.624 -19.168 -41.144  0.00  0.00     0.143 A 
ATOM      8  O   UNK d   1      -3.808 -19.419 -41.822  0.00  0.00    -0.189 OA
ATOM      9  I   UNK d   1      -4.308 -16.948 -39.861  0.00  0.00    -0.042 I 
ATOM     10  C   UNK d   1       0.937 -18.329 -39.029  0.00  0.00     0.161 A 
ATOM     11  O   UNK d   1       0.706 -18.433 -37.617  0.00  0.00    -0.291 OA
ATOM     12  C   UNK d   1       0.950 -17.252 -36.965  0.00  0.00     0.297 A 
ATOM     13  O   UNK d   1       0.853 -16.974 -35.735  0.00  0.00    -0.259 OA
ATOM     14  C   UNK d   1       1.366 -16.302 -37.987  0.00  0.00     0.074 A 
ATOM     15  C   UNK d   1       1.360 -16.929 -39.196  0.00  0.00     0.028 A 
ATOM     16  C   UNK d   1       1.722 -16.237 -40.351  0.00  0.00     0.068 A 
ATOM     17  C   UNK d   1       2.092 -14.910 -40.299  0.00  0.00     0.080 A 
ATOM     18  C   UNK d   1       2.097 -14.271 -39.062  0.00  0.00     0.080 A 
ATOM     19  C   UNK d   1       1.742 -14.949 -37.923  0.00  0.00     0.074 A 
ATOM     20 Cl   UNK d   1       1.754 -14.144 -36.400  0.00  0.00    -0.081 Cl
ATOM     21 Cl   UNK d   1       2.556 -12.596 -38.927  0.00  0.00    -0.081 Cl
ATOM     22 Cl   UNK d   1       2.541 -14.073 -41.767  0.00  0.00    -0.081 Cl
ATOM     23 Cl   UNK d   1       1.692 -17.096 -41.855  0.00  0.00    -0.082 Cl
ATOM     24  C   UNK d   1       2.081 -19.221 -39.363  0.00  0.00     0.023 A 
ATOM     25  C   UNK d   1       2.005 -20.224 -40.267  0.00  0.00     0.105 A 
ATOM     26  C   UNK d   1       3.152 -20.984 -40.484  0.00  0.00     0.078 A 
ATOM     27  C   UNK d   1       4.338 -20.754 -39.823  0.00  0.00     0.143 A 
ATOM     28  C   UNK d   1       4.379 -19.721 -38.907  0.00  0.00     0.045 A 
ATOM     29  C   UNK d   1       3.268 -18.954 -38.668  0.00  0.00     0.035 A 
ATOM     30  I   UNK d   1       6.178 -19.344 -37.879  0.00  0.00    -0.042 I 
ATOM     31  O   UNK d   1       5.467 -21.501 -40.036  0.00  0.00    -0.189 OA
ATOM     32  I   UNK d   1       3.046 -22.544 -41.885  0.00  0.00    -0.038 I 
ATOM     33  O   UNK d   1       0.830 -20.485 -40.950  0.00  0.00    -0.307 OA
ENDROOT
TORSDOF 0
ENDMDL
