MODEL 1
REMARK VINA RESULT:    -6.139      0.000      0.000
REMARK INTER + INTRA:          -6.139
REMARK INTER:                  -6.139
REMARK INTRA:                   0.000
REMARK UNBOUND:                 0.000
REMARK  0 active torsions:
REMARK  status: ('A' for Active; 'I' for Inactive)
ROOT
ATOM      1  I   UNK d   1      -1.590 -21.520 -42.697  0.00  0.00    -0.038 I 
ATOM      2  C   UNK d   1      -1.572 -19.961 -41.261  0.00  0.00     0.078 A 
ATOM      3  C   UNK d   1      -0.349 -19.735 -40.607  0.00  0.00     0.105 A 
ATOM      4  C   UNK d   1      -0.311 -18.740 -39.682  0.00  0.00     0.023 A 
ATOM      5  C   UNK d   1      -1.476 -17.996 -39.424  0.00  0.00     0.035 A 
ATOM      6  C   UNK d   1      -2.667 -18.218 -40.063  0.00  0.00     0.045 A 
ATOM      7  C   UNK d   1      -2.705 -19.226 -41.002  0.00  0.00     0.143 A 
ATOM      8  O   UNK d   1      -3.896 -19.479 -41.668  0.00  0.00    -0.189 OA
ATOM      9  I   UNK d   1      -4.386 -17.057 -39.626  0.00  0.00    -0.042 I 
ATOM     10  C   UNK d   1       0.919 -18.426 -38.945  0.00  0.00     0.159 A 
ATOM     11  O   UNK d   1       0.708 -18.424 -37.546  0.00  0.00    -0.291 OA
ATOM     12  C   UNK d   1       0.971 -17.205 -36.979  0.00  0.00     0.295 A 
ATOM     13  O   UNK d   1       0.887 -16.861 -35.770  0.00  0.00    -0.259 OA
ATOM     14  C   UNK d   1       1.390 -16.315 -38.052  0.00  0.00     0.049 A 
ATOM     15  C   UNK d   1       1.361 -17.022 -39.211  0.00  0.00     0.003 A 
ATOM     16  C   UNK d   1       1.728 -16.371 -40.395  0.00  0.00     0.012 A 
ATOM     17  C   UNK d   1       2.104 -15.048 -40.370  0.00  0.00     0.001 A 
ATOM     18  C   UNK d   1       2.132 -14.328 -39.195  0.00  0.00     0.001 A 
ATOM     19  C   UNK d   1       1.776 -14.956 -38.026  0.00  0.00     0.018 A 
ATOM     20  C   UNK d   1       2.056 -19.285 -39.317  0.00  0.00     0.023 A 
ATOM     21  C   UNK d   1       1.955 -20.260 -40.249  0.00  0.00     0.105 A 
ATOM     22  C   UNK d   1       3.071 -21.034 -40.549  0.00  0.00     0.078 A 
ATOM     23  C   UNK d   1       4.262 -20.817 -39.915  0.00  0.00     0.143 A 
ATOM     24  C   UNK d   1       4.402 -19.834 -38.964  0.00  0.00     0.045 A 
ATOM     25  C   UNK d   1       3.290 -19.087 -38.685  0.00  0.00     0.035 A 
ATOM     26  I   UNK d   1       6.247 -19.502 -37.986  0.00  0.00    -0.042 I 
ATOM     27  O   UNK d   1       5.361 -21.604 -40.236  0.00  0.00    -0.189 OA
ATOM     28  I   UNK d   1       2.902 -22.565 -42.015  0.00  0.00    -0.038 I 
ATOM     29  O   UNK d   1       0.756 -20.527 -40.929  0.00  0.00    -0.307 OA
ENDROOT
TORSDOF 0
ENDMDL
