/Users/jonathanwahrer/Desktop/Msc/3_Semester/Drug_Design_Praktikum/waehrer_HTS_screening/HTS_experiment/out/docking_results/vina_output/6y4q/0979_docked.pdbqt
 OpenBabel03232218013D

 29 33  0  0  1  0  0  0  0  0999 V2000
   -1.5900  -21.5200  -42.6970 I   0  0  0  0  0  0  0  0  0  0  0  0
   -1.5720  -19.9610  -41.2610 C   0  0  0  0  0  0  0  0  0  0  0  0
   -0.3490  -19.7350  -40.6070 C   0  0  0  0  0  0  0  0  0  0  0  0
   -0.3110  -18.7400  -39.6820 C   0  0  0  0  0  0  0  0  0  0  0  0
   -1.4760  -17.9960  -39.4240 C   0  0  0  0  0  3  0  0  0  0  0  0
   -2.6670  -18.2180  -40.0630 C   0  0  0  0  0  0  0  0  0  0  0  0
   -2.7050  -19.2260  -41.0020 C   0  0  0  0  0  0  0  0  0  0  0  0
   -3.8960  -19.4790  -41.6680 O   0  0  0  0  0  1  0  0  0  0  0  0
   -4.3860  -17.0570  -39.6260 I   0  0  0  0  0  0  0  0  0  0  0  0
    0.9190  -18.4260  -38.9450 C   0  0  2  0  0  0  0  0  0  0  0  0
    0.7080  -18.4240  -37.5460 O   0  0  0  0  0  0  0  0  0  0  0  0
    0.9710  -17.2050  -36.9790 C   0  0  0  0  0  0  0  0  0  0  0  0
    0.8870  -16.8610  -35.7700 O   0  0  0  0  0  0  0  0  0  0  0  0
    1.3900  -16.3150  -38.0520 C   0  0  0  0  0  0  0  0  0  0  0  0
    1.3610  -17.0220  -39.2110 C   0  0  0  0  0  0  0  0  0  0  0  0
    1.7280  -16.3710  -40.3950 C   0  0  0  0  0  3  0  0  0  0  0  0
    2.1040  -15.0480  -40.3700 C   0  0  0  0  0  3  0  0  0  0  0  0
    2.1320  -14.3280  -39.1950 C   0  0  0  0  0  3  0  0  0  0  0  0
    1.7760  -14.9560  -38.0260 C   0  0  0  0  0  3  0  0  0  0  0  0
    2.0560  -19.2850  -39.3170 C   0  0  0  0  0  0  0  0  0  0  0  0
    1.9550  -20.2600  -40.2490 C   0  0  0  0  0  0  0  0  0  0  0  0
    3.0710  -21.0340  -40.5490 C   0  0  0  0  0  0  0  0  0  0  0  0
    4.2620  -20.8170  -39.9150 C   0  0  0  0  0  0  0  0  0  0  0  0
    4.4020  -19.8340  -38.9640 C   0  0  0  0  0  0  0  0  0  0  0  0
    3.2900  -19.0870  -38.6850 C   0  0  0  0  0  3  0  0  0  0  0  0
    6.2470  -19.5020  -37.9860 I   0  0  0  0  0  0  0  0  0  0  0  0
    5.3610  -21.6040  -40.2360 O   0  0  0  0  0  1  0  0  0  0  0  0
    2.9020  -22.5650  -42.0150 I   0  0  0  0  0  0  0  0  0  0  0  0
    0.7560  -20.5270  -40.9290 O   0  0  0  0  0  0  0  0  0  0  0  0
  1  2  1  0  0  0  0
  2  7  2  0  0  0  0
  2  3  1  0  0  0  0
  3  4  2  0  0  0  0
  4  5  1  0  0  0  0
  6  9  1  0  0  0  0
  6  5  2  0  0  0  0
  7  6  1  0  0  0  0
  8  7  1  0  0  0  0
 10  4  1  6  0  0  0
 10 11  1  0  0  0  0
 11 12  1  0  0  0  0
 12 13  2  0  0  0  0
 14 19  1  0  0  0  0
 14 12  1  0  0  0  0
 15 10  1  0  0  0  0
 15 14  2  0  0  0  0
 16 17  2  0  0  0  0
 16 15  1  0  0  0  0
 17 18  1  0  0  0  0
 18 19  2  0  0  0  0
 20 10  1  0  0  0  0
 20 25  1  0  0  0  0
 21 20  2  0  0  0  0
 22 21  1  0  0  0  0
 22 23  2  0  0  0  0
 23 24  1  0  0  0  0
 24 25  2  0  0  0  0
 24 26  1  0  0  0  0
 27 23  1  0  0  0  0
 28 22  1  0  0  0  0
 29  3  1  0  0  0  0
 29 21  1  0  0  0  0
M  END
>  <Pose>
1

>  <Score>
-6.139

$$$$
