MODEL 1
REMARK VINA RESULT:    -6.414      0.000      0.000
REMARK INTER + INTRA:          -7.937
REMARK INTER:                  -7.164
REMARK INTRA:                  -0.773
REMARK UNBOUND:                -0.773
REMARK  2 active torsions:
REMARK  status: ('A' for Active; 'I' for Inactive)
REMARK    1  A    between atoms: C_9  and  C_19 
REMARK    2  A    between atoms: C_20  and  C_25 
ROOT
ATOM      1  I   UNK d   1       4.028 -17.021 -43.888  0.00  0.00    -0.038 I 
ATOM      2  C   UNK d   1       2.786 -16.583 -42.243  0.00  0.00     0.077 A 
ATOM      3  C   UNK d   1       2.814 -17.318 -41.075  0.00  0.00     0.106 A 
ATOM      4  C   UNK d   1       2.003 -17.035 -39.996  0.00  0.00     0.011 A 
ATOM      5  C   UNK d   1       1.133 -15.967 -40.115  0.00  0.00     0.018 A 
ATOM      6  C   UNK d   1       1.098 -15.224 -41.285  0.00  0.00     0.042 A 
ATOM      7  C   UNK d   1       1.918 -15.516 -42.367  0.00  0.00     0.126 A 
ATOM      8  O   UNK d   1       1.842 -14.737 -43.518  0.00  0.00    -0.191 OA
ATOM      9  C   UNK d   1       2.018 -17.757 -38.820  0.00  0.00     0.001 A 
ATOM     10  C   UNK d   1       2.918 -18.818 -38.773  0.00  0.00     0.011 A 
ATOM     11  C   UNK d   1       3.760 -19.085 -39.936  0.00  0.00     0.107 A 
ATOM     12  C   UNK d   1       4.631 -20.148 -39.828  0.00  0.00     0.091 A 
ATOM     13  C   UNK d   1       4.723 -20.932 -38.697  0.00  0.00     0.191 A 
ATOM     14  O   UNK d   1       5.531 -21.904 -38.617  0.00  0.00    -0.287 OA
ATOM     15  C   UNK d   1       3.927 -20.680 -37.597  0.00  0.00     0.057 A 
ATOM     16  C   UNK d   1       3.044 -19.621 -37.673  0.00  0.00     0.019 A 
ATOM     17  I   UNK d   1       5.885 -20.611 -41.450  0.00  0.00    -0.037 I 
ATOM     18  O   UNK d   1       3.649 -18.323 -40.996  0.00  0.00    -0.306 OA
ENDROOT
BRANCH   9  19
ATOM     19  C   UNK d   1       1.161 -17.461 -37.677  0.00  0.00    -0.007 A 
ATOM     20  C   UNK d   1      -0.075 -18.096 -37.594  0.00  0.00     0.051 A 
ATOM     21  C   UNK d   1      -0.913 -17.850 -36.539  0.00  0.00     0.019 A 
ATOM     22  C   UNK d   1      -0.528 -16.967 -35.555  0.00  0.00     0.001 A 
ATOM     23  C   UNK d   1       0.689 -16.326 -35.614  0.00  0.00     0.001 A 
ATOM     24  C   UNK d   1       1.517 -16.588 -36.683  0.00  0.00     0.013 A 
BRANCH  20  25
ATOM     25  C   UNK d   1      -0.493 -19.034 -38.632  0.00  0.00     0.210 C 
ATOM     26  O   UNK d   1      -1.103 -18.678 -39.664  0.00  0.00    -0.644 OA
ATOM     27  O   UNK d   1      -0.224 -20.390 -38.506  0.00  0.00    -0.644 OA
ENDBRANCH  20  25
ENDBRANCH   9  19
TORSDOF 2
ENDMDL
