/Users/jonathanwahrer/Desktop/Msc/3_Semester/Drug_Design_Praktikum/waehrer_HTS_screening/HTS_experiment/out/docking_results/vina_output/6y4q/0980_docked.pdbqt
 OpenBabel03232218013D

 27 30  0  0  1  0  0  0  0  0999 V2000
    4.0280  -17.0210  -43.8880 I   0  0  0  0  0  0  0  0  0  0  0  0
    2.7860  -16.5830  -42.2430 C   0  0  0  0  0  0  0  0  0  0  0  0
    2.8140  -17.3180  -41.0750 C   0  0  2  0  0  3  0  0  0  0  0  0
    2.0030  -17.0350  -39.9960 C   0  0  0  0  0  0  0  0  0  0  0  0
    1.1330  -15.9670  -40.1150 C   0  0  0  0  0  3  0  0  0  0  0  0
    1.0980  -15.2240  -41.2850 C   0  0  0  0  0  3  0  0  0  0  0  0
    1.9180  -15.5160  -42.3670 C   0  0  0  0  0  0  0  0  0  0  0  0
    1.8420  -14.7370  -43.5180 O   0  0  0  0  0  1  0  0  0  0  0  0
    2.0180  -17.7570  -38.8200 C   0  0  0  0  0  0  0  0  0  0  0  0
    2.9180  -18.8180  -38.7730 C   0  0  0  0  0  0  0  0  0  0  0  0
    3.7600  -19.0850  -39.9360 C   0  0  0  0  0  0  0  0  0  0  0  0
    4.6310  -20.1480  -39.8280 C   0  0  2  0  0  3  0  0  0  0  0  0
    4.7230  -20.9320  -38.6970 C   0  0  0  0  0  0  0  0  0  0  0  0
    5.5310  -21.9040  -38.6170 O   0  0  0  0  0  0  0  0  0  0  0  0
    3.9270  -20.6800  -37.5970 C   0  0  0  0  0  3  0  0  0  0  0  0
    3.0440  -19.6210  -37.6730 C   0  0  0  0  0  3  0  0  0  0  0  0
    5.8850  -20.6110  -41.4500 I   0  0  0  0  0  0  0  0  0  0  0  0
    3.6490  -18.3230  -40.9960 O   0  0  0  0  0  0  0  0  0  0  0  0
    1.1610  -17.4610  -37.6770 C   0  0  0  0  0  0  0  0  0  0  0  0
   -0.0750  -18.0960  -37.5940 C   0  0  0  0  0  0  0  0  0  0  0  0
   -0.9130  -17.8500  -36.5390 C   0  0  0  0  0  3  0  0  0  0  0  0
   -0.5280  -16.9670  -35.5550 C   0  0  0  0  0  3  0  0  0  0  0  0
    0.6890  -16.3260  -35.6140 C   0  0  0  0  0  3  0  0  0  0  0  0
    1.5170  -16.5880  -36.6830 C   0  0  0  0  0  3  0  0  0  0  0  0
   -0.4930  -19.0340  -38.6320 C   0  0  0  0  0  0  0  0  0  0  0  0
   -1.1030  -18.6780  -39.6640 O   0  0  0  0  0  0  0  0  0  0  0  0
   -0.2240  -20.3900  -38.5060 O   0  0  0  0  0  1  0  0  0  0  0  0
  1  2  1  0  0  0  0
  3  2  1  1  0  0  0
  3 18  1  0  0  0  0
  3  4  1  0  0  0  0
  4  9  2  0  0  0  0
  5  4  1  0  0  0  0
  6  5  2  0  0  0  0
  7  2  2  0  0  0  0
  7  6  1  0  0  0  0
  8  7  1  0  0  0  0
  9 10  1  0  0  0  0
  9 19  1  0  0  0  0
 10 16  1  0  0  0  0
 11 12  1  0  0  0  0
 11 10  2  0  0  0  0
 12 17  1  1  0  0  0
 12 13  1  0  0  0  0
 13 14  2  0  0  0  0
 13 15  1  0  0  0  0
 16 15  2  0  0  0  0
 18 11  1  0  0  0  0
 19 20  2  0  0  0  0
 19 24  1  0  0  0  0
 20 21  1  0  0  0  0
 21 22  2  0  0  0  0
 23 22  1  0  0  0  0
 24 23  2  0  0  0  0
 25 27  1  0  0  0  0
 25 20  1  0  0  0  0
 26 25  2  0  0  0  0
M  END
>  <Pose>
1

>  <Score>
-6.414

$$$$
