/Users/jonathanwahrer/Desktop/Msc/3_Semester/Drug_Design_Praktikum/waehrer_HTS_screening/HTS_experiment/out/docking_results/vina_output/6y4q/0983_docked.pdbqt
 OpenBabel03232218013D

 34 37  0  0  0  0  0  0  0  0999 V2000
    1.2760  -17.5450  -38.4480 C   0  0  0  0  0  0  0  0  0  0  0  0
    1.3100  -16.1610  -38.2300 C   0  0  0  0  0  0  0  0  0  0  0  0
    1.9050  -15.6430  -39.3580 C   0  0  0  0  0  0  0  0  0  0  0  0
    2.2030  -16.6530  -40.1870 N   0  0  0  0  0  0  0  0  0  0  0  0
    1.8280  -17.8590  -39.6620 C   0  0  0  0  0  0  0  0  0  0  0  0
    2.0840  -14.2640  -39.4420 C   0  0  0  0  0  0  0  0  0  0  0  0
    1.6660  -13.4670  -38.4120 C   0  0  0  0  0  3  0  0  0  0  0  0
    1.0610  -13.9890  -37.2640 C   0  0  0  0  0  0  0  0  0  0  0  0
    0.8840  -15.3740  -37.1840 C   0  0  0  0  0  3  0  0  0  0  0  0
    0.5030  -12.8290  -35.8680 Br  0  0  0  0  0  0  0  0  0  0  0  0
    2.9000  -13.5220  -40.9810 Br  0  0  0  0  0  0  0  0  0  0  0  0
    2.6700  -16.5520  -41.1320 H   0  0  0  0  0  0  0  0  0  0  0  0
    1.9730  -19.1490  -40.3270 C   0  0  0  0  0  0  0  0  0  0  0  0
    0.9290  -19.7970  -40.9130 N   0  0  0  0  0  0  0  0  0  0  0  0
    1.3290  -20.9660  -41.4360 C   0  0  0  0  0  0  0  0  0  0  0  0
   -0.0570  -19.4600  -40.9670 H   0  0  0  0  0  0  0  0  0  0  0  0
    2.6780  -21.1220  -41.2020 C   0  0  0  0  0  0  0  0  0  0  0  0
    0.6900  -21.9870  -42.1260 C   0  0  0  0  0  0  0  0  0  0  0  0
    3.0450  -19.9660  -40.5040 C   0  0  0  0  0  0  0  0  0  0  0  0
    3.3750  -22.2350  -41.6270 C   0  0  0  0  0  3  0  0  0  0  0  0
    2.7270  -23.2490  -42.3140 C   0  0  0  0  0  0  0  0  0  0  0  0
    1.3700  -23.1070  -42.5580 C   0  0  0  0  0  3  0  0  0  0  0  0
    3.6750  -24.8040  -42.9130 Br  0  0  0  0  0  0  0  0  0  0  0  0
   -1.1760  -21.8560  -42.4940 Br  0  0  0  0  0  0  0  0  0  0  0  0
    4.3400  -19.7430  -40.0740 O   0  0  0  0  0  0  0  0  0  0  0  0
    4.8670  -20.1640  -38.5080 S   0  0  0  0  0  0  0  0  0  0  0  0
    4.1750  -19.3340  -37.4670 O   0  0  0  0  0  1  0  0  0  0  0  0
    6.3450  -19.9520  -38.3420 O   0  0  0  0  0  1  0  0  0  0  0  0
    4.5950  -21.8200  -38.2480 O   0  0  0  0  0  1  0  0  0  0  0  0
    0.7450  -18.4380  -37.5240 O   0  0  0  0  0  0  0  0  0  0  0  0
   -0.7160  -19.2750  -37.8370 S   0  0  0  0  0  0  0  0  0  0  0  0
   -0.3350  -20.6860  -38.1900 O   0  0  0  0  0  1  0  0  0  0  0  0
   -1.5980  -19.2950  -36.6130 O   0  0  0  0  0  1  0  0  0  0  0  0
   -1.5250  -18.6130  -39.1540 O   0  0  0  0  0  1  0  0  0  0  0  0
  1  2  1  0  0  0  0
  1 30  1  0  0  0  0
  2  9  1  0  0  0  0
  3  2  2  0  0  0  0
  4  5  1  0  0  0  0
  4  3  1  0  0  0  0
  5  1  2  0  0  0  0
  6  3  1  0  0  0  0
  6  7  2  0  0  0  0
  7  8  1  0  0  0  0
  8  9  2  0  0  0  0
  8 10  1  0  0  0  0
 11  6  1  0  0  0  0
 12  4  1  0  0  0  0
 13  5  1  0  0  0  0
 14 13  1  0  0  0  0
 15 17  1  0  0  0  0
 15 14  1  0  0  0  0
 16 14  1  0  0  0  0
 17 19  1  0  0  0  0
 18 15  2  0  0  0  0
 19 13  2  0  0  0  0
 19 25  1  0  0  0  0
 20 17  2  0  0  0  0
 21 20  1  0  0  0  0
 22 21  2  0  0  0  0
 22 18  1  0  0  0  0
 23 21  1  0  0  0  0
 24 18  1  0  0  0  0
 25 26  1  0  0  0  0
 26 28  1  0  0  0  0
 26 29  1  0  0  0  0
 26 27  1  0  0  0  0
 31 30  1  0  0  0  0
 31 33  1  0  0  0  0
 32 31  1  0  0  0  0
 34 31  1  0  0  0  0
M  END
>  <Pose>
1

>  <Score>
-6.211

$$$$
