MODEL 1
REMARK VINA RESULT:    -5.632      0.000      0.000
REMARK INTER + INTRA:          -6.629
REMARK INTER:                  -6.455
REMARK INTRA:                  -0.174
REMARK UNBOUND:                -0.174
REMARK  4 active torsions:
REMARK  status: ('A' for Active; 'I' for Inactive)
REMARK    1  A    between atoms: C_7  and  N_10 
REMARK    2  A    between atoms: C_8  and  O_9 
REMARK    3  A    between atoms: C_13  and  N_21 
REMARK    4  A    between atoms: C_15  and  O_20 
ROOT
ATOM      1  N   UNK d   1       2.203 -18.820 -39.099  0.00  0.00    -0.277 N 
ATOM      2  C   UNK d   1       3.433 -19.340 -39.024  0.00  0.00     0.186 A 
ATOM      3  N   UNK d   1       4.567 -18.905 -38.409  0.00  0.00    -0.042 NA
ATOM      4  C   UNK d   1       5.718 -19.570 -38.444  0.00  0.00     0.724 A 
ATOM      5  N   UNK d   1       5.766 -20.732 -39.122  0.00  0.00    -0.036 NA
ATOM      6  C   UNK d   1       4.680 -21.222 -39.753  0.00  0.00     0.214 A 
ATOM      7  C   UNK d   1       3.485 -20.533 -39.718  0.00  0.00     0.159 A 
ATOM      8  N   UNK d   1       2.255 -20.722 -40.217  0.00  0.00    -0.216 NA
ATOM      9  C   UNK d   1       1.479 -19.679 -39.839  0.00  0.00     0.182 A 
ATOM     10 Br   UNK d   1      -0.371 -19.435 -40.273  0.00  0.00    -0.008 Br
ENDROOT
BRANCH   1  11
ATOM     11  C   UNK d   1       1.828 -17.575 -38.476  0.00  0.00     0.263 C 
ATOM     12  O   UNK d   1       0.791 -17.738 -37.558  0.00  0.00    -0.353 OA
ATOM     13  C   UNK d   1       0.550 -16.438 -37.187  0.00  0.00     0.180 C 
ATOM     14  C   UNK d   1       0.335 -15.763 -38.547  0.00  0.00     0.198 C 
ATOM     15  C   UNK d   1      -0.666 -16.224 -36.367  0.00  0.00     0.216 C 
ATOM     16  O   UNK d   1       0.839 -14.471 -38.414  0.00  0.00    -0.279 OA
ATOM     17  C   UNK d   1       1.178 -16.615 -39.472  0.00  0.00     0.199 C 
ATOM     18  P   UNK d   1       0.381 -13.937 -36.859  0.00  0.00     0.408 P 
ATOM     19  O   UNK d   1       1.583 -13.834 -35.946  0.00  0.00    -0.624 OA
ATOM     20  O   UNK d   1      -0.859 -14.847 -36.217  0.00  0.00    -0.287 OA
ATOM     21  O   UNK d   1      -0.186 -12.336 -37.071  0.00  0.00    -0.624 OA
BRANCH  17  22
ATOM     22  O   UNK d   1       2.099 -15.894 -40.190  0.00  0.00    -0.388 OA
ATOM     23  H   UNK d   1       2.692 -16.521 -40.714  0.00  0.00     0.210 HD
ENDBRANCH  17  22
ENDBRANCH   1  11
BRANCH   4  24
ATOM     24  N   UNK d   1       6.878 -19.072 -37.784  0.00  0.00    -0.231 N 
ATOM     25  H   UNK d   1       6.853 -19.060 -36.742  0.00  0.00     0.174 HD
ATOM     26  H   UNK d   1       7.722 -18.731 -38.309  0.00  0.00     0.174 HD
ENDBRANCH   4  24
BRANCH   6  27
ATOM     27  O   UNK d   1       4.725 -22.423 -40.455  0.00  0.00    -0.343 OA
ATOM     28  H   UNK d   1       3.903 -23.037 -40.348  0.00  0.00     0.219 HD
ENDBRANCH   6  27
TORSDOF 4
ENDMDL
