/Users/jonathanwahrer/Desktop/Msc/3_Semester/Drug_Design_Praktikum/waehrer_HTS_screening/HTS_experiment/out/docking_results/vina_output/6y4q/0991_docked.pdbqt
 OpenBabel03232218023D

 34 39  0  0  1  0  0  0  0  0999 V2000
   -0.0400  -18.4260  -37.9770 N   0  0  0  0  0  0  0  0  0  0  0  0
    0.1450  -17.0850  -37.8890 C   0  0  0  0  0  0  0  0  0  0  0  0
   -1.0530  -16.4430  -37.6630 C   0  0  0  0  0  0  0  0  0  0  0  0
   -1.9770  -17.4260  -37.6150 N   0  0  0  0  0  0  0  0  0  0  0  0
   -1.3610  -18.6110  -37.8050 C   0  0  0  0  0  0  0  0  0  0  0  0
   -2.1730  -20.3420  -37.8380 Br  0  0  0  0  0  0  0  0  0  0  0  0
   -1.0760  -15.0680  -37.5420 C   0  0  0  0  0  0  0  0  0  0  0  0
   -2.1580  -14.4750  -37.3370 O   0  0  0  0  0  0  0  0  0  0  0  0
    0.0450  -14.3170  -37.6380 N   0  0  0  0  0  0  0  0  0  0  0  0
    1.2030  -14.9640  -37.8590 C   0  0  0  0  0  0  0  0  0  0  0  0
    2.1500  -14.0100  -37.9120 N   0  0  0  0  0  0  0  0  0  0  0  0
    1.6310  -12.7820  -37.7330 C   0  0  0  0  0  0  0  0  0  0  0  0
    0.2780  -12.9780  -37.5560 C   0  0  0  0  0  3  0  0  0  0  0  0
    1.2470  -16.3210  -37.9810 N   0  0  0  0  0  0  0  0  0  0  0  0
    2.1490  -16.8190  -38.1520 H   0  0  0  0  0  0  0  0  0  0  0  0
    0.9690  -19.4570  -38.2100 C   0  0  2  0  0  3  0  0  0  0  0  0
    2.1380  -19.1780  -37.5050 O   0  0  0  0  0  0  0  0  0  0  0  0
    3.1790  -19.7860  -38.1520 C   0  0  1  0  0  3  0  0  0  0  0  0
    2.8240  -19.6540  -39.6350 C   0  0  1  0  0  3  0  0  0  0  0  0
    4.5060  -19.0900  -37.9710 C   0  0  0  0  0  2  0  0  0  0  0  0
    3.3430  -20.7860  -40.2560 O   0  0  0  0  0  0  0  0  0  0  0  0
    1.3250  -19.6070  -39.6480 C   0  0  1  0  0  3  0  0  0  0  0  0
    4.8980  -21.0200  -39.6130 P   0  0  1  0  0  0  0  0  0  0  0  0
    5.9860  -21.3030  -40.9370 S   0  0  0  0  0  1  0  0  0  0  0  0
    5.4490  -19.6410  -38.8090 O   0  0  0  0  0  0  0  0  0  0  0  0
    4.9270  -22.3000  -38.5100 O   0  0  0  0  0  0  0  0  0  0  0  0
    0.8010  -20.7920  -40.1800 O   0  0  0  0  0  0  0  0  0  0  0  0
   -0.1660  -20.8590  -40.0480 H   0  0  0  0  0  0  0  0  0  0  0  0
    2.3480  -11.5000  -37.7260 C   0  0  0  0  0  0  0  0  0  0  0  0
    3.6530  -11.4370  -37.2900 C   0  0  0  0  0  3  0  0  0  0  0  0
    4.3570  -10.2390  -37.2720 C   0  0  0  0  0  3  0  0  0  0  0  0
    3.7270   -9.0940  -37.7030 C   0  0  0  0  0  3  0  0  0  0  0  0
    2.4140   -9.1150  -38.1480 C   0  0  0  0  0  3  0  0  0  0  0  0
    1.7650  -10.3300  -38.1440 C   0  0  0  0  0  3  0  0  0  0  0  0
  1  2  1  0  0  0  0
  1  5  1  0  0  0  0
  2  3  2  0  0  0  0
  3  4  1  0  0  0  0
  3  7  1  0  0  0  0
  5  4  2  0  0  0  0
  6  5  1  0  0  0  0
  7  8  2  0  0  0  0
  9 13  1  0  0  0  0
  9  7  1  0  0  0  0
 10  9  1  0  0  0  0
 11 10  2  0  0  0  0
 11 12  1  0  0  0  0
 12 29  1  0  0  0  0
 12 13  2  0  0  0  0
 14  2  1  0  0  0  0
 14 10  1  0  0  0  0
 15 14  1  0  0  0  0
 16  1  1  6  0  0  0
 16 17  1  0  0  0  0
 18 20  1  6  0  0  0
 18 17  1  0  0  0  0
 19 21  1  6  0  0  0
 19 18  1  0  0  0  0
 21 23  1  0  0  0  0
 22 27  1  1  0  0  0
 22 19  1  0  0  0  0
 22 16  1  0  0  0  0
 23 24  1  6  0  0  0
 23 25  1  0  0  0  0
 23 26  2  0  0  0  0
 25 20  1  0  0  0  0
 27 28  1  0  0  0  0
 29 30  1  0  0  0  0
 30 31  2  0  0  0  0
 32 31  1  0  0  0  0
 33 34  1  0  0  0  0
 33 32  2  0  0  0  0
 34 29  2  0  0  0  0
M  END
>  <Pose>
1

>  <Score>
-6.714

$$$$
