MODEL 1
REMARK VINA RESULT:    -6.714      0.000      0.000
REMARK INTER + INTRA:          -8.758
REMARK INTER:                  -7.696
REMARK INTRA:                  -1.063
REMARK UNBOUND:                -1.063
REMARK  3 active torsions:
REMARK  status: ('A' for Active; 'I' for Inactive)
REMARK    1  A    between atoms: C_7  and  N_10 
REMARK    2  A    between atoms: C_8  and  O_9 
REMARK    3  A    between atoms: C_21  and  C_23 
ROOT
ATOM      1  N   UNK d   1      -0.040 -18.426 -37.977  0.00  0.00    -0.279 N 
ATOM      2  C   UNK d   1       0.145 -17.085 -37.889  0.00  0.00     0.162 A 
ATOM      3  C   UNK d   1      -1.053 -16.443 -37.663  0.00  0.00     0.173 A 
ATOM      4  N   UNK d   1      -1.977 -17.426 -37.615  0.00  0.00    -0.214 NA
ATOM      5  C   UNK d   1      -1.361 -18.611 -37.805  0.00  0.00     0.182 A 
ATOM      6 Br   UNK d   1      -2.173 -20.342 -37.838  0.00  0.00    -0.008 Br
ATOM      7  C   UNK d   1      -1.076 -15.068 -37.542  0.00  0.00     0.298 A 
ATOM      8  O   UNK d   1      -2.158 -14.475 -37.337  0.00  0.00    -0.264 OA
ATOM      9  N   UNK d   1       0.045 -14.317 -37.638  0.00  0.00    -0.115 N 
ATOM     10  C   UNK d   1       1.203 -14.964 -37.859  0.00  0.00     0.716 A 
ATOM     11  N   UNK d   1       2.150 -14.010 -37.912  0.00  0.00    -0.062 NA
ATOM     12  C   UNK d   1       1.631 -12.782 -37.733  0.00  0.00     0.102 A 
ATOM     13  C   UNK d   1       0.278 -12.978 -37.556  0.00  0.00     0.152 A 
ATOM     14  N   UNK d   1       1.247 -16.321 -37.981  0.00  0.00    -0.171 N 
ATOM     15  H   UNK d   1       2.149 -16.819 -38.152  0.00  0.00     0.186 HD
ENDROOT
BRANCH   1  16
ATOM     16  C   UNK d   1       0.969 -19.457 -38.210  0.00  0.00     0.263 C 
ATOM     17  O   UNK d   1       2.138 -19.178 -37.505  0.00  0.00    -0.353 OA
ATOM     18  C   UNK d   1       3.179 -19.786 -38.152  0.00  0.00     0.180 C 
ATOM     19  C   UNK d   1       2.824 -19.654 -39.635  0.00  0.00     0.197 C 
ATOM     20  C   UNK d   1       4.506 -19.090 -37.971  0.00  0.00     0.214 C 
ATOM     21  O   UNK d   1       3.343 -20.786 -40.256  0.00  0.00    -0.292 OA
ATOM     22  C   UNK d   1       1.325 -19.607 -39.648  0.00  0.00     0.199 C 
ATOM     23  P   UNK d   1       4.898 -21.020 -39.613  0.00  0.00     0.422 P 
ATOM     24  S   UNK d   1       5.986 -21.303 -40.937  0.00  0.00     0.009 SA
ATOM     25  O   UNK d   1       5.449 -19.641 -38.809  0.00  0.00    -0.300 OA
ATOM     26  O   UNK d   1       4.927 -22.300 -38.510  0.00  0.00    -0.240 OA
BRANCH  22  27
ATOM     27  O   UNK d   1       0.801 -20.792 -40.180  0.00  0.00    -0.388 OA
ATOM     28  H   UNK d   1      -0.166 -20.859 -40.048  0.00  0.00     0.210 HD
ENDBRANCH  22  27
ENDBRANCH   1  16
BRANCH  12  29
ATOM     29  C   UNK d   1       2.348 -11.500 -37.726  0.00  0.00    -0.005 A 
ATOM     30  C   UNK d   1       3.653 -11.437 -37.290  0.00  0.00     0.014 A 
ATOM     31  C   UNK d   1       4.357 -10.239 -37.272  0.00  0.00     0.001 A 
ATOM     32  C   UNK d   1       3.727  -9.094 -37.703  0.00  0.00     0.000 A 
ATOM     33  C   UNK d   1       2.414  -9.115 -38.148  0.00  0.00     0.001 A 
ATOM     34  C   UNK d   1       1.765 -10.330 -38.144  0.00  0.00     0.014 A 
ENDBRANCH  12  29
TORSDOF 3
ENDMDL
