MODEL 1
REMARK VINA RESULT:    -5.560      0.000      0.000
REMARK INTER + INTRA:          -5.845
REMARK INTER:                  -6.210
REMARK INTRA:                   0.365
REMARK UNBOUND:                 0.365
REMARK  3 active torsions:
REMARK  status: ('A' for Active; 'I' for Inactive)
REMARK    1  A    between atoms: C_7  and  N_10 
REMARK    2  A    between atoms: C_8  and  O_9 
REMARK    3  A    between atoms: C_15  and  N_20 
ROOT
ATOM      1  P   UNK d   1       0.611 -14.831 -37.101  0.00  0.00     0.422 P 
ATOM      2  S   UNK d   1       0.605 -14.030 -38.651  0.00  0.00     0.009 SA
ATOM      3  O   UNK d   1       1.933 -15.908 -37.015  0.00  0.00    -0.292 OA
ATOM      4  C   UNK d   1       1.634 -16.969 -37.833  0.00  0.00     0.197 C 
ATOM      5  C   UNK d   1       0.383 -17.671 -37.287  0.00  0.00     0.180 C 
ATOM      6  O   UNK d   1       0.446 -18.869 -37.996  0.00  0.00    -0.353 OA
ATOM      7  C   UNK d   1       1.741 -19.312 -37.866  0.00  0.00     0.263 C 
ATOM      8  C   UNK d   1       2.633 -18.105 -37.723  0.00  0.00     0.199 C 
ATOM      9  C   UNK d   1      -0.855 -16.881 -37.580  0.00  0.00     0.214 C 
ATOM     10  O   UNK d   1      -0.797 -15.698 -36.865  0.00  0.00    -0.300 OA
ATOM     11  O   UNK d   1       0.810 -13.669 -35.918  0.00  0.00    -0.240 OA
ENDROOT
BRANCH   7  12
ATOM     12  N   UNK d   1       2.202 -20.059 -39.021  0.00  0.00    -0.278 N 
ATOM     13  C   UNK d   1       3.441 -20.601 -39.131  0.00  0.00     0.168 A 
ATOM     14  N   UNK d   1       4.507 -20.610 -38.292  0.00  0.00    -0.221 NA
ATOM     15  C   UNK d   1       3.535 -21.237 -40.353  0.00  0.00     0.151 A 
ATOM     16  C   UNK d   1       5.655 -21.229 -38.631  0.00  0.00     0.237 A 
ATOM     17  N   UNK d   1       5.754 -21.854 -39.830  0.00  0.00    -0.222 NA
ATOM     18  C   UNK d   1       4.719 -21.867 -40.689  0.00  0.00     0.155 A 
ATOM     19  N   UNK d   1       2.356 -21.079 -40.980  0.00  0.00    -0.216 NA
ATOM     20  C   UNK d   1       1.556 -20.362 -40.160  0.00  0.00     0.182 A 
ATOM     21 Br   UNK d   1      -0.253 -19.813 -40.495  0.00  0.00    -0.008 Br
BRANCH  18  22
ATOM     22  N   UNK d   1       4.839 -22.532 -41.951  0.00  0.00    -0.382 N 
ATOM     23  H   UNK d   1       5.458 -23.386 -42.011  0.00  0.00     0.157 HD
ATOM     24  H   UNK d   1       4.341 -22.208 -42.803  0.00  0.00     0.157 HD
ENDBRANCH  18  22
ENDBRANCH   7  12
BRANCH   8  25
ATOM     25  O   UNK d   1       3.102 -18.097 -36.402  0.00  0.00    -0.388 OA
ATOM     26  H   UNK d   1       2.894 -17.272 -35.926  0.00  0.00     0.210 HD
ENDBRANCH   8  25
TORSDOF 3
ENDMDL
