/Users/jonathanwahrer/Desktop/Msc/3_Semester/Drug_Design_Praktikum/waehrer_HTS_screening/HTS_experiment/out/docking_results/vina_output/6y4q/0993_docked.pdbqt
 OpenBabel03232218023D

 26 29  0  0  1  0  0  0  0  0999 V2000
    0.6110  -14.8310  -37.1010 P   0  0  2  0  0  0  0  0  0  0  0  0
    0.6050  -14.0300  -38.6510 S   0  0  0  0  0  1  0  0  0  0  0  0
    1.9330  -15.9080  -37.0150 O   0  0  0  0  0  0  0  0  0  0  0  0
    1.6340  -16.9690  -37.8330 C   0  0  2  0  0  3  0  0  0  0  0  0
    0.3830  -17.6710  -37.2870 C   0  0  2  0  0  3  0  0  0  0  0  0
    0.4460  -18.8690  -37.9960 O   0  0  0  0  0  0  0  0  0  0  0  0
    1.7410  -19.3120  -37.8660 C   0  0  2  0  0  3  0  0  0  0  0  0
    2.6330  -18.1050  -37.7230 C   0  0  2  0  0  3  0  0  0  0  0  0
   -0.8550  -16.8810  -37.5800 C   0  0  0  0  0  2  0  0  0  0  0  0
   -0.7970  -15.6980  -36.8650 O   0  0  0  0  0  0  0  0  0  0  0  0
    0.8100  -13.6690  -35.9180 O   0  0  0  0  0  0  0  0  0  0  0  0
    2.2020  -20.0590  -39.0210 N   0  0  0  0  0  0  0  0  0  0  0  0
    3.4410  -20.6010  -39.1310 C   0  0  0  0  0  0  0  0  0  0  0  0
    4.5070  -20.6100  -38.2920 N   0  0  0  0  0  0  0  0  0  0  0  0
    3.5350  -21.2370  -40.3530 C   0  0  0  0  0  0  0  0  0  0  0  0
    5.6550  -21.2290  -38.6310 C   0  0  0  0  0  3  0  0  0  0  0  0
    5.7540  -21.8540  -39.8300 N   0  0  0  0  0  0  0  0  0  0  0  0
    4.7190  -21.8670  -40.6890 C   0  0  0  0  0  0  0  0  0  0  0  0
    2.3560  -21.0790  -40.9800 N   0  0  0  0  0  0  0  0  0  0  0  0
    1.5560  -20.3620  -40.1600 C   0  0  0  0  0  0  0  0  0  0  0  0
   -0.2530  -19.8130  -40.4950 Br  0  0  0  0  0  0  0  0  0  0  0  0
    4.8390  -22.5320  -41.9510 N   0  0  0  0  0  0  0  0  0  0  0  0
    5.4580  -23.3860  -42.0110 H   0  0  0  0  0  0  0  0  0  0  0  0
    4.3410  -22.2080  -42.8030 H   0  0  0  0  0  0  0  0  0  0  0  0
    3.1020  -18.0970  -36.4020 O   0  0  0  0  0  0  0  0  0  0  0  0
    2.8940  -17.2720  -35.9260 H   0  0  0  0  0  0  0  0  0  0  0  0
  1  2  1  6  0  0  0
  1  3  1  0  0  0  0
  1 10  1  0  0  0  0
  1 11  2  0  0  0  0
  4  8  1  0  0  0  0
  4  5  1  0  0  0  0
  4  3  1  1  0  0  0
  5  9  1  6  0  0  0
  6  7  1  0  0  0  0
  6  5  1  0  0  0  0
  7 12  1  6  0  0  0
  7  8  1  0  0  0  0
  8 25  1  1  0  0  0
  9 10  1  0  0  0  0
 13 12  1  0  0  0  0
 13 14  1  0  0  0  0
 15 13  2  0  0  0  0
 16 14  2  0  0  0  0
 17 16  1  0  0  0  0
 18 15  1  0  0  0  0
 18 17  2  0  0  0  0
 19 15  1  0  0  0  0
 19 20  2  0  0  0  0
 20 12  1  0  0  0  0
 21 20  1  0  0  0  0
 22 18  1  0  0  0  0
 23 22  1  0  0  0  0
 24 22  1  0  0  0  0
 25 26  1  0  0  0  0
M  END
>  <Pose>
1

>  <Score>
-5.560

$$$$
