MODEL 1
REMARK VINA RESULT:    -6.420      0.000      0.000
REMARK INTER + INTRA:         -11.543
REMARK INTER:                  -9.797
REMARK INTRA:                  -1.746
REMARK UNBOUND:                -1.746
REMARK  9 active torsions:
REMARK  status: ('A' for Active; 'I' for Inactive)
REMARK    1  A    between atoms: C_4  and  C_12 
REMARK    2  A    between atoms: C_5  and  C_7 
REMARK    3  A    between atoms: C_7  and  O_8 
REMARK    4  A    between atoms: O_8  and  C_9 
REMARK    5  A    between atoms: C_17  and  N_18 
REMARK       I    between atoms: N_18  and  C_19 
REMARK    6  A    between atoms: C_19  and  C_21 
REMARK    7  A    between atoms: C_23  and  C_26 
REMARK    8  A    between atoms: C_26  and  O_27 
REMARK    9  A    between atoms: O_27  and  C_28 
ROOT
ATOM      1  N   UNK d   1      -0.404 -17.568 -38.818  0.00  0.00    -0.339 N 
ATOM      2  C   UNK d   1      -1.431 -16.915 -38.092  0.00  0.00     0.276 C 
ATOM      3  O   UNK d   1      -2.553 -17.482 -38.005  0.00  0.00    -0.265 OA
ATOM      4  H   UNK d   1       0.523 -17.075 -38.877  0.00  0.00     0.163 HD
ENDROOT
BRANCH   1   5
ATOM      5  C   UNK d   1      -0.670 -18.834 -39.421  0.00  0.00     0.211 C 
ATOM      6  C   UNK d   1       0.347 -19.420 -40.306  0.00  0.00     0.187 C 
ATOM      7  S   UNK d   1       1.262 -18.417 -41.474  0.00  0.00    -0.136 SA
ATOM      8  N   UNK d   1       1.142 -19.576 -39.129  0.00  0.00    -0.293 N 
ATOM      9  C   UNK d   1       2.823 -19.371 -41.438  0.00  0.00     0.115 C 
ATOM     10  C   UNK d   1       3.321 -19.293 -39.987  0.00  0.00    -0.013 C 
ATOM     11  C   UNK d   1       2.549 -19.387 -38.951  0.00  0.00     0.121 C 
ATOM     12  C   UNK d   1      -0.090 -19.904 -38.510  0.00  0.00     0.251 C 
ATOM     13  O   UNK d   1      -0.631 -20.629 -37.668  0.00  0.00    -0.271 OA
BRANCH  10  14
ATOM     14  C   UNK d   1       4.748 -19.096 -39.966  0.00  0.00     0.216 C 
BRANCH  14  15
ATOM     15  O   UNK d   1       5.638 -20.029 -40.381  0.00  0.00    -0.317 OA
BRANCH  15  16
ATOM     16  C   UNK d   1       5.562 -21.380 -40.023  0.00  0.00     0.255 C 
ATOM     17  O   UNK d   1       5.070 -22.161 -40.859  0.00  0.00    -0.266 OA
ATOM     18  C   UNK d   1       6.068 -21.773 -38.686  0.00  0.00     0.126 C 
ENDBRANCH  15  16
ENDBRANCH  14  15
ENDBRANCH  10  14
BRANCH  11  19
ATOM     19  C   UNK d   1       3.020 -19.319 -37.537  0.00  0.00     0.227 C 
ATOM     20  O   UNK d   1       3.505 -20.222 -36.891  0.00  0.00    -0.643 OA
ATOM     21  O   UNK d   1       2.907 -18.096 -36.850  0.00  0.00    -0.643 OA
ENDBRANCH  11  19
ENDBRANCH   1   5
BRANCH   2  22
ATOM     22  C   UNK d   1      -1.225 -15.614 -37.449  0.00  0.00     0.143 A 
ATOM     23  O   UNK d   1      -0.127 -15.067 -37.030  0.00  0.00    -0.307 OA
ATOM     24  C   UNK d   1      -0.324 -13.900 -36.508  0.00  0.00     0.078 A 
ATOM     25  C   UNK d   1      -1.697 -13.637 -36.583  0.00  0.00     0.038 A 
ATOM     26  C   UNK d   1      -2.251 -14.736 -37.182  0.00  0.00     0.045 A 
BRANCH  24  27
ATOM     27  C   UNK d   1       0.693 -12.956 -35.915  0.00  0.00     0.240 C 
BRANCH  27  28
ATOM     28  O   UNK d   1       1.992 -13.307 -36.315  0.00  0.00    -0.345 OA
BRANCH  28  29
ATOM     29  C   UNK d   1       2.705 -12.733 -37.329  0.00  0.00     0.069 A 
ATOM     30  C   UNK d   1       2.643 -13.131 -38.662  0.00  0.00     0.038 A 
ATOM     31  C   UNK d   1       3.406 -12.478 -39.604  0.00  0.00     0.022 A 
ATOM     32  C   UNK d   1       4.247 -11.432 -39.306  0.00  0.00     0.011 A 
ATOM     33  C   UNK d   1       4.314 -11.029 -37.983  0.00  0.00     0.022 A 
ATOM     34 Br   UNK d   1       5.279 -10.566 -40.656  0.00  0.00    -0.051 Br
ATOM     35  C   UNK d   1       3.547 -11.682 -37.027  0.00  0.00     0.038 A 
ENDBRANCH  28  29
ENDBRANCH  27  28
ENDBRANCH  24  27
ENDBRANCH   2  22
TORSDOF 9
ENDMDL
