MODEL 1
REMARK VINA RESULT:    -5.346      0.000      0.000
REMARK INTER + INTRA:          -5.886
REMARK INTER:                  -5.972
REMARK INTRA:                   0.086
REMARK UNBOUND:                 0.086
REMARK  3 active torsions:
REMARK  status: ('A' for Active; 'I' for Inactive)
REMARK    1  A    between atoms: C_7  and  N_10 
REMARK    2  A    between atoms: C_8  and  O_9 
REMARK    3  A    between atoms: C_15  and  N_20 
ROOT
ATOM      1  P   UNK d   1      -2.620 -18.214 -37.016  0.00  0.00     0.408 P 
ATOM      2  O   UNK d   1      -3.177 -18.092 -35.596  0.00  0.00    -0.624 OA
ATOM      3  O   UNK d   1      -1.828 -19.691 -37.123  0.00  0.00    -0.279 OA
ATOM      4  C   UNK d   1      -0.596 -19.569 -37.710  0.00  0.00     0.198 C 
ATOM      5  C   UNK d   1      -0.718 -18.456 -38.760  0.00  0.00     0.180 C 
ATOM      6  O   UNK d   1       0.202 -18.738 -39.725  0.00  0.00    -0.353 OA
ATOM      7  C   UNK d   1       0.472 -20.079 -39.737  0.00  0.00     0.263 C 
ATOM      8  C   UNK d   1      -0.212 -20.732 -38.586  0.00  0.00     0.199 C 
ATOM      9  C   UNK d   1      -0.506 -17.170 -38.028  0.00  0.00     0.216 C 
ATOM     10  O   UNK d   1      -1.625 -16.900 -37.278  0.00  0.00    -0.287 OA
ATOM     11  O   UNK d   1      -3.983 -18.202 -38.050  0.00  0.00    -0.624 OA
ENDROOT
BRANCH   7  12
ATOM     12  N   UNK d   1       1.919 -20.241 -39.699  0.00  0.00    -0.278 N 
ATOM     13  C   UNK d   1       2.748 -19.743 -38.751  0.00  0.00     0.168 A 
ATOM     14  N   UNK d   1       2.492 -19.010 -37.654  0.00  0.00    -0.221 NA
ATOM     15  C   UNK d   1       4.039 -20.111 -39.066  0.00  0.00     0.151 A 
ATOM     16  C   UNK d   1       3.508 -18.634 -36.861  0.00  0.00     0.237 A 
ATOM     17  N   UNK d   1       4.767 -18.994 -37.171  0.00  0.00    -0.222 NA
ATOM     18  C   UNK d   1       5.097 -19.724 -38.247  0.00  0.00     0.155 A 
ATOM     19  N   UNK d   1       3.999 -20.822 -40.189  0.00  0.00    -0.216 NA
ATOM     20  C   UNK d   1       2.710 -20.896 -40.565  0.00  0.00     0.182 A 
ATOM     21 Br   UNK d   1       2.010 -21.798 -42.119  0.00  0.00    -0.008 Br
BRANCH  18  22
ATOM     22  N   UNK d   1       6.422 -20.110 -38.584  0.00  0.00    -0.382 N 
ATOM     23  H   UNK d   1       7.198 -19.398 -38.435  0.00  0.00     0.157 HD
ATOM     24  H   UNK d   1       6.683 -21.027 -38.958  0.00  0.00     0.157 HD
ENDBRANCH  18  22
ENDBRANCH   7  12
BRANCH   8  25
ATOM     25  O   UNK d   1      -1.332 -21.457 -38.941  0.00  0.00    -0.388 OA
ATOM     26  H   UNK d   1      -2.169 -21.049 -38.668  0.00  0.00     0.210 HD
ENDBRANCH   8  25
TORSDOF 3
ENDMDL
