/Users/jonathanwahrer/Desktop/Msc/3_Semester/Drug_Design_Praktikum/waehrer_HTS_screening/HTS_experiment/out/docking_results/vina_output/6y4q/1001_docked.pdbqt
 OpenBabel03232218033D

 26 29  0  0  1  0  0  0  0  0999 V2000
   -2.6200  -18.2140  -37.0160 P   0  0  2  0  0  0  0  0  0  0  0  0
   -3.1770  -18.0920  -35.5960 O   0  0  0  0  0  1  0  0  0  0  0  0
   -1.8280  -19.6910  -37.1230 O   0  0  0  0  0  0  0  0  0  0  0  0
   -0.5960  -19.5690  -37.7100 C   0  0  2  0  0  3  0  0  0  0  0  0
   -0.7180  -18.4560  -38.7600 C   0  0  2  0  0  3  0  0  0  0  0  0
    0.2020  -18.7380  -39.7250 O   0  0  0  0  0  0  0  0  0  0  0  0
    0.4720  -20.0790  -39.7370 C   0  0  2  0  0  3  0  0  0  0  0  0
   -0.2120  -20.7320  -38.5860 C   0  0  2  0  0  3  0  0  0  0  0  0
   -0.5060  -17.1700  -38.0280 C   0  0  0  0  0  2  0  0  0  0  0  0
   -1.6250  -16.9000  -37.2780 O   0  0  0  0  0  0  0  0  0  0  0  0
   -3.9830  -18.2020  -38.0500 O   0  0  0  0  0  0  0  0  0  0  0  0
    1.9190  -20.2410  -39.6990 N   0  0  0  0  0  0  0  0  0  0  0  0
    2.7480  -19.7430  -38.7510 C   0  0  0  0  0  0  0  0  0  0  0  0
    2.4920  -19.0100  -37.6540 N   0  0  0  0  0  0  0  0  0  0  0  0
    4.0390  -20.1110  -39.0660 C   0  0  0  0  0  0  0  0  0  0  0  0
    3.5080  -18.6340  -36.8610 C   0  0  0  0  0  3  0  0  0  0  0  0
    4.7670  -18.9940  -37.1710 N   0  0  0  0  0  0  0  0  0  0  0  0
    5.0970  -19.7240  -38.2470 C   0  0  0  0  0  0  0  0  0  0  0  0
    3.9990  -20.8220  -40.1890 N   0  0  0  0  0  0  0  0  0  0  0  0
    2.7100  -20.8960  -40.5650 C   0  0  0  0  0  0  0  0  0  0  0  0
    2.0100  -21.7980  -42.1190 Br  0  0  0  0  0  0  0  0  0  0  0  0
    6.4220  -20.1100  -38.5840 N   0  0  0  0  0  0  0  0  0  0  0  0
    7.1980  -19.3980  -38.4350 H   0  0  0  0  0  0  0  0  0  0  0  0
    6.6830  -21.0270  -38.9580 H   0  0  0  0  0  0  0  0  0  0  0  0
   -1.3320  -21.4570  -38.9410 O   0  0  0  0  0  0  0  0  0  0  0  0
   -2.1690  -21.0490  -38.6680 H   0  0  0  0  0  0  0  0  0  0  0  0
  1 11  2  6  0  0  0
  1  2  1  0  0  0  0
  3  1  1  0  0  0  0
  4  3  1  6  0  0  0
  5  9  1  1  0  0  0
  5  4  1  0  0  0  0
  6  5  1  0  0  0  0
  7  6  1  0  0  0  0
  7 12  1  1  0  0  0
  7  8  1  0  0  0  0
  8 25  1  6  0  0  0
  8  4  1  0  0  0  0
  9 10  1  0  0  0  0
 10  1  1  0  0  0  0
 12 13  1  0  0  0  0
 13 14  1  0  0  0  0
 14 16  2  0  0  0  0
 15 13  2  0  0  0  0
 15 18  1  0  0  0  0
 17 16  1  0  0  0  0
 18 17  2  0  0  0  0
 19 15  1  0  0  0  0
 20 19  2  0  0  0  0
 20 12  1  0  0  0  0
 21 20  1  0  0  0  0
 22 23  1  0  0  0  0
 22 18  1  0  0  0  0
 24 22  1  0  0  0  0
 25 26  1  0  0  0  0
M  END
>  <Pose>
1

>  <Score>
-5.346

$$$$
