MODEL 1
REMARK VINA RESULT:    -6.454      0.000      0.000
REMARK INTER + INTRA:          -8.217
REMARK INTER:                  -7.775
REMARK INTRA:                  -0.442
REMARK UNBOUND:                -0.442
REMARK  4 active torsions:
REMARK  status: ('A' for Active; 'I' for Inactive)
REMARK    1  A    between atoms: S_1  and  N_4 
REMARK    2  A    between atoms: S_1  and  C_5 
REMARK    3  A    between atoms: C_7  and  C_12 
REMARK       I    between atoms: C_12  and  N_14 
REMARK    4  A    between atoms: C_16  and  C_20 
ROOT
ATOM      1  C   UNK d   1       1.800 -14.978 -39.434  0.00  0.00     0.255 C 
ATOM      2  O   UNK d   1       2.296 -15.300 -40.542  0.00  0.00    -0.267 OA
ATOM      3  N   UNK d   1       1.336 -15.988 -38.541  0.00  0.00    -0.347 N 
ATOM      4  C   UNK d   1       1.427 -17.387 -38.900  0.00  0.00     0.138 C 
ATOM      5  C   UNK d   1       1.831 -18.264 -37.755  0.00  0.00     0.075 C 
ATOM      6  C   UNK d   1       2.402 -17.344 -36.672  0.00  0.00     0.015 C 
ATOM      7  C   UNK d   1       1.224 -16.545 -36.157  0.00  0.00     0.021 C 
ATOM      8  C   UNK d   1       0.764 -15.637 -37.267  0.00  0.00     0.126 C 
ENDROOT
BRANCH   1   9
ATOM      9  C   UNK d   1       1.711 -13.575 -39.081  0.00  0.00     0.051 A 
ATOM     10  C   UNK d   1       2.797 -12.897 -38.536  0.00  0.00     0.043 A 
ATOM     11  C   UNK d   1       2.727 -11.566 -38.197  0.00  0.00     0.075 A 
ATOM     12  C   UNK d   1       1.552 -10.862 -38.394  0.00  0.00     0.026 A 
ATOM     13  C   UNK d   1       0.467 -11.517 -38.932  0.00  0.00     0.021 A 
ATOM     14  C   UNK d   1       0.546 -12.867 -39.274  0.00  0.00     0.026 A 
ATOM     15 Br   UNK d   1      -0.977 -13.720 -40.010  0.00  0.00    -0.050 Br
BRANCH  11  16
ATOM     16  S   UNK d   1       4.120 -10.776 -37.519  0.00  0.00     0.239 S 
ATOM     17  O   UNK d   1       5.217 -10.741 -38.564  0.00  0.00    -0.206 OA
ATOM     18  O   UNK d   1       4.632 -11.533 -36.318  0.00  0.00    -0.206 OA
BRANCH  16  19
ATOM     19  N   UNK d   1       3.749  -9.150 -37.121  0.00  0.00    -0.225 NA
ATOM     20  H   UNK d   1       2.926  -8.794 -37.664  0.00  0.00     0.136 HD
ATOM     21  H   UNK d   1       4.584  -8.535 -37.290  0.00  0.00     0.136 HD
ENDBRANCH  16  19
ENDBRANCH  11  16
ENDBRANCH   1   9
BRANCH   5  22
ATOM     22  C   UNK d   1       2.826 -19.315 -38.140  0.00  0.00     0.136 A 
ATOM     23  N   UNK d   1       2.757 -20.137 -39.219  0.00  0.00    -0.320 N 
ATOM     24  C   UNK d   1       3.818 -20.949 -39.251  0.00  0.00     0.130 A 
ATOM     25  C   UNK d   1       1.882 -20.404 -40.347  0.00  0.00     0.132 C 
ATOM     26  N   UNK d   1       4.556 -20.607 -38.153  0.00  0.00    -0.135 NA
ATOM     27  C   UNK d   1       3.787 -21.875 -40.421  0.00  0.00     0.082 C 
ATOM     28  N   UNK d   1       3.960 -19.632 -37.495  0.00  0.00    -0.134 NA
ATOM     29  C   UNK d   1       2.719 -21.262 -41.272  0.00  0.00     0.028 C 
ENDBRANCH   5  22
TORSDOF 4
ENDMDL
