MODEL 1
REMARK VINA RESULT:    -6.051      0.000      0.000
REMARK INTER + INTRA:          -8.894
REMARK INTER:                  -8.527
REMARK INTRA:                  -0.367
REMARK UNBOUND:                -0.367
REMARK  7 active torsions:
REMARK  status: ('A' for Active; 'I' for Inactive)
REMARK    1  A    between atoms: S_1  and  N_4 
REMARK    2  A    between atoms: S_1  and  C_14 
REMARK    3  A    between atoms: N_4  and  C_5 
REMARK    4  A    between atoms: C_5  and  C_6 
REMARK    5  A    between atoms: C_6  and  C_7 
REMARK    6  A    between atoms: C_7  and  N_8 
REMARK       I    between atoms: N_23  and  C_24 
REMARK    7  A    between atoms: C_24  and  C_26 
ROOT
ATOM      1  C   UNK d   1       1.485 -13.991 -38.719  0.00  0.00     0.094 A 
ATOM      2  C   UNK d   1       2.374 -13.190 -39.443  0.00  0.00     0.056 A 
ATOM      3  C   UNK d   1       3.198 -12.297 -38.795  0.00  0.00     0.045 A 
ATOM      4  C   UNK d   1       3.192 -12.146 -37.420  0.00  0.00    -0.028 A 
ATOM      5  C   UNK d   1       2.327 -12.924 -36.703  0.00  0.00     0.030 A 
ATOM      6  C   UNK d   1       1.487 -13.833 -37.354  0.00  0.00     0.034 A 
ATOM      7 Br   UNK d   1       0.269 -14.913 -36.341  0.00  0.00    -0.049 Br
ATOM      8  C   UNK d   1       4.182 -11.101 -37.036  0.00  0.00     0.061 C 
ATOM      9  C   UNK d   1       4.365 -10.340 -38.367  0.00  0.00     0.137 C 
ATOM     10  N   UNK d   1       4.178 -11.398 -39.347  0.00  0.00    -0.317 N 
ATOM     11  C   UNK d   1       4.797 -11.585 -40.604  0.00  0.00     0.228 C 
ATOM     12  O   UNK d   1       4.552 -12.566 -41.344  0.00  0.00    -0.273 OA
ENDROOT
BRANCH   1  13
ATOM     13  S   UNK d   1       0.456 -15.116 -39.564  0.00  0.00     0.242 S 
ATOM     14  O   UNK d   1      -1.005 -14.732 -39.365  0.00  0.00    -0.206 OA
ATOM     15  O   UNK d   1       0.691 -15.091 -41.037  0.00  0.00    -0.206 OA
BRANCH  13  16
ATOM     16  N   UNK d   1       0.617 -16.699 -38.905  0.00  0.00    -0.215 NA
ATOM     17  H   UNK d   1       0.346 -16.658 -37.903  0.00  0.00     0.139 HD
BRANCH  16  18
ATOM     18  C   UNK d   1       1.953 -17.237 -39.060  0.00  0.00     0.106 C 
BRANCH  18  19
ATOM     19  C   UNK d   1       2.288 -17.930 -37.747  0.00  0.00     0.035 C 
BRANCH  19  20
ATOM     20  C   UNK d   1       2.178 -19.425 -37.884  0.00  0.00     0.118 C 
BRANCH  20  21
ATOM     21  N   UNK d   1       3.471 -19.966 -38.075  0.00  0.00    -0.408 N 
ATOM     22  C   UNK d   1       3.706 -20.633 -39.305  0.00  0.00     0.143 C 
ATOM     23  C   UNK d   1       4.901 -21.555 -39.130  0.00  0.00     0.187 C 
ATOM     24  O   UNK d   1       5.911 -20.944 -38.414  0.00  0.00    -0.388 OA
ATOM     25  C   UNK d   1       5.803 -19.560 -38.370  0.00  0.00     0.187 C 
ATOM     26  C   UNK d   1       4.560 -19.237 -37.536  0.00  0.00     0.143 C 
ENDBRANCH  20  21
ENDBRANCH  19  20
ENDBRANCH  18  19
ENDBRANCH  16  18
ENDBRANCH  13  16
ENDBRANCH   1  13
BRANCH  11  27
ATOM     27  C   UNK d   1       5.781 -10.579 -41.069  0.00  0.00     0.078 A 
ATOM     28  C   UNK d   1       6.831 -11.102 -41.961  0.00  0.00     0.015 A 
ATOM     29  C   UNK d   1       7.181 -10.616 -40.576  0.00  0.00     0.015 A 
ENDBRANCH  11  27
TORSDOF 7
ENDMDL
