MODEL 1
REMARK VINA RESULT:    -7.126      0.000      0.000
REMARK INTER + INTRA:         -10.093
REMARK INTER:                  -9.208
REMARK INTRA:                  -0.885
REMARK UNBOUND:                -0.885
REMARK  5 active torsions:
REMARK  status: ('A' for Active; 'I' for Inactive)
REMARK    1  A    between atoms: S_1  and  N_4 
REMARK    2  A    between atoms: S_1  and  C_20 
REMARK    3  A    between atoms: N_8  and  C_12 
REMARK    4  A    between atoms: C_12  and  C_13 
REMARK    5  A    between atoms: C_13  and  C_14 
REMARK       I    between atoms: N_29  and  C_30 
ROOT
ATOM      1  N   UNK d   1      -1.020 -16.186 -36.629  0.00  0.00    -0.289 N 
ATOM      2  C   UNK d   1       0.141 -16.343 -35.876  0.00  0.00     0.239 C 
ATOM      3  C   UNK d   1       1.213 -17.139 -36.514  0.00  0.00     0.245 C 
ATOM      4  O   UNK d   1       2.418 -16.955 -36.218  0.00  0.00    -0.271 OA
ATOM      5  N   UNK d   1       0.795 -18.111 -37.466  0.00  0.00    -0.285 N 
ATOM      6  C   UNK d   1      -0.590 -18.413 -37.500  0.00  0.00     0.245 C 
ATOM      7  O   UNK d   1      -0.941 -19.553 -37.913  0.00  0.00    -0.271 OA
ATOM      8  C   UNK d   1      -1.615 -17.440 -37.069  0.00  0.00     0.239 C 
ENDROOT
BRANCH   1   9
ATOM      9  S   UNK d   1      -1.177 -14.950 -37.751  0.00  0.00     0.263 S 
ATOM     10  O   UNK d   1      -2.237 -13.982 -37.224  0.00  0.00    -0.200 OA
ATOM     11  O   UNK d   1      -1.764 -15.475 -39.040  0.00  0.00    -0.200 OA
BRANCH   9  12
ATOM     12  C   UNK d   1       0.241 -13.990 -38.075  0.00  0.00     0.099 A 
ATOM     13  C   UNK d   1       0.949 -14.232 -39.259  0.00  0.00     0.057 A 
ATOM     14  C   UNK d   1       2.118 -13.589 -39.598  0.00  0.00     0.045 A 
ATOM     15  C   UNK d   1       2.654 -12.646 -38.749  0.00  0.00    -0.028 A 
ATOM     16  N   UNK d   1       2.975 -13.696 -40.737  0.00  0.00    -0.318 N 
ATOM     17  C   UNK d   1       1.973 -12.394 -37.584  0.00  0.00     0.030 A 
ATOM     18  C   UNK d   1       3.904 -12.084 -39.316  0.00  0.00     0.061 C 
ATOM     19  C   UNK d   1       0.779 -13.052 -37.243  0.00  0.00     0.035 A 
ATOM     20 Br   UNK d   1      -0.135 -12.541 -35.637  0.00  0.00    -0.049 Br
ATOM     21  C   UNK d   1       3.779 -12.480 -40.788  0.00  0.00     0.137 C 
ATOM     22  C   UNK d   1       3.069 -14.757 -41.654  0.00  0.00     0.220 C 
ATOM     23  O   UNK d   1       3.889 -14.649 -42.631  0.00  0.00    -0.273 OA
ATOM     24  C   UNK d   1       2.297 -16.021 -41.601  0.00  0.00     0.117 C 
ENDBRANCH   9  12
ENDBRANCH   1   9
BRANCH   5  25
ATOM     25  C   UNK d   1       1.761 -18.746 -38.338  0.00  0.00     0.139 C 
BRANCH  25  26
ATOM     26  C   UNK d   1       2.390 -19.975 -37.780  0.00  0.00     0.059 C 
BRANCH  26  27
ATOM     27  C   UNK d   1       3.835 -20.095 -37.966  0.00  0.00    -0.057 A 
ATOM     28  C   UNK d   1       4.709 -19.138 -37.531  0.00  0.00     0.007 A 
ATOM     29  C   UNK d   1       6.048 -19.309 -37.740  0.00  0.00     0.001 A 
ATOM     30  C   UNK d   1       6.555 -20.432 -38.385  0.00  0.00     0.000 A 
ATOM     31  C   UNK d   1       5.661 -21.376 -38.810  0.00  0.00     0.001 A 
ATOM     32  C   UNK d   1       4.308 -21.236 -38.616  0.00  0.00     0.007 A 
ENDBRANCH  26  27
ENDBRANCH  25  26
ENDBRANCH   5  25
TORSDOF 5
ENDMDL
