MODEL 1
REMARK VINA RESULT:    -7.041      0.000      0.000
REMARK INTER + INTRA:          -9.667
REMARK INTER:                  -8.688
REMARK INTRA:                  -0.979
REMARK UNBOUND:                -0.979
REMARK  4 active torsions:
REMARK  status: ('A' for Active; 'I' for Inactive)
REMARK    1  A    between atoms: S_1  and  N_4 
REMARK    2  A    between atoms: S_1  and  C_20 
REMARK       I    between atoms: N_7  and  C_10 
REMARK    3  A    between atoms: C_10  and  C_12 
REMARK    4  A    between atoms: C_12  and  C_13 
ROOT
ATOM      1  N   UNK d   1      -1.282 -17.492 -36.824  0.00  0.00    -0.304 N 
ATOM      2  C   UNK d   1      -0.348 -17.209 -35.789  0.00  0.00     0.155 C 
ATOM      3  C   UNK d   1       0.553 -16.075 -35.948  0.00  0.00     0.145 C 
ATOM      4  N   UNK d   1       0.259 -15.102 -36.982  0.00  0.00    -0.360 N 
ATOM      5  C   UNK d   1      -0.715 -15.380 -37.993  0.00  0.00     0.145 C 
ATOM      6  C   UNK d   1      -1.782 -16.352 -37.504  0.00  0.00     0.155 C 
ATOM      7  C   UNK d   1       0.936 -13.882 -36.942  0.00  0.00     0.158 C 
ATOM      8  O   UNK d   1       1.693 -13.796 -35.828  0.00  0.00    -0.177 OA
ENDROOT
BRANCH   1   9
ATOM      9  S   UNK d   1      -0.935 -18.830 -37.804  0.00  0.00     0.261 S 
ATOM     10  O   UNK d   1      -1.886 -18.852 -38.969  0.00  0.00    -0.200 OA
ATOM     11  O   UNK d   1      -1.172 -20.122 -37.041  0.00  0.00    -0.200 OA
BRANCH   9  12
ATOM     12  C   UNK d   1       0.676 -18.822 -38.491  0.00  0.00     0.082 A 
ATOM     13  C   UNK d   1       1.535 -19.897 -38.266  0.00  0.00     0.057 A 
ATOM     14  C   UNK d   1       2.818 -19.943 -38.768  0.00  0.00     0.070 A 
ATOM     15  C   UNK d   1       3.315 -18.909 -39.528  0.00  0.00     0.096 A 
ATOM     16  N   UNK d   1       3.691 -21.057 -38.513  0.00  0.00    -0.323 N 
ATOM     17  C   UNK d   1       2.472 -17.843 -39.755  0.00  0.00     0.040 A 
ATOM     18  O   UNK d   1       4.626 -18.946 -40.043  0.00  0.00    -0.340 OA
ATOM     19  C   UNK d   1       1.177 -17.789 -39.251  0.00  0.00     0.028 A 
ATOM     20  C   UNK d   1       5.261 -20.217 -40.270  0.00  0.00     0.278 C 
ATOM     21  C   UNK d   1       5.001 -21.023 -39.049  0.00  0.00     0.246 C 
ATOM     22  O   UNK d   1       5.900 -21.677 -38.472  0.00  0.00    -0.271 OA
ATOM     23  H   UNK d   1       3.310 -21.826 -37.944  0.00  0.00     0.169 HD
ENDBRANCH   9  12
ENDBRANCH   1   9
BRANCH   7  24
ATOM     24  C   UNK d   1       0.994 -12.740 -37.809  0.00  0.00     0.127 C 
BRANCH  24  25
ATOM     25  C   UNK d   1       2.266 -12.118 -38.168  0.00  0.00    -0.033 A 
ATOM     26  C   UNK d   1       2.982 -12.532 -39.264  0.00  0.00     0.017 A 
ATOM     27  C   UNK d   1       4.192 -11.925 -39.600  0.00  0.00     0.019 A 
ATOM     28 Br   UNK d   1       2.336 -13.969 -40.358  0.00  0.00    -0.051 Br
ATOM     29  C   UNK d   1       4.667 -10.905 -38.830  0.00  0.00     0.001 A 
ATOM     30  C   UNK d   1       3.943 -10.477 -37.716  0.00  0.00     0.001 A 
ATOM     31  C   UNK d   1       2.765 -11.071 -37.391  0.00  0.00     0.009 A 
ENDBRANCH  24  25
ENDBRANCH   7  24
TORSDOF 4
ENDMDL
