/Users/jonathanwahrer/Desktop/Msc/3_Semester/Drug_Design_Praktikum/waehrer_HTS_screening/HTS_experiment/out/docking_results/vina_output/6y4q/1037_docked.pdbqt
 OpenBabel03232218043D

 31 34  0  0  0  0  0  0  0  0999 V2000
   -1.2820  -17.4920  -36.8240 N   0  0  0  0  0  0  0  0  0  0  0  0
   -0.3480  -17.2090  -35.7890 C   0  0  0  0  0  3  0  0  0  0  0  0
    0.5530  -16.0750  -35.9480 C   0  0  0  0  0  3  0  0  0  0  0  0
    0.2590  -15.1020  -36.9820 N   0  0  0  0  0  0  0  0  0  0  0  0
   -0.7150  -15.3800  -37.9930 C   0  0  0  0  0  2  0  0  0  0  0  0
   -1.7820  -16.3520  -37.5040 C   0  0  0  0  0  2  0  0  0  0  0  0
    0.9360  -13.8820  -36.9420 C   0  0  0  0  0  0  0  0  0  0  0  0
    1.6930  -13.7960  -35.8280 O   0  0  0  0  0  0  0  0  0  0  0  0
   -0.9350  -18.8300  -37.8040 S   0  0  0  0  0  0  0  0  0  0  0  0
   -1.8860  -18.8520  -38.9690 O   0  0  0  0  0  0  0  0  0  0  0  0
   -1.1720  -20.1220  -37.0410 O   0  0  0  0  0  0  0  0  0  0  0  0
    0.6760  -18.8220  -38.4910 C   0  0  0  0  0  0  0  0  0  0  0  0
    1.5350  -19.8970  -38.2660 C   0  0  0  0  0  3  0  0  0  0  0  0
    2.8180  -19.9430  -38.7680 C   0  0  0  0  0  0  0  0  0  0  0  0
    3.3150  -18.9090  -39.5280 C   0  0  0  0  0  0  0  0  0  0  0  0
    3.6910  -21.0570  -38.5130 N   0  0  0  0  0  0  0  0  0  0  0  0
    2.4720  -17.8430  -39.7550 C   0  0  0  0  0  3  0  0  0  0  0  0
    4.6260  -18.9460  -40.0430 O   0  0  0  0  0  0  0  0  0  0  0  0
    1.1770  -17.7890  -39.2510 C   0  0  0  0  0  3  0  0  0  0  0  0
    5.2610  -20.2170  -40.2700 C   0  0  0  0  0  2  0  0  0  0  0  0
    5.0010  -21.0230  -39.0490 C   0  0  0  0  0  0  0  0  0  0  0  0
    5.9000  -21.6770  -38.4720 O   0  0  0  0  0  0  0  0  0  0  0  0
    3.3100  -21.8260  -37.9440 H   0  0  0  0  0  0  0  0  0  0  0  0
    0.9940  -12.7400  -37.8090 C   0  0  0  0  0  2  0  0  0  0  0  0
    2.2660  -12.1180  -38.1680 C   0  0  0  0  0  0  0  0  0  0  0  0
    2.9820  -12.5320  -39.2640 C   0  0  0  0  0  0  0  0  0  0  0  0
    4.1920  -11.9250  -39.6000 C   0  0  0  0  0  3  0  0  0  0  0  0
    2.3360  -13.9690  -40.3580 Br  0  0  0  0  0  0  0  0  0  0  0  0
    4.6670  -10.9050  -38.8300 C   0  0  0  0  0  3  0  0  0  0  0  0
    3.9430  -10.4770  -37.7160 C   0  0  0  0  0  3  0  0  0  0  0  0
    2.7650  -11.0710  -37.3910 C   0  0  0  0  0  3  0  0  0  0  0  0
  1  2  1  0  0  0  0
  3  2  2  0  0  0  0
  4  7  1  0  0  0  0
  4  3  1  0  0  0  0
  5  6  1  0  0  0  0
  5  4  1  0  0  0  0
  6  1  1  0  0  0  0
  7  8  2  0  0  0  0
  9 11  2  0  0  0  0
  9  1  1  0  0  0  0
 10  9  2  0  0  0  0
 12 13  1  0  0  0  0
 12  9  1  0  0  0  0
 14 16  1  0  0  0  0
 14 13  2  0  0  0  0
 15 14  1  0  0  0  0
 16 23  1  0  0  0  0
 17 15  2  0  0  0  0
 17 19  1  0  0  0  0
 18 15  1  0  0  0  0
 19 12  2  0  0  0  0
 20 18  1  0  0  0  0
 20 21  1  0  0  0  0
 21 16  1  0  0  0  0
 21 22  2  0  0  0  0
 24  7  1  0  0  0  0
 25 24  1  0  0  0  0
 25 31  1  0  0  0  0
 26 25  2  0  0  0  0
 27 26  1  0  0  0  0
 27 29  2  0  0  0  0
 28 26  1  0  0  0  0
 29 30  1  0  0  0  0
 30 31  2  0  0  0  0
M  END
>  <Pose>
1

>  <Score>
-7.041

$$$$
