/Users/jonathanwahrer/Desktop/Msc/3_Semester/Drug_Design_Praktikum/waehrer_HTS_screening/HTS_experiment/out/docking_results/vina_output/6y4q/1040_docked.pdbqt
 OpenBabel03232218043D

 34 38  0  0  0  0  0  0  0  0999 V2000
    0.2810  -14.0360  -36.4830 S   0  0  0  0  0  0  0  0  0  0  0  0
    0.6550  -13.0190  -35.4750 O   0  0  0  0  0  0  0  0  0  0  0  0
   -1.2420  -13.9140  -36.6170 O   0  0  0  0  0  0  0  0  0  0  0  0
    0.5370  -15.6560  -35.9610 N   0  0  0  0  0  0  0  0  0  0  0  0
    1.6530  -16.2950  -36.5690 C   0  0  0  0  0  2  0  0  0  0  0  0
    1.3330  -16.9880  -37.8880 C   0  0  0  0  0  2  0  0  0  0  0  0
    0.2120  -17.8450  -37.6970 N   0  0  0  0  0  0  0  0  0  0  0  0
   -1.0030  -17.0900  -37.2510 C   0  0  0  0  0  2  0  0  0  0  0  0
    0.0620  -19.2090  -37.8480 C   0  0  0  0  0  0  0  0  0  0  0  0
   -0.6460  -16.4470  -35.9530 C   0  0  0  0  0  2  0  0  0  0  0  0
   -1.1430  -19.6680  -37.5720 O   0  0  0  0  0  0  0  0  0  0  0  0
    0.9870  -20.2270  -38.2540 C   0  0  0  0  0  2  0  0  0  0  0  0
    2.3140  -19.8760  -38.6060 N   0  0  0  0  0  0  0  0  0  0  0  0
    2.7630  -19.4650  -39.7900 N   0  0  0  0  0  0  0  0  0  0  0  0
    4.0720  -19.1860  -39.7350 C   0  0  0  0  0  3  0  0  0  0  0  0
    4.4580  -19.4390  -38.4420 C   0  0  0  0  0  0  0  0  0  0  0  0
    3.3670  -19.8660  -37.7460 C   0  0  0  0  0  3  0  0  0  0  0  0
    6.2330  -19.2290  -37.7300 Br  0  0  0  0  0  0  0  0  0  0  0  0
    0.9070  -13.7540  -38.0770 C   0  0  0  0  0  0  0  0  0  0  0  0
    0.2250  -14.1690  -39.2290 C   0  0  0  0  0  0  0  0  0  0  0  0
    0.7300  -13.9430  -40.4940 C   0  0  0  0  0  0  0  0  0  0  0  0
   -0.9930  -14.8340  -39.3260 O   0  0  0  0  0  0  0  0  0  0  0  0
    1.9350  -13.2940  -40.6750 C   0  0  0  0  0  0  0  0  0  0  0  0
   -0.1680  -14.4660  -41.3980 O   0  0  0  0  0  0  0  0  0  0  0  0
    2.6060  -12.8880  -39.5550 C   0  0  0  0  0  0  0  0  0  0  0  0
    2.0850  -13.1210  -38.2870 C   0  0  0  0  0  0  0  0  0  0  0  0
    3.9050  -12.1770  -39.5830 C   0  0  0  0  0  2  0  0  0  0  0  0
    2.9250  -12.6360  -37.1790 C   0  0  0  0  0  2  0  0  0  0  0  0
    3.3630  -11.2080  -37.4190 C   0  0  0  0  0  2  0  0  0  0  0  0
    3.7690  -11.0180  -38.7600 N   0  0  0  0  0  0  0  0  0  0  0  0
    3.2950   -9.8500  -39.4160 C   0  0  0  0  0  1  0  0  0  0  0  0
   -1.1740  -15.1430  -40.6990 C   0  0  0  0  0  2  0  0  0  0  0  0
    2.4580  -13.0600  -41.9640 O   0  0  0  0  0  0  0  0  0  0  0  0
    3.1400  -14.1310  -42.6310 C   0  0  0  0  0  1  0  0  0  0  0  0
  1  4  1  0  0  0  0
  1  2  2  0  0  0  0
  3  1  2  0  0  0  0
  4 10  1  0  0  0  0
  5  4  1  0  0  0  0
  6  7  1  0  0  0  0
  6  5  1  0  0  0  0
  7  8  1  0  0  0  0
  8 10  1  0  0  0  0
  9  7  1  0  0  0  0
  9 11  2  0  0  0  0
 12  9  1  0  0  0  0
 13 12  1  0  0  0  0
 13 17  1  0  0  0  0
 14 15  2  0  0  0  0
 14 13  1  0  0  0  0
 15 16  1  0  0  0  0
 16 17  2  0  0  0  0
 16 18  1  0  0  0  0
 19  1  1  0  0  0  0
 20 19  2  0  0  0  0
 21 20  1  0  0  0  0
 22 20  1  0  0  0  0
 23 21  2  0  0  0  0
 23 25  1  0  0  0  0
 24 32  1  0  0  0  0
 24 21  1  0  0  0  0
 25 26  2  0  0  0  0
 26 19  1  0  0  0  0
 26 28  1  0  0  0  0
 27 25  1  0  0  0  0
 27 30  1  0  0  0  0
 29 28  1  0  0  0  0
 30 29  1  0  0  0  0
 31 30  1  0  0  0  0
 32 22  1  0  0  0  0
 33 23  1  0  0  0  0
 34 33  1  0  0  0  0
M  END
>  <Pose>
1

>  <Score>
-6.295

$$$$
