MODEL 1
REMARK VINA RESULT:    -6.295      0.000      0.000
REMARK INTER + INTRA:          -8.129
REMARK INTER:                  -7.767
REMARK INTRA:                  -0.361
REMARK UNBOUND:                -0.361
REMARK  4 active torsions:
REMARK  status: ('A' for Active; 'I' for Inactive)
REMARK    1  A    between atoms: S_1  and  N_4 
REMARK    2  A    between atoms: S_1  and  C_19 
REMARK       I    between atoms: N_7  and  C_10 
REMARK    3  A    between atoms: C_12  and  N_13 
REMARK    4  A    between atoms: C_22  and  O_30 
ROOT
ATOM      1  S   UNK d   1       0.281 -14.036 -36.483  0.00  0.00     0.247 S 
ATOM      2  O   UNK d   1       0.655 -13.019 -35.475  0.00  0.00    -0.206 OA
ATOM      3  O   UNK d   1      -1.242 -13.914 -36.617  0.00  0.00    -0.206 OA
ENDROOT
BRANCH   1   4
ATOM      4  N   UNK d   1       0.537 -15.656 -35.961  0.00  0.00    -0.203 NA
ATOM      5  C   UNK d   1       1.653 -16.295 -36.569  0.00  0.00     0.127 C 
ATOM      6  C   UNK d   1       1.333 -16.988 -37.888  0.00  0.00     0.140 C 
ATOM      7  N   UNK d   1       0.212 -17.845 -37.697  0.00  0.00    -0.359 N 
ATOM      8  C   UNK d   1      -1.003 -17.090 -37.251  0.00  0.00     0.140 C 
ATOM      9  C   UNK d   1       0.062 -19.209 -37.848  0.00  0.00     0.173 C 
ATOM     10  C   UNK d   1      -0.646 -16.447 -35.953  0.00  0.00     0.127 C 
ATOM     11  O   UNK d   1      -1.143 -19.668 -37.572  0.00  0.00    -0.175 OA
ATOM     12  C   UNK d   1       0.987 -20.227 -38.254  0.00  0.00     0.237 C 
BRANCH  12  13
ATOM     13  N   UNK d   1       2.314 -19.876 -38.606  0.00  0.00    -0.272 N 
ATOM     14  N   UNK d   1       2.763 -19.465 -39.790  0.00  0.00    -0.183 NA
ATOM     15  C   UNK d   1       4.072 -19.186 -39.735  0.00  0.00     0.159 A 
ATOM     16  C   UNK d   1       4.458 -19.439 -38.442  0.00  0.00     0.047 A 
ATOM     17  C   UNK d   1       3.367 -19.866 -37.746  0.00  0.00     0.133 A 
ATOM     18 Br   UNK d   1       6.233 -19.229 -37.730  0.00  0.00    -0.048 Br
ENDBRANCH  12  13
ENDBRANCH   1   4
BRANCH   1  19
ATOM     19  C   UNK d   1       0.907 -13.754 -38.077  0.00  0.00     0.118 A 
ATOM     20  C   UNK d   1       0.225 -14.169 -39.229  0.00  0.00     0.131 A 
ATOM     21  C   UNK d   1       0.730 -13.943 -40.494  0.00  0.00     0.140 A 
ATOM     22  O   UNK d   1      -0.993 -14.834 -39.326  0.00  0.00    -0.321 OA
ATOM     23  C   UNK d   1       1.935 -13.294 -40.675  0.00  0.00     0.113 A 
ATOM     24  O   UNK d   1      -0.168 -14.466 -41.398  0.00  0.00    -0.320 OA
ATOM     25  C   UNK d   1       2.606 -12.888 -39.555  0.00  0.00     0.004 A 
ATOM     26  C   UNK d   1       2.085 -13.121 -38.287  0.00  0.00    -0.020 A 
ATOM     27  C   UNK d   1       3.905 -12.177 -39.583  0.00  0.00     0.158 C 
ATOM     28  C   UNK d   1       2.925 -12.636 -37.179  0.00  0.00     0.060 C 
ATOM     29  C   UNK d   1       3.363 -11.208 -37.419  0.00  0.00     0.121 C 
ATOM     30  N   UNK d   1       3.769 -11.018 -38.760  0.00  0.00    -0.412 N 
ATOM     31  C   UNK d   1       3.295  -9.850 -39.416  0.00  0.00     0.143 C 
ATOM     32  C   UNK d   1      -1.174 -15.143 -40.699  0.00  0.00     0.352 C 
BRANCH  23  33
ATOM     33  O   UNK d   1       2.458 -13.060 -41.964  0.00  0.00    -0.352 OA
ATOM     34  C   UNK d   1       3.140 -14.131 -42.631  0.00  0.00     0.210 C 
ENDBRANCH  23  33
ENDBRANCH   1  19
TORSDOF 4
ENDMDL
