/Users/jonathanwahrer/Desktop/Msc/3_Semester/Drug_Design_Praktikum/waehrer_HTS_screening/HTS_experiment/out/docking_results/vina_output/6y4q/1042_docked.pdbqt
 OpenBabel03232218053D

 31 34  0  0  0  0  0  0  0  0999 V2000
    0.2600  -13.4020  -37.5930 N   0  0  0  0  0  0  0  0  0  0  0  0
   -0.7190  -14.3040  -37.9740 C   0  0  0  0  0  2  0  0  0  0  0  0
   -0.7460  -15.4550  -36.9310 C   0  0  0  0  0  2  0  0  0  0  0  0
    0.5810  -15.9780  -36.7550 N   0  0  0  0  0  0  0  0  0  0  0  0
    1.5940  -15.0460  -36.3140 C   0  0  0  0  0  2  0  0  0  0  0  0
    0.9780  -13.6650  -36.3760 C   0  0  0  0  0  2  0  0  0  0  0  0
    0.9290  -17.3220  -36.9860 C   0  0  0  0  0  0  0  0  0  0  0  0
    0.0460  -18.1240  -37.3680 O   0  0  0  0  0  0  0  0  0  0  0  0
    2.3000  -17.7930  -36.7880 C   0  0  0  0  0  2  0  0  0  0  0  0
    2.7760  -18.5050  -37.9710 N   0  0  0  0  0  0  0  0  0  0  0  0
    2.7020  -18.1410  -39.3350 C   0  0  0  0  0  0  0  0  0  0  0  0
    2.1770  -17.0670  -39.7780 O   0  0  0  0  0  0  0  0  0  0  0  0
    3.3120  -19.1820  -40.0880 N   0  0  0  0  0  0  0  0  0  0  0  0
    4.1590  -19.9150  -39.1840 C   0  0  0  0  0  0  0  0  0  0  0  0
    3.1230  -19.3170  -41.1120 H   0  0  0  0  0  0  0  0  0  0  0  0
    5.5620  -19.4050  -39.1230 C   0  0  0  0  0  2  0  0  0  0  0  0
    4.3140  -21.3620  -39.5940 C   0  0  0  0  0  2  0  0  0  0  0  0
    3.4380  -19.7830  -37.8960 C   0  0  0  0  0  0  0  0  0  0  0  0
    6.2850  -20.5720  -38.4390 C   0  0  0  0  0  2  0  0  0  0  0  0
    5.6160  -21.7940  -39.0060 C   0  0  0  0  0  2  0  0  0  0  0  0
    3.4180  -20.6090  -36.9550 O   0  0  0  0  0  0  0  0  0  0  0  0
    0.4350  -11.8910  -38.2500 S   0  0  0  0  0  0  0  0  0  0  0  0
   -0.1730  -11.9090  -39.6590 O   0  0  0  0  0  0  0  0  0  0  0  0
   -0.4180  -10.8460  -37.5240 O   0  0  0  0  0  0  0  0  0  0  0  0
    2.0410  -11.2620  -38.4500 C   0  0  0  0  0  0  0  0  0  0  0  0
    3.0630  -11.8500  -39.1460 C   0  0  0  0  0  0  0  0  0  0  0  0
    4.3410  -11.2820  -39.2040 C   0  0  0  0  0  3  0  0  0  0  0  0
    2.7250  -13.4440  -40.1180 Br  0  0  0  0  0  0  0  0  0  0  0  0
    4.6340  -10.1160  -38.5710 C   0  0  0  0  0  3  0  0  0  0  0  0
    3.6320   -9.5010  -37.8680 C   0  0  0  0  0  3  0  0  0  0  0  0
    2.3760  -10.0550  -37.8080 C   0  0  0  0  0  3  0  0  0  0  0  0
  1  6  1  0  0  0  0
  2  1  1  0  0  0  0
  2  3  1  0  0  0  0
  3  4  1  0  0  0  0
  4  5  1  0  0  0  0
  6  5  1  0  0  0  0
  7  9  1  0  0  0  0
  7  4  1  0  0  0  0
  8  7  2  0  0  0  0
 10 18  1  0  0  0  0
 10  9  1  0  0  0  0
 11 10  1  0  0  0  0
 12 11  2  0  0  0  0
 13 11  1  0  0  0  0
 13 14  1  0  0  0  0
 14 16  1  0  0  0  0
 14 18  1  0  0  0  0
 15 13  1  0  0  0  0
 16 19  1  0  0  0  0
 17 14  1  0  0  0  0
 17 20  1  0  0  0  0
 18 21  2  0  0  0  0
 20 19  1  0  0  0  0
 22  1  1  0  0  0  0
 22 24  2  0  0  0  0
 23 22  2  0  0  0  0
 25 22  1  0  0  0  0
 25 31  1  0  0  0  0
 26 25  2  0  0  0  0
 27 26  1  0  0  0  0
 27 29  2  0  0  0  0
 28 26  1  0  0  0  0
 29 30  1  0  0  0  0
 30 31  2  0  0  0  0
M  END
>  <Pose>
1

>  <Score>
-6.783

$$$$
