MODEL 1
REMARK VINA RESULT:    -6.783      0.000      0.000
REMARK INTER + INTRA:          -8.936
REMARK INTER:                  -8.369
REMARK INTRA:                  -0.568
REMARK UNBOUND:                -0.568
REMARK  4 active torsions:
REMARK  status: ('A' for Active; 'I' for Inactive)
REMARK    1  A    between atoms: S_1  and  N_4 
REMARK    2  A    between atoms: S_1  and  C_24 
REMARK       I    between atoms: N_7  and  C_10 
REMARK    3  A    between atoms: C_10  and  C_12 
REMARK    4  A    between atoms: C_12  and  N_13 
ROOT
ATOM      1  N   UNK d   1       0.260 -13.402 -37.593  0.00  0.00    -0.304 N 
ATOM      2  C   UNK d   1      -0.719 -14.304 -37.974  0.00  0.00     0.155 C 
ATOM      3  C   UNK d   1      -0.746 -15.455 -36.931  0.00  0.00     0.146 C 
ATOM      4  N   UNK d   1       0.581 -15.978 -36.755  0.00  0.00    -0.348 N 
ATOM      5  C   UNK d   1       1.594 -15.046 -36.314  0.00  0.00     0.146 C 
ATOM      6  C   UNK d   1       0.978 -13.665 -36.376  0.00  0.00     0.155 C 
ATOM      7  C   UNK d   1       0.929 -17.322 -36.986  0.00  0.00     0.238 C 
ATOM      8  O   UNK d   1       0.046 -18.124 -37.368  0.00  0.00    -0.272 OA
ENDROOT
BRANCH   7   9
ATOM      9  C   UNK d   1       2.300 -17.793 -36.788  0.00  0.00     0.239 C 
BRANCH   9  10
ATOM     10  N   UNK d   1       2.776 -18.505 -37.971  0.00  0.00    -0.259 N 
ATOM     11  C   UNK d   1       2.702 -18.141 -39.335  0.00  0.00     0.326 C 
ATOM     12  O   UNK d   1       2.177 -17.067 -39.778  0.00  0.00    -0.247 OA
ATOM     13  N   UNK d   1       3.312 -19.182 -40.088  0.00  0.00    -0.324 N 
ATOM     14  C   UNK d   1       4.159 -19.915 -39.184  0.00  0.00     0.116 C 
ATOM     15  H   UNK d   1       3.123 -19.317 -41.112  0.00  0.00     0.165 HD
ATOM     16  C   UNK d   1       5.562 -19.405 -39.123  0.00  0.00     0.041 C 
ATOM     17  C   UNK d   1       4.314 -21.362 -39.594  0.00  0.00     0.041 C 
ATOM     18  C   UNK d   1       3.438 -19.783 -37.896  0.00  0.00     0.256 C 
ATOM     19  C   UNK d   1       6.285 -20.572 -38.439  0.00  0.00     0.003 C 
ATOM     20  C   UNK d   1       5.616 -21.794 -39.006  0.00  0.00     0.003 C 
ATOM     21  O   UNK d   1       3.418 -20.609 -36.955  0.00  0.00    -0.270 OA
ENDBRANCH   9  10
ENDBRANCH   7   9
BRANCH   1  22
ATOM     22  S   UNK d   1       0.435 -11.891 -38.250  0.00  0.00     0.262 S 
ATOM     23  O   UNK d   1      -0.173 -11.909 -39.659  0.00  0.00    -0.200 OA
ATOM     24  O   UNK d   1      -0.418 -10.846 -37.524  0.00  0.00    -0.200 OA
BRANCH  22  25
ATOM     25  C   UNK d   1       2.041 -11.262 -38.450  0.00  0.00     0.097 A 
ATOM     26  C   UNK d   1       3.063 -11.850 -39.146  0.00  0.00     0.034 A 
ATOM     27  C   UNK d   1       4.341 -11.282 -39.204  0.00  0.00     0.020 A 
ATOM     28 Br   UNK d   1       2.725 -13.444 -40.118  0.00  0.00    -0.049 Br
ATOM     29  C   UNK d   1       4.634 -10.116 -38.571  0.00  0.00     0.001 A 
ATOM     30  C   UNK d   1       3.632  -9.501 -37.868  0.00  0.00     0.002 A 
ATOM     31  C   UNK d   1       2.376 -10.055 -37.808  0.00  0.00     0.027 A 
ENDBRANCH  22  25
ENDBRANCH   1  22
TORSDOF 4
ENDMDL
