MODEL 1
REMARK VINA RESULT:    -7.635      0.000      0.000
REMARK INTER + INTRA:          -9.356
REMARK INTER:                  -8.974
REMARK INTRA:                  -0.382
REMARK UNBOUND:                -0.382
REMARK  3 active torsions:
REMARK  status: ('A' for Active; 'I' for Inactive)
REMARK    1  A    between atoms: S_1  and  N_4 
REMARK    2  A    between atoms: S_1  and  C_24 
REMARK       I    between atoms: N_7  and  C_10 
REMARK    3  A    between atoms: C_12  and  N_13 
ROOT
ATOM      1  N   UNK d   1       0.738 -15.078 -37.317  0.00  0.00    -0.203 NA
ATOM      2  C   UNK d   1      -0.361 -15.681 -36.592  0.00  0.00     0.127 C 
ATOM      3  C   UNK d   1      -1.098 -16.679 -37.450  0.00  0.00     0.140 C 
ATOM      4  N   UNK d   1      -0.085 -17.603 -37.999  0.00  0.00    -0.359 N 
ATOM      5  C   UNK d   1       0.975 -16.984 -38.732  0.00  0.00     0.140 C 
ATOM      6  C   UNK d   1       0.731 -15.458 -38.686  0.00  0.00     0.127 C 
ATOM      7  C   UNK d   1      -0.192 -18.986 -37.789  0.00  0.00     0.172 C 
ATOM      8  O   UNK d   1      -1.238 -19.351 -37.075  0.00  0.00    -0.175 OA
ATOM      9  C   UNK d   1       0.620 -20.103 -38.199  0.00  0.00     0.224 C 
ENDROOT
BRANCH   9  10
ATOM     10  N   UNK d   1       1.793 -19.896 -38.989  0.00  0.00    -0.260 N 
ATOM     11  C   UNK d   1       1.874 -19.760 -40.431  0.00  0.00     0.326 C 
ATOM     12  O   UNK d   1       0.856 -19.795 -41.177  0.00  0.00    -0.247 OA
ATOM     13  N   UNK d   1       3.240 -19.591 -40.774  0.00  0.00    -0.324 N 
ATOM     14  C   UNK d   1       4.014 -20.046 -39.670  0.00  0.00     0.116 C 
ATOM     15  H   UNK d   1       3.546 -19.192 -41.704  0.00  0.00     0.165 HD
ATOM     16  C   UNK d   1       4.445 -21.488 -39.793  0.00  0.00     0.041 C 
ATOM     17  C   UNK d   1       5.351 -19.334 -39.556  0.00  0.00     0.041 C 
ATOM     18  C   UNK d   1       3.152 -19.800 -38.515  0.00  0.00     0.256 C 
ATOM     19  C   UNK d   1       5.488 -21.586 -38.695  0.00  0.00     0.003 C 
ATOM     20  C   UNK d   1       6.072 -20.201 -38.551  0.00  0.00     0.003 C 
ATOM     21  O   UNK d   1       3.487 -19.552 -37.329  0.00  0.00    -0.270 OA
ENDBRANCH   9  10
BRANCH   1  22
ATOM     22  S   UNK d   1       0.881 -13.399 -37.045  0.00  0.00     0.243 S 
ATOM     23  O   UNK d   1       1.020 -13.203 -35.546  0.00  0.00    -0.206 OA
ATOM     24  O   UNK d   1      -0.411 -12.721 -37.427  0.00  0.00    -0.206 OA
BRANCH  22  25
ATOM     25  C   UNK d   1       2.221 -12.675 -37.900  0.00  0.00     0.074 A 
ATOM     26  C   UNK d   1       2.490 -12.961 -39.224  0.00  0.00     0.026 A 
ATOM     27  C   UNK d   1       3.559 -12.380 -39.895  0.00  0.00     0.020 A 
ATOM     28  C   UNK d   1       4.390 -11.495 -39.257  0.00  0.00     0.011 A 
ATOM     29  C   UNK d   1       4.133 -11.201 -37.935  0.00  0.00     0.020 A 
ATOM     30 Br   UNK d   1       5.873 -10.685 -40.181  0.00  0.00    -0.051 Br
ATOM     31  C   UNK d   1       3.064 -11.784 -37.271  0.00  0.00     0.026 A 
ENDBRANCH  22  25
ENDBRANCH   1  22
TORSDOF 3
ENDMDL
