MODEL 1
REMARK VINA RESULT:    -6.677      0.000      0.000
REMARK INTER + INTRA:          -8.582
REMARK INTER:                  -7.848
REMARK INTRA:                  -0.734
REMARK UNBOUND:                -0.734
REMARK  3 active torsions:
REMARK  status: ('A' for Active; 'I' for Inactive)
REMARK    1  A    between atoms: S_1  and  N_4 
REMARK    2  A    between atoms: S_1  and  C_19 
REMARK       I    between atoms: N_7  and  C_10 
REMARK    3  A    between atoms: C_10  and  C_12 
ROOT
ATOM      1  N   UNK d   1      -0.250 -15.701 -37.370  0.00  0.00    -0.304 N 
ATOM      2  C   UNK d   1      -0.407 -15.840 -38.750  0.00  0.00     0.155 C 
ATOM      3  C   UNK d   1      -0.033 -14.672 -39.592  0.00  0.00     0.146 C 
ATOM      4  N   UNK d   1       0.950 -13.810 -39.016  0.00  0.00    -0.345 N 
ATOM      5  C   UNK d   1       1.491 -14.133 -37.714  0.00  0.00     0.146 C 
ATOM      6  C   UNK d   1       0.288 -14.511 -36.851  0.00  0.00     0.155 C 
ATOM      7  C   UNK d   1       1.417 -12.645 -39.672  0.00  0.00     0.255 C 
ATOM      8  O   UNK d   1       0.971 -12.321 -40.819  0.00  0.00    -0.267 OA
ENDROOT
BRANCH   1   9
ATOM      9  S   UNK d   1      -0.031 -17.109 -36.459  0.00  0.00     0.261 S 
ATOM     10  O   UNK d   1       0.354 -16.876 -35.051  0.00  0.00    -0.200 OA
ATOM     11  O   UNK d   1      -1.360 -17.854 -36.438  0.00  0.00    -0.200 OA
BRANCH   9  12
ATOM     12  C   UNK d   1       1.100 -18.188 -37.268  0.00  0.00     0.082 A 
ATOM     13  C   UNK d   1       2.461 -18.086 -37.066  0.00  0.00     0.057 A 
ATOM     14  C   UNK d   1       3.373 -18.917 -37.685  0.00  0.00     0.070 A 
ATOM     15  C   UNK d   1       2.943 -19.904 -38.548  0.00  0.00     0.096 A 
ATOM     16  N   UNK d   1       4.776 -18.815 -37.481  0.00  0.00    -0.323 N 
ATOM     17  C   UNK d   1       1.576 -20.010 -38.752  0.00  0.00     0.040 A 
ATOM     18  O   UNK d   1       3.840 -20.758 -39.187  0.00  0.00    -0.340 OA
ATOM     19  C   UNK d   1       0.670 -19.176 -38.131  0.00  0.00     0.028 A 
ATOM     20  C   UNK d   1       5.239 -20.555 -39.227  0.00  0.00     0.278 C 
ATOM     21  C   UNK d   1       5.708 -19.677 -38.125  0.00  0.00     0.246 C 
ATOM     22  O   UNK d   1       6.924 -19.743 -37.814  0.00  0.00    -0.271 OA
ATOM     23  H   UNK d   1       5.118 -18.075 -36.832  0.00  0.00     0.169 HD
ENDBRANCH   9  12
ENDBRANCH   1   9
BRANCH   7  24
ATOM     24  C   UNK d   1       2.418 -11.755 -39.099  0.00  0.00     0.049 A 
ATOM     25  C   UNK d   1       2.085 -10.719 -38.246  0.00  0.00     0.026 A 
ATOM     26  C   UNK d   1       3.021  -9.872 -37.699  0.00  0.00     0.020 A 
ATOM     27 Br   UNK d   1       0.232 -10.496 -37.842  0.00  0.00    -0.050 Br
ATOM     28  C   UNK d   1       4.353 -10.078 -38.025  0.00  0.00     0.001 A 
ATOM     29  C   UNK d   1       4.743 -11.092 -38.867  0.00  0.00     0.001 A 
ATOM     30  C   UNK d   1       3.767 -11.912 -39.390  0.00  0.00     0.018 A 
ENDBRANCH   7  24
TORSDOF 3
ENDMDL
