MODEL 1
REMARK VINA RESULT:    -6.117      0.000      0.000
REMARK INTER + INTRA:          -7.668
REMARK INTER:                  -7.190
REMARK INTRA:                  -0.478
REMARK UNBOUND:                -0.478
REMARK  3 active torsions:
REMARK  status: ('A' for Active; 'I' for Inactive)
REMARK    1  A    between atoms: S_1  and  N_4 
REMARK    2  A    between atoms: S_1  and  C_22 
REMARK       I    between atoms: N_7  and  C_10 
REMARK    3  A    between atoms: C_10  and  C_12 
ROOT
ATOM      1  N   UNK d   1       0.068 -15.358 -37.156  0.00  0.00    -0.203 NA
ATOM      2  C   UNK d   1       1.374 -15.838 -36.894  0.00  0.00     0.127 C 
ATOM      3  C   UNK d   1       1.705 -17.195 -37.416  0.00  0.00     0.141 C 
ATOM      4  N   UNK d   1       0.598 -18.112 -37.407  0.00  0.00    -0.344 N 
ATOM      5  C   UNK d   1      -0.652 -17.610 -36.881  0.00  0.00     0.141 C 
ATOM      6  C   UNK d   1      -0.887 -16.308 -37.617  0.00  0.00     0.127 C 
ATOM      7  C   UNK d   1       0.660 -19.440 -37.868  0.00  0.00     0.274 C 
ATOM      8  O   UNK d   1      -0.358 -20.165 -37.820  0.00  0.00    -0.266 OA
ENDROOT
BRANCH   7   9
ATOM      9  C   UNK d   1       1.905 -19.982 -38.403  0.00  0.00     0.148 A 
ATOM     10  N   UNK d   1       2.143 -20.272 -39.678  0.00  0.00    -0.161 NA
ATOM     11  N   UNK d   1       3.382 -20.749 -39.823  0.00  0.00    -0.225 N 
ATOM     12  C   UNK d   1       3.994 -20.781 -38.617  0.00  0.00     0.152 A 
ATOM     13  C   UNK d   1       4.067 -21.172 -40.906  0.00  0.00     0.141 A 
ATOM     14  C   UNK d   1       3.047 -20.291 -37.710  0.00  0.00     0.091 A 
ATOM     15  N   UNK d   1       5.267 -21.225 -38.470  0.00  0.00    -0.240 NA
ATOM     16  C   UNK d   1       5.957 -21.652 -39.567  0.00  0.00     0.139 A 
ATOM     17  C   UNK d   1       5.362 -21.631 -40.809  0.00  0.00     0.046 A 
ATOM     18 Br   UNK d   1       6.337 -22.234 -42.353  0.00  0.00    -0.048 Br
ENDBRANCH   7   9
BRANCH   1  19
ATOM     19  S   UNK d   1       0.020 -13.985 -38.195  0.00  0.00     0.246 S 
ATOM     20  O   UNK d   1      -1.005 -13.010 -37.714  0.00  0.00    -0.206 OA
ATOM     21  O   UNK d   1      -0.410 -14.495 -39.564  0.00  0.00    -0.206 OA
BRANCH  19  22
ATOM     22  C   UNK d   1       1.568 -13.184 -38.291  0.00  0.00     0.111 A 
ATOM     23  C   UNK d   1       2.140 -12.356 -37.352  0.00  0.00     0.138 A 
ATOM     24  N   UNK d   1       3.330 -11.937 -37.786  0.00  0.00    -0.284 N 
ATOM     25  N   UNK d   1       3.550 -12.465 -38.975  0.00  0.00    -0.184 NA
ATOM     26  C   UNK d   1       4.248 -11.061 -37.108  0.00  0.00     0.179 C 
ATOM     27  C   UNK d   1       2.495 -13.241 -39.332  0.00  0.00     0.165 A 
ENDBRANCH  19  22
ENDBRANCH   1  19
TORSDOF 3
ENDMDL
