/Users/jonathanwahrer/Desktop/Msc/3_Semester/Drug_Design_Praktikum/waehrer_HTS_screening/HTS_experiment/out/docking_results/vina_output/6y4q/1056_docked.pdbqt
 OpenBabel03232218053D

 30 33  0  0  1  0  0  0  0  0999 V2000
   -0.0190  -13.5250  -37.9780 N   0  0  0  0  0  0  0  0  0  0  0  0
   -1.2740  -14.1160  -37.7090 C   0  0  0  0  0  2  0  0  0  0  0  0
   -1.2740  -15.4890  -37.1750 C   0  0  0  0  0  2  0  0  0  0  0  0
   -0.2670  -16.3050  -37.7840 N   0  0  0  0  0  0  0  0  0  0  0  0
    0.5410  -15.7570  -38.8360 C   0  0  0  0  0  2  0  0  0  0  0  0
    0.9630  -14.3420  -38.5930 C   0  0  0  0  0  2  0  0  0  0  0  0
   -0.0630  -17.6340  -37.3630 C   0  0  0  0  0  0  0  0  0  0  0  0
   -0.7770  -18.0940  -36.4430 O   0  0  0  0  0  0  0  0  0  0  0  0
    0.9410  -18.5200  -37.9370 C   0  0  1  0  0  3  0  0  0  0  0  0
    0.5730  -19.4500  -38.8920 C   0  0  0  0  0  3  0  0  0  0  0  0
    1.4960  -20.2660  -39.4220 N   0  0  0  0  0  0  0  0  0  0  0  0
    2.7970  -20.2220  -39.0600 C   0  0  1  0  0  3  0  0  0  0  0  0
    3.1880  -19.3300  -38.1340 N   0  0  0  0  0  0  0  0  0  0  0  0
    3.7320  -21.0810  -39.6270 C   0  0  0  0  0  3  0  0  0  0  0  0
    4.4990  -19.2820  -37.7650 C   0  0  0  0  0  3  0  0  0  0  0  0
    2.2740  -18.4910  -37.5800 C   0  0  0  0  0  0  0  0  0  0  0  0
    5.4430  -20.1250  -38.3150 C   0  0  0  0  0  0  0  0  0  0  0  0
    5.0620  -21.0530  -39.2710 C   0  0  0  0  0  3  0  0  0  0  0  0
    6.8780  -20.1030  -37.9400 C   0  0  0  0  0  1  0  0  0  0  0  0
    2.6360  -17.6680  -36.7260 O   0  0  0  0  0  0  0  0  0  0  0  0
    0.5420  -12.3980  -36.8480 S   0  0  0  0  0  0  0  0  0  0  0  0
   -0.5280  -11.4190  -36.5120 O   0  0  0  0  0  0  0  0  0  0  0  0
    0.9290  -13.1350  -35.5890 O   0  0  0  0  0  0  0  0  0  0  0  0
    1.9590  -11.5890  -37.4610 C   0  0  0  0  0  0  0  0  0  0  0  0
    1.8410  -10.6400  -38.4550 C   0  0  0  0  0  3  0  0  0  0  0  0
    3.0120  -10.0340  -38.8980 C   0  0  0  0  0  0  0  0  0  0  0  0
    4.2400  -10.3510  -38.3800 C   0  0  0  0  0  3  0  0  0  0  0  0
    2.9150   -8.7180  -40.2670 Br  0  0  0  0  0  0  0  0  0  0  0  0
    4.3480  -11.3070  -37.3800 C   0  0  0  0  0  3  0  0  0  0  0  0
    3.1820  -11.9290  -36.9200 C   0  0  0  0  0  3  0  0  0  0  0  0
  1  2  1  0  0  0  0
  1 21  1  0  0  0  0
  2  3  1  0  0  0  0
  4  7  1  0  0  0  0
  4  3  1  0  0  0  0
  5  6  1  0  0  0  0
  5  4  1  0  0  0  0
  6  1  1  0  0  0  0
  7  8  2  0  0  0  0
  9 16  1  0  0  0  0
  9  7  1  6  0  0  0
 10  9  1  0  0  0  0
 11 12  1  0  0  0  0
 11 10  2  0  0  0  0
 12 14  1  1  0  0  0
 12 13  1  0  0  0  0
 13 15  1  0  0  0  0
 13 16  1  0  0  0  0
 14 18  2  0  0  0  0
 16 20  2  0  0  0  0
 17 19  1  0  0  0  0
 17 15  2  0  0  0  0
 18 17  1  0  0  0  0
 21 22  2  0  0  0  0
 21 23  2  0  0  0  0
 24 30  1  0  0  0  0
 24 21  1  0  0  0  0
 25 24  2  0  0  0  0
 26 25  1  0  0  0  0
 26 27  2  0  0  0  0
 27 29  1  0  0  0  0
 28 26  1  0  0  0  0
 29 30  2  0  0  0  0
M  END
>  <Pose>
1

>  <Score>
-7.017

$$$$
