MODEL 1
REMARK VINA RESULT:    -7.017      0.000      0.000
REMARK INTER + INTRA:          -9.004
REMARK INTER:                  -8.248
REMARK INTRA:                  -0.756
REMARK UNBOUND:                -0.756
REMARK  3 active torsions:
REMARK  status: ('A' for Active; 'I' for Inactive)
REMARK    1  A    between atoms: S_1  and  N_4 
REMARK    2  A    between atoms: S_1  and  C_24 
REMARK       I    between atoms: N_7  and  C_10 
REMARK    3  A    between atoms: C_10  and  C_12 
ROOT
ATOM      1  N   UNK d   1      -0.019 -13.525 -37.978  0.00  0.00    -0.304 N 
ATOM      2  C   UNK d   1      -1.274 -14.116 -37.709  0.00  0.00     0.155 C 
ATOM      3  C   UNK d   1      -1.274 -15.489 -37.175  0.00  0.00     0.146 C 
ATOM      4  N   UNK d   1      -0.267 -16.305 -37.784  0.00  0.00    -0.345 N 
ATOM      5  C   UNK d   1       0.541 -15.757 -38.836  0.00  0.00     0.146 C 
ATOM      6  C   UNK d   1       0.963 -14.342 -38.593  0.00  0.00     0.155 C 
ATOM      7  C   UNK d   1      -0.063 -17.634 -37.363  0.00  0.00     0.260 C 
ATOM      8  O   UNK d   1      -0.777 -18.094 -36.443  0.00  0.00    -0.267 OA
ENDROOT
BRANCH   7   9
ATOM      9  C   UNK d   1       0.941 -18.520 -37.937  0.00  0.00     0.118 A 
ATOM     10  C   UNK d   1       0.573 -19.450 -38.892  0.00  0.00     0.141 A 
ATOM     11  N   UNK d   1       1.496 -20.266 -39.422  0.00  0.00    -0.242 NA
ATOM     12  C   UNK d   1       2.797 -20.222 -39.060  0.00  0.00     0.136 A 
ATOM     13  N   UNK d   1       3.188 -19.330 -38.134  0.00  0.00    -0.272 N 
ATOM     14  C   UNK d   1       3.732 -21.081 -39.627  0.00  0.00     0.051 A 
ATOM     15  C   UNK d   1       4.499 -19.282 -37.765  0.00  0.00     0.108 A 
ATOM     16  C   UNK d   1       2.274 -18.491 -37.580  0.00  0.00     0.270 A 
ATOM     17  C   UNK d   1       5.443 -20.125 -38.315  0.00  0.00    -0.046 A 
ATOM     18  C   UNK d   1       5.062 -21.053 -39.271  0.00  0.00     0.012 A 
ATOM     19  C   UNK d   1       6.878 -20.103 -37.940  0.00  0.00     0.049 C 
ATOM     20  O   UNK d   1       2.636 -17.668 -36.726  0.00  0.00    -0.266 OA
ENDBRANCH   7   9
BRANCH   1  21
ATOM     21  S   UNK d   1       0.542 -12.398 -36.848  0.00  0.00     0.261 S 
ATOM     22  O   UNK d   1      -0.528 -11.419 -36.512  0.00  0.00    -0.200 OA
ATOM     23  O   UNK d   1       0.929 -13.135 -35.589  0.00  0.00    -0.200 OA
BRANCH  21  24
ATOM     24  C   UNK d   1       1.959 -11.589 -37.461  0.00  0.00     0.081 A 
ATOM     25  C   UNK d   1       1.841 -10.640 -38.455  0.00  0.00     0.044 A 
ATOM     26  C   UNK d   1       3.012 -10.034 -38.898  0.00  0.00     0.012 A 
ATOM     27  C   UNK d   1       4.240 -10.351 -38.380  0.00  0.00     0.019 A 
ATOM     28 Br   UNK d   1       2.915  -8.718 -40.267  0.00  0.00    -0.051 Br
ATOM     29  C   UNK d   1       4.348 -11.307 -37.380  0.00  0.00     0.003 A 
ATOM     30  C   UNK d   1       3.182 -11.929 -36.920  0.00  0.00     0.025 A 
ENDBRANCH  21  24
ENDBRANCH   1  21
TORSDOF 3
ENDMDL
