/Users/jonathanwahrer/Desktop/Msc/3_Semester/Drug_Design_Praktikum/waehrer_HTS_screening/HTS_experiment/out/docking_results/vina_output/6y4q/1073_docked.pdbqt
 OpenBabel03232218063D

 28 31  0  0  0  0  0  0  0  0999 V2000
   -0.3310  -17.9890  -37.6390 N   0  0  0  0  0  0  0  0  0  0  0  0
    0.4550  -17.5530  -38.7210 C   0  0  0  0  0  2  0  0  0  0  0  0
    1.0460  -18.6790  -39.5220 C   0  0  0  0  0  2  0  0  0  0  0  0
    1.1120  -19.9180  -38.8330 N   0  0  0  0  0  0  0  0  0  0  0  0
   -0.1680  -20.3200  -38.3700 C   0  0  0  0  0  2  0  0  0  0  0  0
   -0.9720  -19.2440  -37.7410 C   0  0  0  0  0  2  0  0  0  0  0  0
    2.1940  -19.9650  -37.9220 C   0  0  0  0  0  2  0  0  0  0  0  0
    3.4920  -20.1730  -38.4670 N   0  0  0  0  0  0  0  0  0  0  0  0
    3.6650  -20.9450  -39.5210 N   0  0  0  0  0  0  0  0  0  0  0  0
    4.8520  -21.1970  -40.0920 C   0  0  0  0  0  0  0  0  0  0  0  0
    5.9520  -20.5990  -39.5240 C   0  0  0  0  0  3  0  0  0  0  0  0
    5.8380  -19.7810  -38.4200 C   0  0  0  0  0  3  0  0  0  0  0  0
    4.5620  -19.5870  -37.9070 C   0  0  0  0  0  0  0  0  0  0  0  0
    4.4600  -18.8250  -36.8830 O   0  0  0  0  0  0  0  0  0  0  0  0
    5.0070  -22.0420  -41.2380 N   0  0  0  0  0  0  0  0  0  0  0  0
    6.1030  -22.2590  -41.9730 C   0  0  0  0  0  3  0  0  0  0  0  0
    5.7960  -23.1260  -42.9560 N   0  0  0  0  0  0  0  0  0  0  0  0
    4.4990  -23.4690  -42.8550 C   0  0  0  0  0  3  0  0  0  0  0  0
    4.0150  -22.7760  -41.7650 C   0  0  0  0  0  3  0  0  0  0  0  0
   -1.0070  -16.8570  -36.6280 S   0  0  0  0  0  0  0  0  0  0  0  0
   -2.4280  -16.5540  -36.9680 O   0  0  0  0  0  0  0  0  0  0  0  0
   -0.9400  -17.3130  -35.2060 O   0  0  0  0  0  0  0  0  0  0  0  0
   -0.0990  -15.3370  -36.7660 C   0  0  0  0  0  0  0  0  0  0  0  0
   -0.4480  -13.9570  -37.7060 S   0  0  0  0  0  0  0  0  0  0  0  0
    0.8830  -12.9880  -37.2710 C   0  0  0  0  0  0  0  0  0  0  0  0
    1.5770  -13.7820  -36.3900 C   0  0  0  0  0  3  0  0  0  0  0  0
    1.3310  -11.2190  -37.8530 Br  0  0  0  0  0  0  0  0  0  0  0  0
    1.0620  -14.9950  -36.1340 C   0  0  0  0  0  3  0  0  0  0  0  0
  1 20  1  0  0  0  0
  2  1  1  0  0  0  0
  3  4  1  0  0  0  0
  3  2  1  0  0  0  0
  4  5  1  0  0  0  0
  4  7  1  0  0  0  0
  5  6  1  0  0  0  0
  6  1  1  0  0  0  0
  8  7  1  0  0  0  0
  8 13  1  0  0  0  0
  9  8  1  0  0  0  0
 10 11  1  0  0  0  0
 10  9  2  0  0  0  0
 11 12  2  0  0  0  0
 12 13  1  0  0  0  0
 13 14  2  0  0  0  0
 15 10  1  0  0  0  0
 16 15  1  0  0  0  0
 17 18  1  0  0  0  0
 17 16  2  0  0  0  0
 18 19  2  0  0  0  0
 19 15  1  0  0  0  0
 20 22  2  0  0  0  0
 21 20  2  0  0  0  0
 23 20  1  0  0  0  0
 23 28  2  0  0  0  0
 24 25  1  0  0  0  0
 24 23  1  0  0  0  0
 25 26  2  0  0  0  0
 26 28  1  0  0  0  0
 27 25  1  0  0  0  0
M  END
>  <Pose>
1

>  <Score>
-6.275

$$$$
