MODEL 1
REMARK VINA RESULT:    -6.275      0.000      0.000
REMARK INTER + INTRA:          -8.911
REMARK INTER:                  -8.109
REMARK INTRA:                  -0.803
REMARK UNBOUND:                -0.803
REMARK  5 active torsions:
REMARK  status: ('A' for Active; 'I' for Inactive)
REMARK    1  A    between atoms: S_1  and  N_4 
REMARK    2  A    between atoms: S_1  and  C_23 
REMARK    3  A    between atoms: N_7  and  C_10 
REMARK    4  A    between atoms: C_10  and  N_11 
REMARK    5  A    between atoms: C_13  and  N_18 
ROOT
ATOM      1  N   UNK d   1      -0.331 -17.989 -37.639  0.00  0.00    -0.303 N 
ATOM      2  C   UNK d   1       0.455 -17.553 -38.721  0.00  0.00     0.165 C 
ATOM      3  C   UNK d   1       1.046 -18.679 -39.522  0.00  0.00     0.295 C 
ATOM      4  N   UNK d   1       1.112 -19.918 -38.833  0.00  0.00     0.111 NA
ATOM      5  C   UNK d   1      -0.168 -20.320 -38.370  0.00  0.00     0.295 C 
ATOM      6  C   UNK d   1      -0.972 -19.244 -37.741  0.00  0.00     0.165 C 
ENDROOT
BRANCH   4   7
ATOM      7  C   UNK d   1       2.194 -19.965 -37.922  0.00  0.00     0.426 C 
BRANCH   7   8
ATOM      8  N   UNK d   1       3.492 -20.173 -38.467  0.00  0.00    -0.204 N 
ATOM      9  N   UNK d   1       3.665 -20.945 -39.521  0.00  0.00    -0.149 NA
ATOM     10  C   UNK d   1       4.852 -21.197 -40.092  0.00  0.00     0.155 A 
ATOM     11  C   UNK d   1       5.952 -20.599 -39.524  0.00  0.00     0.058 A 
ATOM     12  C   UNK d   1       5.838 -19.781 -38.420  0.00  0.00     0.080 A 
ATOM     13  C   UNK d   1       4.562 -19.587 -37.907  0.00  0.00     0.265 A 
ATOM     14  O   UNK d   1       4.460 -18.825 -36.883  0.00  0.00    -0.267 OA
BRANCH  10  15
ATOM     15  N   UNK d   1       5.007 -22.042 -41.238  0.00  0.00    -0.298 N 
ATOM     16  C   UNK d   1       6.103 -22.259 -41.973  0.00  0.00     0.215 A 
ATOM     17  N   UNK d   1       5.796 -23.126 -42.956  0.00  0.00    -0.254 NA
ATOM     18  C   UNK d   1       4.499 -23.469 -42.855  0.00  0.00     0.135 A 
ATOM     19  C   UNK d   1       4.015 -22.776 -41.765  0.00  0.00     0.119 A 
ENDBRANCH  10  15
ENDBRANCH   7   8
ENDBRANCH   4   7
BRANCH   1  20
ATOM     20  S   UNK d   1      -1.007 -16.857 -36.628  0.00  0.00     0.267 S 
ATOM     21  O   UNK d   1      -2.428 -16.554 -36.968  0.00  0.00    -0.200 OA
ATOM     22  O   UNK d   1      -0.940 -17.313 -35.206  0.00  0.00    -0.200 OA
BRANCH  20  23
ATOM     23  C   UNK d   1      -0.099 -15.337 -36.766  0.00  0.00     0.121 A 
ATOM     24  S   UNK d   1      -0.448 -13.957 -37.706  0.00  0.00    -0.069 SA
ATOM     25  C   UNK d   1       0.883 -12.988 -37.271  0.00  0.00     0.052 A 
ATOM     26  C   UNK d   1       1.577 -13.782 -36.390  0.00  0.00     0.028 A 
ATOM     27 Br   UNK d   1       1.331 -11.219 -37.853  0.00  0.00    -0.043 Br
ATOM     28  C   UNK d   1       1.062 -14.995 -36.134  0.00  0.00     0.035 A 
ENDBRANCH  20  23
ENDBRANCH   1  20
TORSDOF 5
ENDMDL
