MODEL 1
REMARK VINA RESULT:    -6.243      0.000      0.000
REMARK INTER + INTRA:          -8.641
REMARK INTER:                  -7.703
REMARK INTRA:                  -0.938
REMARK UNBOUND:                -0.938
REMARK  4 active torsions:
REMARK  status: ('A' for Active; 'I' for Inactive)
REMARK    1  A    between atoms: S_1  and  N_4 
REMARK    2  A    between atoms: S_1  and  C_21 
REMARK    3  A    between atoms: N_7  and  C_10 
REMARK    4  A    between atoms: N_11  and  C_15 
ROOT
ATOM      1  N   UNK d   1       0.308 -17.237 -37.144  0.00  0.00    -0.304 N 
ATOM      2  C   UNK d   1       1.676 -17.245 -36.793  0.00  0.00     0.155 C 
ATOM      3  C   UNK d   1       2.637 -17.739 -37.823  0.00  0.00     0.162 C 
ATOM      4  N   UNK d   1       2.027 -18.146 -39.065  0.00  0.00    -0.209 N 
ATOM      5  C   UNK d   1       0.739 -18.759 -39.045  0.00  0.00     0.162 C 
ATOM      6  C   UNK d   1      -0.178 -18.268 -37.980  0.00  0.00     0.155 C 
ENDROOT
BRANCH   4   7
ATOM      7  C   UNK d   1       2.770 -17.914 -40.270  0.00  0.00     0.747 A 
ATOM      8  N   UNK d   1       3.870 -18.583 -40.657  0.00  0.00    -0.041 N 
ATOM      9  N   UNK d   1       4.230 -18.027 -41.820  0.00  0.00    -0.025 NA
ATOM     10  N   UNK d   1       3.391 -17.063 -42.131  0.00  0.00    -0.007 NA
ATOM     11  N   UNK d   1       2.472 -16.962 -41.194  0.00  0.00     0.065 NA
BRANCH   8  12
ATOM     12  C   UNK d   1       4.500 -19.658 -39.976  0.00  0.00     0.078 A 
ATOM     13  C   UNK d   1       3.994 -20.936 -40.032  0.00  0.00     0.032 A 
ATOM     14  C   UNK d   1       4.636 -21.970 -39.352  0.00  0.00     0.002 A 
ATOM     15  C   UNK d   1       5.779 -21.742 -38.618  0.00  0.00     0.000 A 
ATOM     16  C   UNK d   1       6.295 -20.441 -38.561  0.00  0.00     0.002 A 
ATOM     17  C   UNK d   1       5.638 -19.419 -39.247  0.00  0.00     0.032 A 
ENDBRANCH   8  12
ENDBRANCH   4   7
BRANCH   1  18
ATOM     18  S   UNK d   1      -0.425 -15.718 -37.362  0.00  0.00     0.260 S 
ATOM     19  O   UNK d   1      -1.454 -15.371 -36.362  0.00  0.00    -0.200 OA
ATOM     20  O   UNK d   1      -1.128 -15.734 -38.714  0.00  0.00    -0.200 OA
BRANCH  18  21
ATOM     21  C   UNK d   1       0.796 -14.478 -37.441  0.00  0.00     0.079 A 
ATOM     22  C   UNK d   1       1.515 -14.208 -38.578  0.00  0.00     0.026 A 
ATOM     23  C   UNK d   1       2.488 -13.210 -38.628  0.00  0.00     0.020 A 
ATOM     24  C   UNK d   1       2.728 -12.466 -37.469  0.00  0.00     0.011 A 
ATOM     25  C   UNK d   1       2.012 -12.728 -36.322  0.00  0.00     0.020 A 
ATOM     26 Br   UNK d   1       4.047 -11.079 -37.466  0.00  0.00    -0.051 Br
ATOM     27  C   UNK d   1       1.067 -13.715 -36.314  0.00  0.00     0.026 A 
ENDBRANCH  18  21
ENDBRANCH   1  18
TORSDOF 4
ENDMDL
