MODEL 1
REMARK VINA RESULT:    -7.285      0.000      0.000
REMARK INTER + INTRA:          -9.779
REMARK INTER:                  -8.989
REMARK INTRA:                  -0.791
REMARK UNBOUND:                -0.791
REMARK  4 active torsions:
REMARK  status: ('A' for Active; 'I' for Inactive)
REMARK    1  A    between atoms: S_1  and  N_4 
REMARK    2  A    between atoms: S_1  and  C_23 
REMARK    3  A    between atoms: N_7  and  C_10 
REMARK    4  A    between atoms: C_12  and  N_17 
ROOT
ATOM      1  N   UNK d   1       1.779 -17.245 -38.381  0.00  0.00    -0.203 NA
ATOM      2  C   UNK d   1       1.048 -18.311 -38.979  0.00  0.00     0.128 C 
ATOM      3  C   UNK d   1       1.450 -19.678 -38.467  0.00  0.00     0.157 C 
ATOM      4  N   UNK d   1       2.811 -19.590 -38.023  0.00  0.00    -0.212 N 
ATOM      5  C   UNK d   1       3.122 -18.712 -36.934  0.00  0.00     0.157 C 
ATOM      6  C   UNK d   1       2.218 -17.508 -37.032  0.00  0.00     0.128 C 
ENDROOT
BRANCH   4   7
ATOM      7  C   UNK d   1       3.808 -20.355 -38.649  0.00  0.00     0.726 A 
ATOM      8  N   UNK d   1       3.593 -21.036 -39.787  0.00  0.00    -0.045 NA
ATOM      9  C   UNK d   1       4.488 -21.773 -40.422  0.00  0.00     0.146 A 
ATOM     10  C   UNK d   1       5.758 -21.851 -39.876  0.00  0.00     0.078 A 
ATOM     11  C   UNK d   1       6.028 -21.170 -38.710  0.00  0.00     0.053 A 
ATOM     12  N   UNK d   1       5.056 -20.443 -38.128  0.00  0.00    -0.068 NA
ATOM     13  C   UNK d   1       7.379 -21.230 -38.091  0.00  0.00     0.071 C 
BRANCH   9  14
ATOM     14  N   UNK d   1       4.134 -22.444 -41.617  0.00  0.00    -0.361 N 
ATOM     15  C   UNK d   1       5.102 -22.974 -42.556  0.00  0.00     0.150 C 
ATOM     16  C   UNK d   1       4.384 -24.074 -43.335  0.00  0.00     0.187 C 
ATOM     17  O   UNK d   1       3.628 -24.800 -42.411  0.00  0.00    -0.388 OA
ATOM     18  C   UNK d   1       2.500 -24.134 -41.989  0.00  0.00     0.187 C 
ATOM     19  C   UNK d   1       2.735 -22.621 -41.933  0.00  0.00     0.150 C 
ENDBRANCH   9  14
ENDBRANCH   4   7
BRANCH   1  20
ATOM     20  S   UNK d   1       0.749 -15.856 -38.317  0.00  0.00     0.243 S 
ATOM     21  O   UNK d   1      -0.023 -15.791 -39.625  0.00  0.00    -0.206 OA
ATOM     22  O   UNK d   1      -0.242 -16.031 -37.203  0.00  0.00    -0.206 OA
BRANCH  20  23
ATOM     23  C   UNK d   1       1.667 -14.388 -38.140  0.00  0.00     0.074 A 
ATOM     24  C   UNK d   1       1.663 -13.745 -36.910  0.00  0.00     0.026 A 
ATOM     25  C   UNK d   1       2.365 -12.579 -36.697  0.00  0.00     0.020 A 
ATOM     26  C   UNK d   1       3.092 -12.026 -37.722  0.00  0.00     0.011 A 
ATOM     27  C   UNK d   1       3.121 -12.636 -38.962  0.00  0.00     0.020 A 
ATOM     28 Br   UNK d   1       4.058 -10.413 -37.409  0.00  0.00    -0.051 Br
ATOM     29  C   UNK d   1       2.401 -13.813 -39.145  0.00  0.00     0.026 A 
ENDBRANCH  20  23
ENDBRANCH   1  20
TORSDOF 4
ENDMDL
