MODEL 1
REMARK VINA RESULT:    -6.159      0.000      0.000
REMARK INTER + INTRA:          -8.021
REMARK INTER:                  -7.239
REMARK INTRA:                  -0.782
REMARK UNBOUND:                -0.782
REMARK  3 active torsions:
REMARK  status: ('A' for Active; 'I' for Inactive)
REMARK    1  A    between atoms: S_1  and  N_4 
REMARK    2  A    between atoms: S_1  and  C_19 
REMARK    3  A    between atoms: N_7  and  C_10 
ROOT
ATOM      1  N   UNK d   1       1.120 -17.373 -37.476  0.00  0.00    -0.303 N 
ATOM      2  C   UNK d   1       2.171 -17.470 -36.538  0.00  0.00     0.155 C 
ATOM      3  C   UNK d   1       3.161 -18.585 -36.766  0.00  0.00     0.145 C 
ATOM      4  N   UNK d   1       2.811 -19.425 -37.868  0.00  0.00    -0.361 N 
ATOM      5  C   UNK d   1       1.442 -19.642 -38.303  0.00  0.00     0.145 C 
ATOM      6  C   UNK d   1       0.505 -18.615 -37.739  0.00  0.00     0.155 C 
ENDROOT
BRANCH   4   7
ATOM      7  C   UNK d   1       3.828 -20.095 -38.600  0.00  0.00     0.158 A 
ATOM      8  N   UNK d   1       4.381 -21.237 -38.094  0.00  0.00    -0.222 NA
ATOM      9  C   UNK d   1       5.330 -21.886 -38.769  0.00  0.00     0.237 A 
ATOM     10  N   UNK d   1       5.779 -21.459 -39.948  0.00  0.00    -0.220 NA
ATOM     11  C   UNK d   1       5.254 -20.348 -40.459  0.00  0.00     0.182 A 
ATOM     12  N   UNK d   1       5.504 -19.693 -41.597  0.00  0.00    -0.222 NA
ATOM     13  C   UNK d   1       4.258 -19.616 -39.809  0.00  0.00     0.128 A 
ATOM     14  C   UNK d   1       4.694 -18.598 -41.650  0.00  0.00     0.210 A 
ATOM     15  N   UNK d   1       3.933 -18.552 -40.557  0.00  0.00    -0.345 N 
ATOM     16  H   UNK d   1       3.231 -17.818 -40.349  0.00  0.00     0.167 HD
ENDBRANCH   4   7
BRANCH   1  17
ATOM     17  S   UNK d   1       1.216 -16.240 -38.700  0.00  0.00     0.267 S 
ATOM     18  O   UNK d   1      -0.178 -16.035 -39.283  0.00  0.00    -0.200 OA
ATOM     19  O   UNK d   1       2.084 -16.657 -39.830  0.00  0.00    -0.200 OA
BRANCH  17  20
ATOM     20  C   UNK d   1       1.739 -14.634 -38.185  0.00  0.00     0.121 A 
ATOM     21  S   UNK d   1       2.530 -13.416 -39.078  0.00  0.00    -0.069 SA
ATOM     22  C   UNK d   1       2.664 -12.224 -37.870  0.00  0.00     0.052 A 
ATOM     23  C   UNK d   1       2.075 -12.821 -36.782  0.00  0.00     0.028 A 
ATOM     24 Br   UNK d   1       3.436 -10.481 -37.976  0.00  0.00    -0.043 Br
ATOM     25  C   UNK d   1       1.601 -14.061 -36.952  0.00  0.00     0.035 A 
ENDBRANCH  17  20
ENDBRANCH   1  17
TORSDOF 3
ENDMDL
