/Users/jonathanwahrer/Desktop/Msc/3_Semester/Drug_Design_Praktikum/waehrer_HTS_screening/HTS_experiment/out/docking_results/vina_output/6y4q/1089_docked.pdbqt
 OpenBabel03232218073D

 25 28  0  0  0  0  0  0  0  0999 V2000
    1.1200  -17.3730  -37.4760 N   0  0  0  0  0  0  0  0  0  0  0  0
    2.1710  -17.4700  -36.5380 C   0  0  0  0  0  2  0  0  0  0  0  0
    3.1610  -18.5850  -36.7660 C   0  0  0  0  0  2  0  0  0  0  0  0
    2.8110  -19.4250  -37.8680 N   0  0  0  0  0  0  0  0  0  0  0  0
    1.4420  -19.6420  -38.3030 C   0  0  0  0  0  2  0  0  0  0  0  0
    0.5050  -18.6150  -37.7390 C   0  0  0  0  0  2  0  0  0  0  0  0
    3.8280  -20.0950  -38.6000 C   0  0  0  0  0  0  0  0  0  0  0  0
    4.3810  -21.2370  -38.0940 N   0  0  0  0  0  0  0  0  0  0  0  0
    5.3300  -21.8860  -38.7690 C   0  0  0  0  0  3  0  0  0  0  0  0
    5.7790  -21.4590  -39.9480 N   0  0  0  0  0  0  0  0  0  0  0  0
    5.2540  -20.3480  -40.4590 C   0  0  0  0  0  0  0  0  0  0  0  0
    5.5040  -19.6930  -41.5970 N   0  0  0  0  0  0  0  0  0  0  0  0
    4.2580  -19.6160  -39.8090 C   0  0  0  0  0  0  0  0  0  0  0  0
    4.6940  -18.5980  -41.6500 C   0  0  0  0  0  3  0  0  0  0  0  0
    3.9330  -18.5520  -40.5570 N   0  0  0  0  0  0  0  0  0  0  0  0
    3.2310  -17.8180  -40.3490 H   0  0  0  0  0  0  0  0  0  0  0  0
    1.2160  -16.2400  -38.7000 S   0  0  0  0  0  0  0  0  0  0  0  0
   -0.1780  -16.0350  -39.2830 O   0  0  0  0  0  0  0  0  0  0  0  0
    2.0840  -16.6570  -39.8300 O   0  0  0  0  0  0  0  0  0  0  0  0
    1.7390  -14.6340  -38.1850 C   0  0  0  0  0  0  0  0  0  0  0  0
    2.5300  -13.4160  -39.0780 S   0  0  0  0  0  0  0  0  0  0  0  0
    2.6640  -12.2240  -37.8700 C   0  0  0  0  0  0  0  0  0  0  0  0
    2.0750  -12.8210  -36.7820 C   0  0  0  0  0  3  0  0  0  0  0  0
    3.4360  -10.4810  -37.9760 Br  0  0  0  0  0  0  0  0  0  0  0  0
    1.6010  -14.0610  -36.9520 C   0  0  0  0  0  3  0  0  0  0  0  0
  1  2  1  0  0  0  0
  3  2  1  0  0  0  0
  4  3  1  0  0  0  0
  5  4  1  0  0  0  0
  5  6  1  0  0  0  0
  6  1  1  0  0  0  0
  7  8  1  0  0  0  0
  7  4  1  0  0  0  0
  9  8  2  0  0  0  0
 10  9  1  0  0  0  0
 11 10  2  0  0  0  0
 11 13  1  0  0  0  0
 12 11  1  0  0  0  0
 13  7  2  0  0  0  0
 14 12  2  0  0  0  0
 14 15  1  0  0  0  0
 15 16  1  0  0  0  0
 15 13  1  0  0  0  0
 17 20  1  0  0  0  0
 17  1  1  0  0  0  0
 18 17  2  0  0  0  0
 19 17  2  0  0  0  0
 20 25  2  0  0  0  0
 21 20  1  0  0  0  0
 21 22  1  0  0  0  0
 22 23  2  0  0  0  0
 24 22  1  0  0  0  0
 25 23  1  0  0  0  0
M  END
>  <Pose>
1

>  <Score>
-6.159

$$$$
