MODEL 1
REMARK VINA RESULT:    -6.281      0.000      0.000
REMARK INTER + INTRA:          -7.975
REMARK INTER:                  -7.383
REMARK INTRA:                  -0.592
REMARK UNBOUND:                -0.592
REMARK  3 active torsions:
REMARK  status: ('A' for Active; 'I' for Inactive)
REMARK    1  A    between atoms: S_1  and  N_4 
REMARK    2  A    between atoms: S_1  and  C_20 
REMARK    3  A    between atoms: N_7  and  C_10 
ROOT
ATOM      1  N   UNK d   1       1.403 -17.127 -38.278  0.00  0.00    -0.203 NA
ATOM      2  C   UNK d   1       1.203 -18.297 -37.490  0.00  0.00     0.127 C 
ATOM      3  C   UNK d   1       0.975 -19.539 -38.326  0.00  0.00     0.140 C 
ATOM      4  N   UNK d   1       1.777 -19.408 -39.515  0.00  0.00    -0.363 N 
ATOM      5  C   UNK d   1       1.391 -18.356 -40.421  0.00  0.00     0.140 C 
ATOM      6  C   UNK d   1       0.954 -17.177 -39.628  0.00  0.00     0.127 C 
ENDROOT
BRANCH   4   7
ATOM      7  C   UNK d   1       2.881 -20.242 -39.805  0.00  0.00     0.148 A 
ATOM      8  C   UNK d   1       2.814 -21.222 -40.707  0.00  0.00     0.080 A 
ATOM      9  C   UNK d   1       3.923 -22.098 -41.034  0.00  0.00     0.043 A 
ATOM     10  C   UNK d   1       3.799 -23.055 -41.939  0.00  0.00     0.043 C 
ATOM     11  N   UNK d   1       5.152 -21.913 -40.363  0.00  0.00    -0.189 N 
ATOM     12  C   UNK d   1       5.188 -20.850 -39.399  0.00  0.00     0.730 A 
ATOM     13  H   UNK d   1       5.996 -22.480 -40.521  0.00  0.00     0.184 HD
ATOM     14  N   UNK d   1       4.132 -20.066 -39.133  0.00  0.00    -0.044 N 
ATOM     15  N   UNK d   1       6.185 -20.408 -38.593  0.00  0.00    -0.054 NA
ATOM     16  N   UNK d   1       4.474 -19.175 -38.199  0.00  0.00    -0.143 NA
ATOM     17  C   UNK d   1       5.757 -19.374 -37.849  0.00  0.00     0.275 A 
ENDBRANCH   4   7
BRANCH   1  18
ATOM     18  S   UNK d   1       0.844 -15.754 -37.448  0.00  0.00     0.250 S 
ATOM     19  O   UNK d   1       0.747 -15.969 -35.960  0.00  0.00    -0.205 OA
ATOM     20  O   UNK d   1      -0.573 -15.469 -37.924  0.00  0.00    -0.205 OA
BRANCH  18  21
ATOM     21  C   UNK d   1       1.785 -14.310 -37.817  0.00  0.00     0.116 A 
ATOM     22  S   UNK d   1       2.194 -13.063 -36.738  0.00  0.00    -0.070 SA
ATOM     23  C   UNK d   1       3.076 -12.061 -37.793  0.00  0.00     0.052 A 
ATOM     24  C   UNK d   1       3.028 -12.738 -38.983  0.00  0.00     0.028 A 
ATOM     25 Br   UNK d   1       3.949 -10.375 -37.442  0.00  0.00    -0.043 Br
ATOM     26  C   UNK d   1       2.353 -13.912 -38.992  0.00  0.00     0.034 A 
ENDBRANCH  18  21
ENDBRANCH   1  18
TORSDOF 3
ENDMDL
