/Users/jonathanwahrer/Desktop/Msc/3_Semester/Drug_Design_Praktikum/waehrer_HTS_screening/HTS_experiment/out/docking_results/vina_output/6y4q/1101_docked.pdbqt
 OpenBabel03232218073D

 26 29  0  0  0  0  0  0  0  0999 V2000
   -2.5300  -18.8970  -37.9970 N   0  0  0  0  0  0  0  0  0  0  0  0
   -2.0580  -18.5450  -39.2820 C   0  0  0  0  0  2  0  0  0  0  0  0
   -0.5800  -18.4630  -39.4390 C   0  0  0  0  0  2  0  0  0  0  0  0
    0.0970  -19.5690  -38.7440 N   0  0  0  0  0  0  0  0  0  0  0  0
   -0.7880  -20.6030  -38.2520 C   0  0  0  0  0  2  0  0  0  0  0  0
   -1.7750  -19.9180  -37.3250 C   0  0  0  0  0  2  0  0  0  0  0  0
   -2.9550  -17.5970  -36.9850 S   0  0  0  0  0  0  0  0  0  0  0  0
   -3.1940  -18.1660  -35.5910 O   0  0  0  0  0  0  0  0  0  0  0  0
   -4.2580  -16.9910  -37.4140 O   0  0  0  0  0  0  0  0  0  0  0  0
   -1.6940  -16.4050  -36.8210 C   0  0  0  0  0  0  0  0  0  0  0  0
   -1.8330  -15.1200  -37.3260 C   0  0  0  0  0  3  0  0  0  0  0  0
   -0.8360  -14.1790  -37.1970 C   0  0  0  0  0  3  0  0  0  0  0  0
    0.3330  -14.5340  -36.5430 C   0  0  0  0  0  0  0  0  0  0  0  0
    0.5190  -15.8000  -36.0210 C   0  0  0  0  0  3  0  0  0  0  0  0
    1.7100  -13.2130  -36.3710 Br  0  0  0  0  0  0  0  0  0  0  0  0
   -0.5020  -16.7090  -36.1730 C   0  0  0  0  0  3  0  0  0  0  0  0
    1.5030  -19.5800  -38.5950 C   0  0  0  0  0  0  0  0  0  0  0  0
    2.2520  -20.4420  -39.3860 C   0  0  0  0  0  3  0  0  0  0  0  0
    3.6370  -20.4440  -39.2300 C   0  0  0  0  0  0  0  0  0  0  0  0
    4.2400  -19.6500  -38.3540 N   0  0  0  0  0  0  0  0  0  0  0  0
    4.5650  -21.1770  -39.8690 N   0  0  0  0  0  0  0  0  0  0  0  0
    5.5590  -19.8820  -38.4400 C   0  0  0  0  0  0  0  0  0  0  0  0
    3.5490  -18.8360  -37.6060 N   0  0  0  0  0  0  0  0  0  0  0  0
    5.7430  -20.8280  -39.3810 N   0  0  0  0  0  0  0  0  0  0  0  0
    6.6370  -19.2150  -37.6400 C   0  0  0  0  0  1  0  0  0  0  0  0
    2.1960  -18.7950  -37.7180 C   0  0  0  0  0  3  0  0  0  0  0  0
  1  6  1  0  0  0  0
  1  7  1  0  0  0  0
  2  1  1  0  0  0  0
  3  2  1  0  0  0  0
  3  4  1  0  0  0  0
  4 17  1  0  0  0  0
  4  5  1  0  0  0  0
  5  6  1  0  0  0  0
  7 10  1  0  0  0  0
  7  8  2  0  0  0  0
  9  7  2  0  0  0  0
 10 16  1  0  0  0  0
 11 12  1  0  0  0  0
 11 10  2  0  0  0  0
 12 13  2  0  0  0  0
 13 15  1  0  0  0  0
 13 14  1  0  0  0  0
 16 14  2  0  0  0  0
 17 26  1  0  0  0  0
 18 19  1  0  0  0  0
 18 17  2  0  0  0  0
 19 20  1  0  0  0  0
 20 23  1  0  0  0  0
 21 24  1  0  0  0  0
 21 19  2  0  0  0  0
 22 20  1  0  0  0  0
 22 25  1  0  0  0  0
 24 22  2  0  0  0  0
 26 23  2  0  0  0  0
M  END
>  <Pose>
1

>  <Score>
-6.580

$$$$
