MODEL 1
REMARK VINA RESULT:    -6.580      0.000      0.000
REMARK INTER + INTRA:          -8.542
REMARK INTER:                  -7.734
REMARK INTRA:                  -0.808
REMARK UNBOUND:                -0.808
REMARK  3 active torsions:
REMARK  status: ('A' for Active; 'I' for Inactive)
REMARK    1  A    between atoms: S_1  and  N_4 
REMARK    2  A    between atoms: S_1  and  C_20 
REMARK    3  A    between atoms: N_7  and  C_10 
ROOT
ATOM      1  N   UNK d   1      -2.530 -18.897 -37.997  0.00  0.00    -0.203 NA
ATOM      2  C   UNK d   1      -2.058 -18.545 -39.282  0.00  0.00     0.127 C 
ATOM      3  C   UNK d   1      -0.580 -18.463 -39.439  0.00  0.00     0.138 C 
ATOM      4  N   UNK d   1       0.097 -19.569 -38.744  0.00  0.00    -0.377 N 
ATOM      5  C   UNK d   1      -0.788 -20.603 -38.252  0.00  0.00     0.138 C 
ATOM      6  C   UNK d   1      -1.775 -19.918 -37.325  0.00  0.00     0.127 C 
ENDROOT
BRANCH   1   7
ATOM      7  S   UNK d   1      -2.955 -17.597 -36.985  0.00  0.00     0.243 S 
ATOM      8  O   UNK d   1      -3.194 -18.166 -35.591  0.00  0.00    -0.206 OA
ATOM      9  O   UNK d   1      -4.258 -16.991 -37.414  0.00  0.00    -0.206 OA
BRANCH   7  10
ATOM     10  C   UNK d   1      -1.694 -16.405 -36.821  0.00  0.00     0.074 A 
ATOM     11  C   UNK d   1      -1.833 -15.120 -37.326  0.00  0.00     0.026 A 
ATOM     12  C   UNK d   1      -0.836 -14.179 -37.197  0.00  0.00     0.020 A 
ATOM     13  C   UNK d   1       0.333 -14.534 -36.543  0.00  0.00     0.011 A 
ATOM     14  C   UNK d   1       0.519 -15.800 -36.021  0.00  0.00     0.020 A 
ATOM     15 Br   UNK d   1       1.710 -13.213 -36.371  0.00  0.00    -0.051 Br
ATOM     16  C   UNK d   1      -0.502 -16.709 -36.173  0.00  0.00     0.026 A 
ENDBRANCH   7  10
ENDBRANCH   1   7
BRANCH   4  17
ATOM     17  C   UNK d   1       1.503 -19.580 -38.595  0.00  0.00     0.053 A 
ATOM     18  C   UNK d   1       2.252 -20.442 -39.386  0.00  0.00     0.085 A 
ATOM     19  C   UNK d   1       3.637 -20.444 -39.230  0.00  0.00     0.176 A 
ATOM     20  N   UNK d   1       4.240 -19.650 -38.354  0.00  0.00    -0.198 N 
ATOM     21  N   UNK d   1       4.565 -21.177 -39.869  0.00  0.00    -0.128 NA
ATOM     22  C   UNK d   1       5.559 -19.882 -38.440  0.00  0.00     0.148 A 
ATOM     23  N   UNK d   1       3.549 -18.836 -37.606  0.00  0.00    -0.174 NA
ATOM     24  N   UNK d   1       5.743 -20.828 -39.381  0.00  0.00    -0.133 NA
ATOM     25  C   UNK d   1       6.637 -19.215 -37.640  0.00  0.00     0.095 C 
ATOM     26  C   UNK d   1       2.196 -18.795 -37.718  0.00  0.00     0.168 A 
ENDBRANCH   4  17
TORSDOF 3
ENDMDL
