MODEL 1
REMARK VINA RESULT:    -7.146      0.000      0.000
REMARK INTER + INTRA:          -9.937
REMARK INTER:                  -9.235
REMARK INTRA:                  -0.703
REMARK UNBOUND:                -0.703
REMARK  5 active torsions:
REMARK  status: ('A' for Active; 'I' for Inactive)
REMARK    1  A    between atoms: S_1  and  N_4 
REMARK    2  A    between atoms: S_1  and  C_26 
REMARK    3  A    between atoms: C_10  and  C_11 
REMARK    4  A    between atoms: C_11  and  C_12 
REMARK       I    between atoms: C_12  and  N_14 
REMARK    5  A    between atoms: N_17  and  C_20 
ROOT
ATOM      1  N   UNK d   1       0.208 -13.274 -38.493  0.00  0.00    -0.191 NA
ATOM      2  C   UNK d   1      -0.303 -12.326 -39.425  0.00  0.00     0.128 C 
ATOM      3  C   UNK d   1      -1.808 -12.183 -39.422  0.00  0.00     0.138 C 
ATOM      4  N   UNK d   1      -2.318 -12.097 -38.052  0.00  0.00    -0.358 N 
ATOM      5  C   UNK d   1      -1.760 -13.103 -37.176  0.00  0.00     0.237 C 
ATOM      6  O   UNK d   1      -2.035 -13.164 -35.975  0.00  0.00    -0.272 OA
ATOM      7  C   UNK d   1      -0.829 -14.033 -37.897  0.00  0.00     0.175 C 
ATOM      8  H   UNK d   1      -2.996 -11.415 -37.714  0.00  0.00     0.162 HD
ENDROOT
BRANCH   7   9
ATOM      9  C   UNK d   1      -0.445 -15.206 -37.086  0.00  0.00     0.133 C 
BRANCH   9  10
ATOM     10  C   UNK d   1      -0.227 -16.374 -37.973  0.00  0.00     0.221 C 
ATOM     11  O   UNK d   1      -1.141 -16.630 -38.802  0.00  0.00    -0.273 OA
ATOM     12  N   UNK d   1       0.956 -17.171 -37.896  0.00  0.00    -0.349 N 
ATOM     13  C   UNK d   1       1.991 -16.868 -36.946  0.00  0.00     0.145 C 
ATOM     14  C   UNK d   1       1.101 -18.290 -38.790  0.00  0.00     0.145 C 
ATOM     15  C   UNK d   1       2.764 -18.062 -36.480  0.00  0.00     0.143 C 
ATOM     16  N   UNK d   1       2.885 -19.112 -37.477  0.00  0.00    -0.378 N 
ATOM     17  C   UNK d   1       1.624 -19.519 -38.077  0.00  0.00     0.143 C 
BRANCH  16  18
ATOM     18  C   UNK d   1       4.080 -19.735 -37.862  0.00  0.00     0.030 A 
ATOM     19  C   UNK d   1       5.281 -19.108 -37.611  0.00  0.00     0.029 A 
ATOM     20  C   UNK d   1       6.461 -19.720 -38.005  0.00  0.00     0.002 A 
ATOM     21  C   UNK d   1       6.489 -20.935 -38.643  0.00  0.00     0.000 A 
ATOM     22  C   UNK d   1       5.288 -21.557 -38.892  0.00  0.00     0.002 A 
ATOM     23  C   UNK d   1       4.103 -20.951 -38.500  0.00  0.00     0.029 A 
ENDBRANCH  16  18
ENDBRANCH   9  10
ENDBRANCH   7   9
BRANCH   1  24
ATOM     24  S   UNK d   1       1.287 -12.514 -37.422  0.00  0.00     0.244 S 
ATOM     25  O   UNK d   1       1.726 -13.374 -36.280  0.00  0.00    -0.206 OA
ATOM     26  O   UNK d   1       0.647 -11.279 -36.799  0.00  0.00    -0.206 OA
BRANCH  24  27
ATOM     27  C   UNK d   1       2.721 -11.933 -38.251  0.00  0.00     0.074 A 
ATOM     28  C   UNK d   1       3.521 -10.921 -37.735  0.00  0.00     0.026 A 
ATOM     29  C   UNK d   1       4.639 -10.450 -38.364  0.00  0.00     0.020 A 
ATOM     30  C   UNK d   1       5.024 -10.978 -39.569  0.00  0.00     0.011 A 
ATOM     31  C   UNK d   1       4.242 -12.001 -40.119  0.00  0.00     0.020 A 
ATOM     32 Br   UNK d   1       6.571 -10.366 -40.492  0.00  0.00    -0.051 Br
ATOM     33  C   UNK d   1       3.124 -12.450 -39.459  0.00  0.00     0.026 A 
ENDBRANCH  24  27
ENDBRANCH   1  24
TORSDOF 5
ENDMDL
