/Users/jonathanwahrer/Desktop/Msc/3_Semester/Drug_Design_Praktikum/waehrer_HTS_screening/HTS_experiment/out/docking_results/vina_output/6y4q/1105_docked.pdbqt
 OpenBabel03232218083D

 33 36  0  0  1  0  0  0  0  0999 V2000
    0.2080  -13.2740  -38.4930 N   0  0  0  0  0  0  0  0  0  0  0  0
   -0.3030  -12.3260  -39.4250 C   0  0  0  0  0  2  0  0  0  0  0  0
   -1.8080  -12.1830  -39.4220 C   0  0  0  0  0  2  0  0  0  0  0  0
   -2.3180  -12.0970  -38.0520 N   0  0  0  0  0  0  0  0  0  0  0  0
   -1.7600  -13.1030  -37.1760 C   0  0  0  0  0  0  0  0  0  0  0  0
   -2.0350  -13.1640  -35.9750 O   0  0  0  0  0  0  0  0  0  0  0  0
   -0.8290  -14.0330  -37.8970 C   0  0  2  0  0  3  0  0  0  0  0  0
   -2.9960  -11.4150  -37.7140 H   0  0  0  0  0  0  0  0  0  0  0  0
   -0.4450  -15.2060  -37.0860 C   0  0  0  0  0  2  0  0  0  0  0  0
   -0.2270  -16.3740  -37.9730 C   0  0  0  0  0  0  0  0  0  0  0  0
   -1.1410  -16.6300  -38.8020 O   0  0  0  0  0  0  0  0  0  0  0  0
    0.9560  -17.1710  -37.8960 N   0  0  0  0  0  0  0  0  0  0  0  0
    1.9910  -16.8680  -36.9460 C   0  0  0  0  0  2  0  0  0  0  0  0
    1.1010  -18.2900  -38.7900 C   0  0  0  0  0  2  0  0  0  0  0  0
    2.7640  -18.0620  -36.4800 C   0  0  0  0  0  2  0  0  0  0  0  0
    2.8850  -19.1120  -37.4770 N   0  0  0  0  0  0  0  0  0  0  0  0
    1.6240  -19.5190  -38.0770 C   0  0  0  0  0  2  0  0  0  0  0  0
    4.0800  -19.7350  -37.8620 C   0  0  0  0  0  0  0  0  0  0  0  0
    5.2810  -19.1080  -37.6110 C   0  0  0  0  0  3  0  0  0  0  0  0
    6.4610  -19.7200  -38.0050 C   0  0  0  0  0  3  0  0  0  0  0  0
    6.4890  -20.9350  -38.6430 C   0  0  0  0  0  3  0  0  0  0  0  0
    5.2880  -21.5570  -38.8920 C   0  0  0  0  0  3  0  0  0  0  0  0
    4.1030  -20.9510  -38.5000 C   0  0  0  0  0  3  0  0  0  0  0  0
    1.2870  -12.5140  -37.4220 S   0  0  0  0  0  0  0  0  0  0  0  0
    1.7260  -13.3740  -36.2800 O   0  0  0  0  0  0  0  0  0  0  0  0
    0.6470  -11.2790  -36.7990 O   0  0  0  0  0  0  0  0  0  0  0  0
    2.7210  -11.9330  -38.2510 C   0  0  0  0  0  0  0  0  0  0  0  0
    3.5210  -10.9210  -37.7350 C   0  0  0  0  0  3  0  0  0  0  0  0
    4.6390  -10.4500  -38.3640 C   0  0  0  0  0  3  0  0  0  0  0  0
    5.0240  -10.9780  -39.5690 C   0  0  0  0  0  0  0  0  0  0  0  0
    4.2420  -12.0010  -40.1190 C   0  0  0  0  0  3  0  0  0  0  0  0
    6.5710  -10.3660  -40.4920 Br  0  0  0  0  0  0  0  0  0  0  0  0
    3.1240  -12.4500  -39.4590 C   0  0  0  0  0  3  0  0  0  0  0  0
  1  7  1  0  0  0  0
  1 24  1  0  0  0  0
  2  3  1  0  0  0  0
  2  1  1  0  0  0  0
  3  4  1  0  0  0  0
  4  8  1  0  0  0  0
  4  5  1  0  0  0  0
  5  6  2  0  0  0  0
  7  5  1  0  0  0  0
  7  9  1  1  0  0  0
 10 12  1  0  0  0  0
 10  9  1  0  0  0  0
 11 10  2  0  0  0  0
 12 13  1  0  0  0  0
 13 15  1  0  0  0  0
 14 17  1  0  0  0  0
 14 12  1  0  0  0  0
 16 15  1  0  0  0  0
 17 16  1  0  0  0  0
 18 19  1  0  0  0  0
 18 16  1  0  0  0  0
 20 19  2  0  0  0  0
 21 20  1  0  0  0  0
 22 21  2  0  0  0  0
 22 23  1  0  0  0  0
 23 18  2  0  0  0  0
 24 26  2  0  0  0  0
 24 25  2  0  0  0  0
 27 28  1  0  0  0  0
 27 24  1  0  0  0  0
 29 28  2  0  0  0  0
 30 29  1  0  0  0  0
 31 30  2  0  0  0  0
 31 33  1  0  0  0  0
 32 30  1  0  0  0  0
 33 27  2  0  0  0  0
M  END
>  <Pose>
1

>  <Score>
-7.146

$$$$
