MODEL 1
REMARK VINA RESULT:    -7.162      0.000      0.000
REMARK INTER + INTRA:         -11.147
REMARK INTER:                 -10.093
REMARK INTRA:                  -1.054
REMARK UNBOUND:                -1.054
REMARK  7 active torsions:
REMARK  status: ('A' for Active; 'I' for Inactive)
REMARK    1  A    between atoms: S_1  and  N_4 
REMARK    2  A    between atoms: S_1  and  C_10 
REMARK    3  A    between atoms: C_13  and  C_16 
REMARK    4  A    between atoms: C_16  and  O_17 
REMARK    5  A    between atoms: O_17  and  C_18 
REMARK    6  A    between atoms: C_18  and  C_20 
REMARK    7  A    between atoms: C_20  and  N_21 
ROOT
ATOM      1  C   UNK d   1       2.386 -17.628 -36.448  0.00  0.00     0.217 C 
ENDROOT
BRANCH   1   2
ATOM      2  C   UNK d   1       3.143 -18.386 -37.473  0.00  0.00    -0.034 A 
ATOM      3  C   UNK d   1       4.243 -19.151 -37.219  0.00  0.00     0.011 A 
ATOM      4  C   UNK d   1       4.902 -19.831 -38.239  0.00  0.00     0.025 A 
ATOM      5  C   UNK d   1       4.478 -19.762 -39.534  0.00  0.00     0.074 A 
ATOM      6  C   UNK d   1       3.363 -18.988 -39.795  0.00  0.00     0.025 A 
ATOM      7  C   UNK d   1       2.706 -18.311 -38.784  0.00  0.00     0.011 A 
BRANCH   5   8
ATOM      8  S   UNK d   1       5.286 -20.607 -40.846  0.00  0.00     0.243 S 
ATOM      9  O   UNK d   1       6.233 -19.713 -41.571  0.00  0.00    -0.206 OA
ATOM     10  O   UNK d   1       6.110 -21.702 -40.200  0.00  0.00    -0.206 OA
BRANCH   8  11
ATOM     11  N   UNK d   1       4.183 -21.358 -41.912  0.00  0.00    -0.202 NA
ATOM     12  C   UNK d   1       3.495 -22.476 -41.323  0.00  0.00     0.134 C 
ATOM     13  C   UNK d   1       2.945 -23.310 -42.484  0.00  0.00     0.183 C 
ATOM     14  O   UNK d   1       3.961 -24.007 -43.102  0.00  0.00    -0.389 OA
ATOM     15  C   UNK d   1       5.175 -23.328 -42.889  0.00  0.00     0.183 C 
ATOM     16  C   UNK d   1       4.886 -21.847 -43.084  0.00  0.00     0.134 C 
ENDBRANCH   8  11
ENDBRANCH   5   8
ENDBRANCH   1   2
BRANCH   1  17
ATOM     17  O   UNK d   1       1.022 -17.495 -36.782  0.00  0.00    -0.316 OA
BRANCH  17  18
ATOM     18  C   UNK d   1       0.119 -16.707 -36.112  0.00  0.00     0.277 C 
ATOM     19  O   UNK d   1      -0.248 -17.038 -34.968  0.00  0.00    -0.263 OA
BRANCH  18  20
ATOM     20  C   UNK d   1      -0.415 -15.491 -36.721  0.00  0.00     0.246 C 
BRANCH  20  21
ATOM     21  N   UNK d   1       0.592 -14.618 -37.247  0.00  0.00    -0.271 N 
ATOM     22  C   UNK d   1       1.072 -14.701 -38.595  0.00  0.00     0.262 A 
ATOM     23  O   UNK d   1       0.683 -15.527 -39.469  0.00  0.00    -0.267 OA
ATOM     24  C   UNK d   1       2.087 -13.675 -38.803  0.00  0.00     0.049 A 
ATOM     25  C   UNK d   1       2.246 -12.972 -37.637  0.00  0.00     0.048 A 
ATOM     26  C   UNK d   1       2.861 -13.313 -39.882  0.00  0.00     0.037 A 
ATOM     27  C   UNK d   1       3.155 -11.935 -37.561  0.00  0.00     0.019 A 
ATOM     28  C   UNK d   1       1.315 -13.552 -36.654  0.00  0.00     0.262 A 
ATOM     29  C   UNK d   1       3.924 -11.582 -38.654  0.00  0.00     0.020 A 
ATOM     30  C   UNK d   1       3.775 -12.281 -39.834  0.00  0.00     0.011 A 
ATOM     31 Br   UNK d   1       4.814 -11.833 -41.368  0.00  0.00    -0.051 Br
ATOM     32  O   UNK d   1       1.161 -13.183 -35.469  0.00  0.00    -0.267 OA
ENDBRANCH  20  21
ENDBRANCH  18  20
ENDBRANCH  17  18
ENDBRANCH   1  17
TORSDOF 7
ENDMDL
