MODEL 1
REMARK VINA RESULT:    -6.672      0.000      0.000
REMARK INTER + INTRA:          -9.632
REMARK INTER:                  -9.012
REMARK INTRA:                  -0.619
REMARK UNBOUND:                -0.619
REMARK  6 active torsions:
REMARK  status: ('A' for Active; 'I' for Inactive)
REMARK    1  A    between atoms: S_1  and  N_4 
REMARK    2  A    between atoms: S_1  and  C_10 
REMARK    3  A    between atoms: N_13  and  C_15 
REMARK    4  A    between atoms: C_15  and  C_16 
REMARK    5  A    between atoms: C_19  and  C_21 
REMARK    6  A    between atoms: C_21  and  C_22 
ROOT
ATOM      1  C   UNK d   1       2.336 -18.024 -37.613  0.00  0.00     0.188 A 
ATOM      2  N   UNK d   1       2.648 -17.961 -36.307  0.00  0.00    -0.229 NA
ATOM      3  C   UNK d   1       1.912 -16.979 -35.727  0.00  0.00     0.211 A 
ATOM      4  N   UNK d   1       1.126 -16.408 -36.656  0.00  0.00    -0.341 N 
ATOM      5  C   UNK d   1       1.371 -17.030 -37.800  0.00  0.00     0.138 A 
ENDROOT
BRANCH   4   6
ATOM      6  C   UNK d   1       0.201 -15.322 -36.403  0.00  0.00     0.212 C 
BRANCH   6   7
ATOM      7  C   UNK d   1       0.794 -14.008 -36.744  0.00  0.00     0.174 A 
ATOM      8  N   UNK d   1       0.106 -12.944 -37.237  0.00  0.00    -0.109 NA
ATOM      9  O   UNK d   1       0.945 -11.969 -37.415  0.00  0.00    -0.196 OA
ATOM     10  C   UNK d   1       2.160 -12.315 -37.071  0.00  0.00     0.177 A 
ATOM     11  N   UNK d   1       2.061 -13.602 -36.648  0.00  0.00    -0.207 NA
BRANCH  10  12
ATOM     12  C   UNK d   1       3.408 -11.495 -37.120  0.00  0.00     0.127 C 
BRANCH  12  13
ATOM     13  C   UNK d   1       3.918 -11.572 -38.518  0.00  0.00    -0.050 A 
ATOM     14  C   UNK d   1       4.914 -10.690 -38.905  0.00  0.00     0.009 A 
ATOM     15  C   UNK d   1       5.443 -10.690 -40.169  0.00  0.00     0.019 A 
ATOM     16  C   UNK d   1       4.962 -11.599 -41.072  0.00  0.00     0.011 A 
ATOM     17  C   UNK d   1       3.984 -12.485 -40.741  0.00  0.00     0.019 A 
ATOM     18 Br   UNK d   1       5.673 -11.629 -42.842  0.00  0.00    -0.051 Br
ATOM     19  C   UNK d   1       3.466 -12.463 -39.449  0.00  0.00     0.009 A 
ENDBRANCH  12  13
ENDBRANCH  10  12
ENDBRANCH   6   7
ENDBRANCH   4   6
BRANCH   1  20
ATOM     20  S   UNK d   1       2.986 -19.106 -38.823  0.00  0.00     0.280 S 
ATOM     21  O   UNK d   1       1.902 -20.118 -39.170  0.00  0.00    -0.199 OA
ATOM     22  O   UNK d   1       3.232 -18.337 -40.105  0.00  0.00    -0.199 OA
BRANCH  20  23
ATOM     23  N   UNK d   1       4.355 -19.945 -38.342  0.00  0.00    -0.301 N 
ATOM     24  C   UNK d   1       4.448 -21.310 -38.652  0.00  0.00     0.161 C 
ATOM     25  C   UNK d   1       5.809 -21.652 -39.183  0.00  0.00     0.188 C 
ATOM     26  O   UNK d   1       6.738 -21.270 -38.231  0.00  0.00    -0.388 OA
ATOM     27  C   UNK d   1       6.803 -19.892 -38.072  0.00  0.00     0.188 C 
ATOM     28  C   UNK d   1       5.486 -19.230 -37.936  0.00  0.00     0.161 C 
ENDBRANCH  20  23
ENDBRANCH   1  20
TORSDOF 6
ENDMDL
