MODEL 1
REMARK VINA RESULT:    -6.718      0.000      0.000
REMARK INTER + INTRA:          -8.884
REMARK INTER:                  -8.485
REMARK INTRA:                  -0.399
REMARK UNBOUND:                -0.399
REMARK  5 active torsions:
REMARK  status: ('A' for Active; 'I' for Inactive)
REMARK    1  A    between atoms: S_1  and  C_2 
REMARK    2  A    between atoms: S_1  and  C_12 
REMARK    3  A    between atoms: C_2  and  C_3 
REMARK       I    between atoms: C_3  and  N_5 
REMARK    4  A    between atoms: N_5  and  C_6 
REMARK    5  A    between atoms: C_10  and  N_11 
ROOT
ATOM      1  C   UNK d   1       4.309 -22.807 -42.087  0.00  0.00     0.211 A 
ATOM      2  N   UNK d   1       3.074 -22.286 -42.185  0.00  0.00    -0.122 NA
ATOM      3  N   UNK d   1       2.579 -21.402 -41.333  0.00  0.00    -0.143 NA
ATOM      4  C   UNK d   1       3.309 -20.962 -40.287  0.00  0.00     0.137 A 
ATOM      5  C   UNK d   1       4.582 -21.483 -40.166  0.00  0.00     0.164 A 
ATOM      6  N   UNK d   1       5.108 -20.904 -39.068  0.00  0.00    -0.333 N 
ATOM      7  C   UNK d   1       4.236 -20.054 -38.502  0.00  0.00     0.048 A 
ATOM      8  C   UNK d   1       3.081 -20.069 -39.254  0.00  0.00     0.026 A 
ATOM      9  C   UNK d   1       1.973 -19.296 -38.941  0.00  0.00     0.035 A 
ATOM     10  C   UNK d   1       2.069 -18.491 -37.819  0.00  0.00     0.011 A 
ATOM     11  C   UNK d   1       3.213 -18.459 -37.048  0.00  0.00     0.021 A 
ATOM     12  C   UNK d   1       4.299 -19.232 -37.378  0.00  0.00     0.032 A 
ATOM     13 Br   UNK d   1       0.540 -17.426 -37.386  0.00  0.00    -0.051 Br
ATOM     14  C   UNK d   1       6.447 -21.188 -38.591  0.00  0.00     0.158 C 
ATOM     15  N   UNK d   1       5.069 -22.395 -41.058  0.00  0.00    -0.201 NA
ENDROOT
BRANCH   1  16
ATOM     16  S   UNK d   1       4.916 -24.009 -43.289  0.00  0.00    -0.079 SA
BRANCH  16  17
ATOM     17  C   UNK d   1       6.638 -23.597 -43.677  0.00  0.00     0.185 C 
BRANCH  17  18
ATOM     18  C   UNK d   1       7.490 -24.778 -43.356  0.00  0.00     0.233 C 
ATOM     19  O   UNK d   1       7.014 -25.957 -43.399  0.00  0.00    -0.272 OA
ATOM     20  N   UNK d   1       8.845 -24.634 -42.995  0.00  0.00    -0.306 N 
ATOM     21  H   UNK d   1       9.249 -23.674 -42.954  0.00  0.00     0.170 HD
BRANCH  20  22
ATOM     22  C   UNK d   1       9.653 -25.757 -42.691  0.00  0.00     0.207 A 
ATOM     23  N   UNK d   1       9.890 -26.307 -41.489  0.00  0.00    -0.083 NA
ATOM     24  O   UNK d   1      10.688 -27.333 -41.607  0.00  0.00    -0.103 OA
ATOM     25  N   UNK d   1      10.975 -27.461 -42.858  0.00  0.00    -0.083 NA
ATOM     26  C   UNK d   1      10.375 -26.523 -43.600  0.00  0.00     0.199 A 
BRANCH  26  27
ATOM     27  N   UNK d   1      10.472 -26.370 -45.000  0.00  0.00    -0.379 N 
ATOM     28  H   UNK d   1      10.813 -27.163 -45.576  0.00  0.00     0.158 HD
ATOM     29  H   UNK d   1      10.212 -25.489 -45.489  0.00  0.00     0.158 HD
ENDBRANCH  26  27
ENDBRANCH  20  22
ENDBRANCH  17  18
ENDBRANCH  16  17
ENDBRANCH   1  16
TORSDOF 5
ENDMDL
