/Users/jonathanwahrer/Desktop/Msc/3_Semester/Drug_Design_Praktikum/waehrer_HTS_screening/HTS_experiment/out/docking_results/vina_output/6y4q/1130_docked.pdbqt
 OpenBabel03232218093D

 29 32  0  0  0  0  0  0  0  0999 V2000
    4.3090  -22.8070  -42.0870 C   0  0  0  0  0  0  0  0  0  0  0  0
    3.0740  -22.2860  -42.1850 N   0  0  0  0  0  0  0  0  0  0  0  0
    2.5790  -21.4020  -41.3330 N   0  0  0  0  0  2  0  0  0  0  0  0
    3.3090  -20.9620  -40.2870 C   0  0  0  0  0  0  0  0  0  0  0  0
    4.5820  -21.4830  -40.1660 C   0  0  0  0  0  0  0  0  0  0  0  0
    5.1080  -20.9040  -39.0680 N   0  0  0  0  0  0  0  0  0  0  0  0
    4.2360  -20.0540  -38.5020 C   0  0  0  0  0  0  0  0  0  0  0  0
    3.0810  -20.0690  -39.2540 C   0  0  0  0  0  0  0  0  0  0  0  0
    1.9730  -19.2960  -38.9410 C   0  0  0  0  0  3  0  0  0  0  0  0
    2.0690  -18.4910  -37.8190 C   0  0  0  0  0  0  0  0  0  0  0  0
    3.2130  -18.4590  -37.0480 C   0  0  0  0  0  3  0  0  0  0  0  0
    4.2990  -19.2320  -37.3780 C   0  0  0  0  0  3  0  0  0  0  0  0
    0.5400  -17.4260  -37.3860 Br  0  0  0  0  0  0  0  0  0  0  0  0
    6.4470  -21.1880  -38.5910 C   0  0  0  0  0  1  0  0  0  0  0  0
    5.0690  -22.3950  -41.0580 N   0  0  0  0  0  2  0  0  0  0  0  0
    4.9160  -24.0090  -43.2890 S   0  0  0  0  0  0  0  0  0  0  0  0
    6.6380  -23.5970  -43.6770 C   0  0  0  0  0  2  0  0  0  0  0  0
    7.4900  -24.7780  -43.3560 C   0  0  0  0  0  0  0  0  0  0  0  0
    7.0140  -25.9570  -43.3990 O   0  0  0  0  0  0  0  0  0  0  0  0
    8.8450  -24.6340  -42.9950 N   0  0  0  0  0  0  0  0  0  0  0  0
    9.2490  -23.6740  -42.9540 H   0  0  0  0  0  0  0  0  0  0  0  0
    9.6530  -25.7570  -42.6910 C   0  0  0  0  0  0  0  0  0  0  0  0
    9.8900  -26.3070  -41.4890 N   0  0  0  0  0  0  0  0  0  0  0  0
   10.6880  -27.3330  -41.6070 O   0  0  0  0  0  0  0  0  0  0  0  0
   10.9750  -27.4610  -42.8580 N   0  0  0  0  0  0  0  0  0  0  0  0
   10.3750  -26.5230  -43.6000 C   0  0  0  0  0  0  0  0  0  0  0  0
   10.4720  -26.3700  -45.0000 N   0  0  0  0  0  0  0  0  0  0  0  0
   10.8130  -27.1630  -45.5760 H   0  0  0  0  0  0  0  0  0  0  0  0
   10.2120  -25.4890  -45.4890 H   0  0  0  0  0  0  0  0  0  0  0  0
  1 15  1  0  0  0  0
  2  1  2  0  0  0  0
  2  3  1  0  0  0  0
  3  4  1  0  0  0  0
  4  5  2  0  0  0  0
  4  8  1  0  0  0  0
  5  6  1  0  0  0  0
  6 14  1  0  0  0  0
  6  7  1  0  0  0  0
  7 12  1  0  0  0  0
  8  9  1  0  0  0  0
  8  7  2  0  0  0  0
  9 10  2  0  0  0  0
 10 13  1  0  0  0  0
 10 11  1  0  0  0  0
 12 11  2  0  0  0  0
 15  5  1  0  0  0  0
 16  1  1  0  0  0  0
 17 18  1  0  0  0  0
 17 16  1  0  0  0  0
 18 20  1  0  0  0  0
 19 18  2  0  0  0  0
 20 21  1  0  0  0  0
 20 22  1  0  0  0  0
 22 23  2  0  0  0  0
 24 23  1  0  0  0  0
 25 24  1  0  0  0  0
 26 25  2  0  0  0  0
 26 22  1  0  0  0  0
 27 26  1  0  0  0  0
 28 27  1  0  0  0  0
 29 27  1  0  0  0  0
M  END
>  <Pose>
1

>  <Score>
-6.718

$$$$
