/Users/jonathanwahrer/Desktop/Msc/3_Semester/Drug_Design_Praktikum/waehrer_HTS_screening/HTS_experiment/out/docking_results/vina_output/6y4q/1133_docked.pdbqt
 OpenBabel03232218093D

 35 38  0  0  1  0  0  0  0  0999 V2000
    2.1910  -17.9620  -37.0910 C   0  0  0  0  0  0  0  0  0  0  0  0
    1.7060  -18.8990  -37.9050 N   0  0  0  0  0  0  0  0  0  0  0  0
    2.7690  -19.6250  -38.3430 C   0  0  0  0  0  0  0  0  0  0  0  0
    2.9920  -20.6290  -39.2040 N   0  0  0  0  0  0  0  0  0  0  0  0
    4.1880  -21.1390  -39.5200 C   0  0  0  0  0  0  0  0  0  0  0  0
    5.3050  -20.5970  -38.9000 N   0  0  0  0  0  0  0  0  0  0  0  0
    5.1840  -19.6120  -38.0440 C   0  0  0  0  0  0  0  0  0  0  0  0
    3.9410  -19.0950  -37.7390 C   0  0  0  0  0  0  0  0  0  0  0  0
    3.5230  -18.0810  -36.9910 N   0  0  0  0  0  0  0  0  0  0  0  0
    0.3630  -19.2050  -38.2780 C   0  0  2  0  0  3  0  0  0  0  0  0
   -0.0190  -20.5390  -38.0140 O   0  0  0  0  0  0  0  0  0  0  0  0
   -1.2810  -20.5390  -38.6510 C   0  0  1  0  0  3  0  0  0  0  0  0
   -0.7920  -20.1660  -40.0750 C   0  0  2  0  0  3  0  0  0  0  0  0
   -0.0290  -18.8940  -39.6870 C   0  0  1  0  0  3  0  0  0  0  0  0
   -1.9350  -21.8670  -38.6100 C   0  0  0  0  0  2  0  0  0  0  0  0
   -1.6920  -22.5760  -39.7930 O   0  0  0  0  0  0  0  0  0  0  0  0
   -0.7670  -22.3250  -40.1010 H   0  0  0  0  0  0  0  0  0  0  0  0
   -1.8260  -19.9290  -40.9400 O   0  0  0  0  0  0  0  0  0  0  0  0
   -1.8180  -20.5920  -41.6710 H   0  0  0  0  0  0  0  0  0  0  0  0
   -0.9650  -17.8300  -39.7390 O   0  0  0  0  0  0  0  0  0  0  0  0
   -1.3300  -17.7870  -38.8270 H   0  0  0  0  0  0  0  0  0  0  0  0
    1.2450  -16.6520  -36.3020 S   0  0  0  0  0  0  0  0  0  0  0  0
    0.4850  -15.5520  -37.5760 C   0  0  0  0  0  2  0  0  0  0  0  0
    1.3340  -14.3540  -37.7660 C   0  0  0  0  0  0  0  0  0  0  0  0
    2.0040  -14.0550  -38.9270 C   0  0  0  0  0  0  0  0  0  0  0  0
    2.8750  -13.0260  -39.0150 C   0  0  0  0  0  3  0  0  0  0  0  0
    1.5260  -15.1020  -40.4550 Br  0  0  0  0  0  0  0  0  0  0  0  0
    3.1370  -12.2000  -37.9270 C   0  0  0  0  0  3  0  0  0  0  0  0
    2.4730  -12.4790  -36.7240 C   0  0  0  0  0  3  0  0  0  0  0  0
    1.5880  -13.5360  -36.6480 C   0  0  0  0  0  3  0  0  0  0  0  0
    4.4120  -22.1810  -40.4820 N   0  0  0  0  0  0  0  0  0  0  0  0
    3.9730  -23.0990  -40.5040 H   0  0  0  0  0  0  0  0  0  0  0  0
    5.1520  -21.9850  -41.2420 H   0  0  0  0  0  0  0  0  0  0  0  0
    6.2530  -19.0460  -37.3970 O   0  0  0  0  0  0  0  0  0  0  0  0
    6.3510  -19.0190  -36.3880 H   0  0  0  0  0  0  0  0  0  0  0  0
  1  9  2  0  0  0  0
  1 22  1  0  0  0  0
  2  1  1  0  0  0  0
  3  2  1  0  0  0  0
  3  8  2  0  0  0  0
  4  3  1  0  0  0  0
  5  4  2  0  0  0  0
  5  6  1  0  0  0  0
  6  7  2  0  0  0  0
  7  8  1  0  0  0  0
  7 34  1  0  0  0  0
  8  9  1  0  0  0  0
 10 11  1  0  0  0  0
 10  2  1  6  0  0  0
 12 15  1  6  0  0  0
 12 11  1  0  0  0  0
 13 18  1  6  0  0  0
 13 14  1  0  0  0  0
 13 12  1  0  0  0  0
 14 20  1  1  0  0  0
 14 10  1  0  0  0  0
 16 15  1  0  0  0  0
 17 16  1  0  0  0  0
 19 18  1  0  0  0  0
 20 21  1  0  0  0  0
 23 22  1  0  0  0  0
 24 23  1  0  0  0  0
 24 30  1  0  0  0  0
 25 24  2  0  0  0  0
 26 25  1  0  0  0  0
 26 28  2  0  0  0  0
 27 25  1  0  0  0  0
 28 29  1  0  0  0  0
 29 30  2  0  0  0  0
 31  5  1  0  0  0  0
 32 31  1  0  0  0  0
 33 31  1  0  0  0  0
 34 35  1  0  0  0  0
M  END
>  <Pose>
1

>  <Score>
-6.148

$$$$
