MODEL 1
REMARK VINA RESULT:    -6.804      0.000      0.000
REMARK INTER + INTRA:          -9.317
REMARK INTER:                  -7.998
REMARK INTRA:                  -1.319
REMARK UNBOUND:                -1.319
REMARK  3 active torsions:
REMARK  status: ('A' for Active; 'I' for Inactive)
REMARK    1  A    between atoms: C_6  and  C_17 
REMARK    2  A    between atoms: N_9  and  C_10 
REMARK    3  A    between atoms: C_23  and  O_30 
ROOT
ATOM      1  C   UNK d   1       0.871 -15.251 -38.865  0.00  0.00     0.246 C 
ATOM      2  N   UNK d   1      -0.200 -14.810 -39.748  0.00  0.00    -0.065 N 
ATOM      3  C   UNK d   1       0.306 -14.638 -41.099  0.00  0.00     0.240 C 
ATOM      4  C   UNK d   1       1.809 -14.633 -41.198  0.00  0.00     0.067 C 
ATOM      5  C   UNK d   1       2.349 -13.814 -40.054  0.00  0.00    -0.043 A 
ATOM      6  C   UNK d   1       1.811 -14.146 -38.788  0.00  0.00     0.017 A 
ATOM      7  C   UNK d   1       2.216 -13.446 -37.685  0.00  0.00     0.113 A 
ATOM      8  C   UNK d   1       3.151 -12.431 -37.867  0.00  0.00     0.139 A 
ATOM      9  C   UNK d   1       3.661 -12.128 -39.108  0.00  0.00     0.108 A 
ATOM     10  C   UNK d   1       3.261 -12.825 -40.232  0.00  0.00     0.047 A 
ATOM     11  O   UNK d   1       4.557 -11.088 -38.969  0.00  0.00    -0.323 OA
ATOM     12  C   UNK d   1       4.408 -10.533 -37.685  0.00  0.00     0.352 C 
ATOM     13  O   UNK d   1       3.737 -11.574 -36.975  0.00  0.00    -0.320 OA
ATOM     14  C   UNK d   1      -0.845 -13.605 -39.352  0.00  0.00     0.270 C 
ATOM     15  H   UNK d   1      -0.901 -15.579 -39.773  0.00  0.00     0.280 HD
ENDROOT
BRANCH   1  16
ATOM     16  C   UNK d   1       0.388 -15.966 -37.692  0.00  0.00     0.208 C 
ATOM     17  C   UNK d   1      -0.938 -16.615 -38.145  0.00  0.00     0.261 C 
ATOM     18  N   UNK d   1      -0.781 -17.588 -39.164  0.00  0.00    -0.187 NA
ATOM     19  O   UNK d   1      -2.021 -16.298 -37.647  0.00  0.00    -0.270 OA
ATOM     20  C   UNK d   1       0.238 -18.353 -39.317  0.00  0.00     0.190 C 
ATOM     21  S   UNK d   1       0.347 -19.554 -40.635  0.00  0.00    -0.010 SA
ATOM     22  N   UNK d   1       1.297 -18.166 -38.350  0.00  0.00    -0.259 N 
ATOM     23  C   UNK d   1       1.163 -17.191 -37.327  0.00  0.00     0.246 C 
ATOM     24  O   UNK d   1       1.684 -17.424 -36.235  0.00  0.00    -0.272 OA
BRANCH  22  25
ATOM     25  C   UNK d   1       2.457 -18.944 -38.409  0.00  0.00     0.044 A 
ATOM     26  C   UNK d   1       3.461 -18.542 -39.298  0.00  0.00     0.031 A 
ATOM     27  C   UNK d   1       4.633 -19.258 -39.411  0.00  0.00     0.021 A 
ATOM     28  C   UNK d   1       4.815 -20.395 -38.630  0.00  0.00     0.011 A 
ATOM     29  C   UNK d   1       3.805 -20.789 -37.744  0.00  0.00     0.021 A 
ATOM     30 Br   UNK d   1       6.406 -21.403 -38.755  0.00  0.00    -0.051 Br
ATOM     31  C   UNK d   1       2.642 -20.062 -37.644  0.00  0.00     0.031 A 
ENDBRANCH  22  25
ENDBRANCH   1  16
BRANCH   7  32
ATOM     32  O   UNK d   1       1.715 -13.724 -36.421  0.00  0.00    -0.352 OA
ATOM     33  C   UNK d   1       0.662 -12.916 -35.907  0.00  0.00     0.210 C 
ENDBRANCH   7  32
TORSDOF 3
ENDMDL
