MODEL 1
REMARK VINA RESULT:    -6.361      0.000      0.000
REMARK INTER + INTRA:          -6.664
REMARK INTER:                  -6.732
REMARK INTRA:                   0.069
REMARK UNBOUND:                 0.069
REMARK  1 active torsions:
REMARK  status: ('A' for Active; 'I' for Inactive)
REMARK    1  A    between atoms: N_11  and  C_14 
ROOT
ATOM      1  S   UNK d   1       5.037 -20.417 -38.674  0.00  0.00     0.148 S 
ATOM      2  O   UNK d   1       6.534 -20.320 -38.735  0.00  0.00    -0.228 OA
ATOM      3  O   UNK d   1       4.587 -21.707 -38.047  0.00  0.00    -0.228 OA
ATOM      4  C   UNK d   1       4.333 -19.037 -37.797  0.00  0.00     0.175 C 
ATOM      5  C   UNK d   1       2.926 -18.879 -38.335  0.00  0.00     0.195 C 
ATOM      6  N   UNK d   1       3.000 -18.390 -39.697  0.00  0.00    -0.318 N 
ATOM      7  C   UNK d   1       4.046 -18.847 -40.588  0.00  0.00     0.143 C 
ATOM      8  C   UNK d   1       4.335 -20.327 -40.327  0.00  0.00     0.160 C 
ATOM      9  C   UNK d   1       1.911 -17.485 -39.827  0.00  0.00     0.328 C 
ATOM     10  O   UNK d   1       1.451 -17.016 -40.923  0.00  0.00    -0.246 OA
ATOM     11  N   UNK d   1       1.375 -17.157 -38.552  0.00  0.00    -0.259 N 
ATOM     12  C   UNK d   1       2.150 -17.873 -37.602  0.00  0.00     0.252 C 
ATOM     13  O   UNK d   1       2.181 -17.692 -36.349  0.00  0.00    -0.270 OA
ENDROOT
BRANCH  11  14
ATOM     14  C   UNK d   1       0.261 -16.271 -38.248  0.00  0.00     0.135 C 
ATOM     15  C   UNK d   1      -0.584 -16.820 -37.111  0.00  0.00     0.058 C 
ATOM     16  C   UNK d   1      -1.762 -15.855 -36.962  0.00  0.00     0.178 C 
ATOM     17  O   UNK d   1      -1.212 -14.633 -36.504  0.00  0.00    -0.349 OA
ATOM     18  C   UNK d   1       0.014 -14.183 -36.981  0.00  0.00     0.094 A 
ATOM     19  C   UNK d   1       0.762 -14.949 -37.830  0.00  0.00     0.000 A 
ATOM     20  C   UNK d   1       0.434 -12.933 -36.554  0.00  0.00     0.044 A 
ATOM     21  C   UNK d   1       1.968 -14.507 -38.300  0.00  0.00     0.012 A 
ATOM     22  C   UNK d   1       2.419 -13.272 -37.900  0.00  0.00     0.002 A 
ATOM     23  C   UNK d   1       1.657 -12.515 -37.047  0.00  0.00     0.022 A 
ATOM     24 Br   UNK d   1      -0.612 -11.873 -35.372  0.00  0.00    -0.048 Br
ENDBRANCH  11  14
TORSDOF 1
ENDMDL
