/Users/jonathanwahrer/Desktop/Msc/3_Semester/Drug_Design_Praktikum/waehrer_HTS_screening/HTS_experiment/out/docking_results/vina_output/6y4q/1151_docked.pdbqt
 OpenBabel03232218103D

 24 27  0  0  1  0  0  0  0  0999 V2000
    5.0370  -20.4170  -38.6740 S   0  0  0  0  0  0  0  0  0  0  0  0
    6.5340  -20.3200  -38.7350 O   0  0  0  0  0  0  0  0  0  0  0  0
    4.5870  -21.7070  -38.0470 O   0  0  0  0  0  0  0  0  0  0  0  0
    4.3330  -19.0370  -37.7970 C   0  0  0  0  0  2  0  0  0  0  0  0
    2.9260  -18.8790  -38.3350 C   0  0  2  0  0  3  0  0  0  0  0  0
    3.0000  -18.3900  -39.6970 N   0  0  0  0  0  0  0  0  0  0  0  0
    4.0460  -18.8470  -40.5880 C   0  0  0  0  0  2  0  0  0  0  0  0
    4.3350  -20.3270  -40.3270 C   0  0  0  0  0  2  0  0  0  0  0  0
    1.9110  -17.4850  -39.8270 C   0  0  0  0  0  0  0  0  0  0  0  0
    1.4510  -17.0160  -40.9230 O   0  0  0  0  0  0  0  0  0  0  0  0
    1.3750  -17.1570  -38.5520 N   0  0  0  0  0  0  0  0  0  0  0  0
    2.1500  -17.8730  -37.6020 C   0  0  0  0  0  0  0  0  0  0  0  0
    2.1810  -17.6920  -36.3490 O   0  0  0  0  0  0  0  0  0  0  0  0
    0.2610  -16.2710  -38.2480 C   0  0  1  0  0  3  0  0  0  0  0  0
   -0.5840  -16.8200  -37.1110 C   0  0  0  0  0  2  0  0  0  0  0  0
   -1.7620  -15.8550  -36.9620 C   0  0  0  0  0  2  0  0  0  0  0  0
   -1.2120  -14.6330  -36.5040 O   0  0  0  0  0  0  0  0  0  0  0  0
    0.0140  -14.1830  -36.9810 C   0  0  0  0  0  0  0  0  0  0  0  0
    0.7620  -14.9490  -37.8300 C   0  0  0  0  0  0  0  0  0  0  0  0
    0.4340  -12.9330  -36.5540 C   0  0  0  0  0  0  0  0  0  0  0  0
    1.9680  -14.5070  -38.3000 C   0  0  0  0  0  3  0  0  0  0  0  0
    2.4190  -13.2720  -37.9000 C   0  0  0  0  0  3  0  0  0  0  0  0
    1.6570  -12.5150  -37.0470 C   0  0  0  0  0  3  0  0  0  0  0  0
   -0.6120  -11.8730  -35.3720 Br  0  0  0  0  0  0  0  0  0  0  0  0
  1  3  2  0  0  0  0
  1  4  1  0  0  0  0
  2  1  2  0  0  0  0
  5  4  1  1  0  0  0
  5 12  1  0  0  0  0
  6  5  1  0  0  0  0
  7  8  1  0  0  0  0
  7  6  1  0  0  0  0
  8  1  1  0  0  0  0
  9  6  1  0  0  0  0
  9 11  1  0  0  0  0
 10  9  2  0  0  0  0
 11 12  1  0  0  0  0
 12 13  2  0  0  0  0
 14 11  1  1  0  0  0
 14 19  1  0  0  0  0
 14 15  1  0  0  0  0
 15 16  1  0  0  0  0
 16 17  1  0  0  0  0
 18 20  1  0  0  0  0
 18 17  1  0  0  0  0
 19 18  2  0  0  0  0
 20 24  1  0  0  0  0
 21 22  2  0  0  0  0
 21 19  1  0  0  0  0
 22 23  1  0  0  0  0
 23 20  2  0  0  0  0
M  END
>  <Pose>
1

>  <Score>
-6.361

$$$$
