/Users/jonathanwahrer/Desktop/Msc/3_Semester/Drug_Design_Praktikum/waehrer_HTS_screening/HTS_experiment/out/docking_results/vina_output/6y4q/1157_docked.pdbqt
 OpenBabel03232218103D

 24 27  0  0  1  0  0  0  0  0999 V2000
    1.4140  -16.5890  -36.6070 C   0  0  2  0  0  3  0  0  0  0  0  0
    2.4230  -17.7050  -36.7140 C   0  0  0  0  0  2  0  0  0  0  0  0
    2.0140  -18.3530  -37.9520 N   0  0  0  0  0  0  0  0  0  0  0  0
    0.5810  -18.4900  -37.8530 C   0  0  0  0  0  2  0  0  0  0  0  0
    0.1430  -17.3010  -37.0180 C   0  0  0  0  0  2  0  0  0  0  0  0
    1.6580  -15.5440  -37.5900 N   0  0  0  0  0  0  0  0  0  0  0  0
    1.6410  -14.1740  -37.2430 C   0  0  0  0  0  0  0  0  0  0  0  0
    1.4170  -13.7640  -36.0770 O   0  0  0  0  0  0  0  0  0  0  0  0
    1.8530  -15.7940  -38.5850 H   0  0  0  0  0  0  0  0  0  0  0  0
    1.8910  -13.1240  -38.2570 C   0  0  0  0  0  0  0  0  0  0  0  0
    0.8290  -11.9460  -38.8850 S   0  0  0  0  0  0  0  0  0  0  0  0
    1.8900  -11.1680  -39.9680 C   0  0  0  0  0  3  0  0  0  0  0  0
    3.0610  -11.8610  -39.8050 C   0  0  0  0  0  0  0  0  0  0  0  0
    3.0590  -12.8650  -38.9260 C   0  0  0  0  0  3  0  0  0  0  0  0
    4.6140  -11.3440  -40.8470 Br  0  0  0  0  0  0  0  0  0  0  0  0
    2.8980  -18.7490  -39.0120 C   0  0  0  0  0  0  0  0  0  0  0  0
    3.0050  -18.0190  -40.1380 N   0  0  0  0  0  0  0  0  0  0  0  0
    3.8400  -18.4160  -41.1140 C   0  0  0  0  0  3  0  0  0  0  0  0
    4.5980  -19.5540  -41.0060 C   0  0  0  0  0  3  0  0  0  0  0  0
    4.5040  -20.2940  -39.8880 N   0  0  0  0  0  0  0  0  0  0  0  0
    3.6640  -19.8860  -38.9170 C   0  0  0  0  0  0  0  0  0  0  0  0
    5.1180  -21.4400  -39.5090 C   0  0  0  0  0  3  0  0  0  0  0  0
    3.7850  -20.8120  -37.9450 N   0  0  0  0  0  0  0  0  0  0  0  0
    4.6530  -21.7490  -38.2860 N   0  0  0  0  0  0  0  0  0  0  0  0
  1  6  1  6  0  0  0
  2  1  1  0  0  0  0
  3  4  1  0  0  0  0
  3  2  1  0  0  0  0
  4  5  1  0  0  0  0
  5  1  1  0  0  0  0
  6  7  1  0  0  0  0
  7  8  2  0  0  0  0
  9  6  1  0  0  0  0
 10  7  1  0  0  0  0
 11 10  1  0  0  0  0
 12 13  2  0  0  0  0
 12 11  1  0  0  0  0
 13 14  1  0  0  0  0
 14 10  2  0  0  0  0
 15 13  1  0  0  0  0
 16 21  1  0  0  0  0
 16  3  1  0  0  0  0
 17 16  2  0  0  0  0
 18 19  2  0  0  0  0
 18 17  1  0  0  0  0
 19 20  1  0  0  0  0
 20 22  1  0  0  0  0
 20 21  1  0  0  0  0
 21 23  2  0  0  0  0
 22 24  2  0  0  0  0
 24 23  1  0  0  0  0
M  END
>  <Pose>
1

>  <Score>
-5.875

$$$$
