MODEL 1
REMARK VINA RESULT:    -5.875      0.000      0.000
REMARK INTER + INTRA:          -7.501
REMARK INTER:                  -6.906
REMARK INTRA:                  -0.595
REMARK UNBOUND:                -0.595
REMARK  3 active torsions:
REMARK  status: ('A' for Active; 'I' for Inactive)
REMARK    1  A    between atoms: C_2  and  C_7 
REMARK       I    between atoms: C_7  and  N_9 
REMARK    2  A    between atoms: N_9  and  C_10 
REMARK    3  A    between atoms: N_12  and  C_15 
ROOT
ATOM      1  C   UNK d   1       1.414 -16.589 -36.607  0.00  0.00     0.104 C 
ATOM      2  C   UNK d   1       2.423 -17.705 -36.714  0.00  0.00     0.149 C 
ATOM      3  N   UNK d   1       2.014 -18.353 -37.952  0.00  0.00    -0.361 N 
ATOM      4  C   UNK d   1       0.581 -18.490 -37.853  0.00  0.00     0.127 C 
ATOM      5  C   UNK d   1       0.143 -17.301 -37.018  0.00  0.00     0.046 C 
ENDROOT
BRANCH   1   6
ATOM      6  N   UNK d   1       1.658 -15.544 -37.590  0.00  0.00    -0.350 N 
ATOM      7  C   UNK d   1       1.641 -14.174 -37.243  0.00  0.00     0.259 C 
ATOM      8  O   UNK d   1       1.417 -13.764 -36.077  0.00  0.00    -0.267 OA
ATOM      9  H   UNK d   1       1.853 -15.794 -38.585  0.00  0.00     0.163 HD
BRANCH   7  10
ATOM     10  C   UNK d   1       1.891 -13.124 -38.257  0.00  0.00     0.073 A 
ATOM     11  S   UNK d   1       0.829 -11.946 -38.885  0.00  0.00    -0.095 SA
ATOM     12  C   UNK d   1       1.890 -11.168 -39.968  0.00  0.00     0.069 A 
ATOM     13  C   UNK d   1       3.061 -11.861 -39.805  0.00  0.00     0.018 A 
ATOM     14  C   UNK d   1       3.059 -12.865 -38.926  0.00  0.00     0.044 A 
ATOM     15 Br   UNK d   1       4.614 -11.344 -40.847  0.00  0.00    -0.051 Br
ENDBRANCH   7  10
ENDBRANCH   1   6
BRANCH   3  16
ATOM     16  C   UNK d   1       2.898 -18.749 -39.012  0.00  0.00     0.174 A 
ATOM     17  N   UNK d   1       3.005 -18.019 -40.138  0.00  0.00    -0.238 NA
ATOM     18  C   UNK d   1       3.840 -18.416 -41.114  0.00  0.00     0.136 A 
ATOM     19  C   UNK d   1       4.598 -19.554 -41.006  0.00  0.00     0.119 A 
ATOM     20  N   UNK d   1       4.504 -20.294 -39.888  0.00  0.00    -0.294 N 
ATOM     21  C   UNK d   1       3.664 -19.886 -38.917  0.00  0.00     0.203 A 
ATOM     22  C   UNK d   1       5.118 -21.440 -39.509  0.00  0.00     0.240 A 
ATOM     23  N   UNK d   1       3.785 -20.812 -37.945  0.00  0.00    -0.126 NA
ATOM     24  N   UNK d   1       4.653 -21.749 -38.286  0.00  0.00    -0.143 NA
ENDBRANCH   3  16
TORSDOF 3
ENDMDL
