/Users/jonathanwahrer/Desktop/Msc/3_Semester/Drug_Design_Praktikum/waehrer_HTS_screening/HTS_experiment/out/docking_results/vina_output/6y4q/1160_docked.pdbqt
 OpenBabel03232218103D

 25 28  0  0  1  0  0  0  0  0999 V2000
    1.2200  -15.0530  -36.4480 C   0  0  0  0  0  0  0  0  0  0  0  0
    2.0170  -15.8990  -37.1270 N   0  0  0  0  0  0  0  0  0  0  0  0
    1.5450  -17.1540  -37.0380 C   0  0  0  0  0  0  0  0  0  0  0  0
    0.4360  -17.0550  -36.2860 N   0  0  0  0  0  0  0  0  0  0  0  0
    0.2630  -15.7980  -35.9470 O   0  0  0  0  0  0  0  0  0  0  0  0
    2.0960  -18.3780  -37.6200 C   0  0  0  0  0  0  0  0  0  0  0  0
    3.3420  -18.8500  -37.4440 N   0  0  0  0  0  0  0  0  0  0  0  0
    3.5010  -19.9900  -38.1240 N   0  0  0  0  0  0  0  0  0  0  0  0
    2.3380  -20.2670  -38.7560 C   0  0  0  0  0  3  0  0  0  0  0  0
    1.4910  -19.2620  -38.4310 N   0  0  0  0  0  0  0  0  0  0  0  0
    4.7080  -20.7980  -38.1810 C   0  0  0  0  0  2  0  0  0  0  0  0
    5.8080  -19.9660  -38.7130 C   0  0  0  0  0  0  0  0  0  0  0  0
    6.0420  -19.9950  -39.9410 O   0  0  0  0  0  0  0  0  0  0  0  0
    6.5710  -19.1570  -37.8390 N   0  0  0  0  0  0  0  0  0  0  0  0
    6.8340  -18.1640  -38.0880 H   0  0  0  0  0  0  0  0  0  0  0  0
    6.9210  -19.4760  -36.9030 H   0  0  0  0  0  0  0  0  0  0  0  0
    1.3830  -13.5650  -36.2900 C   0  0  1  0  0  3  0  0  0  0  0  0
    0.8550  -12.7660  -37.4900 C   0  0  1  0  0  3  0  0  0  0  0  0
    0.1780  -12.7100  -36.1930 C   0  0  0  0  0  2  0  0  0  0  0  0
    1.7590  -11.6040  -37.8590 C   0  0  0  0  0  0  0  0  0  0  0  0
    2.9260  -11.7930  -38.5170 C   0  0  0  0  0  3  0  0  0  0  0  0
    3.6590  -10.6710  -38.8030 C   0  0  0  0  0  0  0  0  0  0  0  0
    2.7200   -9.4100  -38.1620 S   0  0  0  0  0  0  0  0  0  0  0  0
    5.3550  -10.5910  -39.7220 Br  0  0  0  0  0  0  0  0  0  0  0  0
    1.4210  -10.3190  -37.5450 C   0  0  0  0  0  3  0  0  0  0  0  0
  1  5  1  0  0  0  0
  2  3  1  0  0  0  0
  2  1  2  0  0  0  0
  3  4  2  0  0  0  0
  4  5  1  0  0  0  0
  6  7  2  0  0  0  0
  6  3  1  0  0  0  0
  8  7  1  0  0  0  0
  9 10  2  0  0  0  0
  9  8  1  0  0  0  0
 10  6  1  0  0  0  0
 11  8  1  0  0  0  0
 12 11  1  0  0  0  0
 12 14  1  0  0  0  0
 13 12  2  0  0  0  0
 14 16  1  0  0  0  0
 15 14  1  0  0  0  0
 17  1  1  6  0  0  0
 17 19  1  0  0  0  0
 18 20  1  1  0  0  0
 18 17  1  0  0  0  0
 18 19  1  0  0  0  0
 20 25  2  0  0  0  0
 21 20  1  0  0  0  0
 22 21  2  0  0  0  0
 22 23  1  0  0  0  0
 23 25  1  0  0  0  0
 24 22  1  0  0  0  0
M  END
>  <Pose>
1

>  <Score>
-5.927

$$$$
