MODEL 1
REMARK VINA RESULT:    -6.119      0.000      0.000
REMARK INTER + INTRA:          -9.491
REMARK INTER:                  -8.444
REMARK INTRA:                  -1.047
REMARK UNBOUND:                -1.047
REMARK  7 active torsions:
REMARK  status: ('A' for Active; 'I' for Inactive)
REMARK    1  A    between atoms: C_5  and  C_6 
REMARK    2  A    between atoms: C_6  and  C_8 
REMARK    3  A    between atoms: C_8  and  N_9 
REMARK    4  A    between atoms: N_16  and  C_19 
REMARK    5  A    between atoms: C_17  and  N_18 
REMARK    6  A    between atoms: C_19  and  C_20 
REMARK    7  A    between atoms: C_20  and  N_21 
ROOT
ATOM      1  N   UNK d   1       0.295 -16.824 -38.806  0.00  0.00    -0.172 N 
ATOM      2  C   UNK d   1      -0.330 -17.898 -38.267  0.00  0.00     0.079 A 
ATOM      3  C   UNK d   1       0.234 -19.044 -38.739  0.00  0.00     0.079 A 
ATOM      4  C   UNK d   1      -0.236 -20.278 -38.328  0.00  0.00     0.032 A 
ATOM      5  C   UNK d   1      -1.281 -20.331 -37.435  0.00  0.00     0.002 A 
ATOM      6  C   UNK d   1      -1.865 -19.192 -36.944  0.00  0.00     0.002 A 
ATOM      7  C   UNK d   1      -1.374 -17.979 -37.373  0.00  0.00     0.032 A 
ATOM      8  N   UNK d   1       1.209 -18.674 -39.576  0.00  0.00    -0.178 N 
ATOM      9  C   UNK d   1       1.242 -17.311 -39.613  0.00  0.00     0.703 A 
ENDROOT
BRANCH   1  10
ATOM     10  C   UNK d   1      -0.048 -15.453 -38.521  0.00  0.00     0.232 C 
BRANCH  10  11
ATOM     11  C   UNK d   1       0.792 -14.885 -37.439  0.00  0.00     0.185 C 
ATOM     12  O   UNK d   1       0.708 -15.313 -36.261  0.00  0.00    -0.290 OA
BRANCH  11  13
ATOM     13  C   UNK d   1       1.752 -13.804 -37.689  0.00  0.00     0.053 A 
ATOM     14  S   UNK d   1       2.501 -13.315 -39.149  0.00  0.00    -0.079 SA
ATOM     15  C   UNK d   1       3.453 -12.033 -38.565  0.00  0.00     0.052 A 
ATOM     16  C   UNK d   1       3.157 -12.022 -37.230  0.00  0.00     0.028 A 
ATOM     17 Br   UNK d   1       4.631 -10.907 -39.555  0.00  0.00    -0.043 Br
ATOM     18  C   UNK d   1       2.287 -12.927 -36.779  0.00  0.00     0.024 A 
ENDBRANCH  11  13
ENDBRANCH  10  11
ENDBRANCH   1  10
BRANCH   9  19
ATOM     19  N   UNK d   1       2.090 -16.706 -40.358  0.00  0.00    -0.117 NA
ATOM     20  H   UNK d   1       3.095 -16.852 -40.436  0.00  0.00     0.206 HD
ENDBRANCH   9  19
BRANCH   8  21
ATOM     21  C   UNK d   1       2.079 -19.595 -40.294  0.00  0.00     0.175 C 
BRANCH  21  22
ATOM     22  C   UNK d   1       3.460 -19.572 -39.621  0.00  0.00     0.255 C 
BRANCH  22  23
ATOM     23  N   UNK d   1       3.609 -20.632 -38.666  0.00  0.00    -0.070 N 
ATOM     24  C   UNK d   1       4.900 -21.289 -38.712  0.00  0.00     0.235 C 
ATOM     25  C   UNK d   1       6.035 -20.307 -38.638  0.00  0.00     0.028 C 
ATOM     26  C   UNK d   1       5.880 -19.305 -37.544  0.00  0.00     0.003 C 
ATOM     27  C   UNK d   1       4.484 -18.996 -37.136  0.00  0.00     0.028 C 
ATOM     28  C   UNK d   1       3.482 -20.076 -37.341  0.00  0.00     0.235 C 
ATOM     29  H   UNK d   1       2.903 -21.380 -38.838  0.00  0.00     0.279 HD
ENDBRANCH  22  23
ENDBRANCH  21  22
ENDBRANCH   8  21
TORSDOF 7
ENDMDL
