MODEL 1
REMARK VINA RESULT:    -5.756      0.000      0.000
REMARK INTER + INTRA:         -10.175
REMARK INTER:                  -8.112
REMARK INTRA:                  -2.063
REMARK UNBOUND:                -2.063
REMARK  7 active torsions:
REMARK  status: ('A' for Active; 'I' for Inactive)
REMARK    1  A    between atoms: C_5  and  C_6 
REMARK    2  A    between atoms: C_6  and  C_7 
REMARK    3  A    between atoms: C_8  and  C_23 
REMARK    4  A    between atoms: N_9  and  C_14 
REMARK    5  A    between atoms: C_14  and  C_15 
REMARK    6  A    between atoms: C_15  and  C_16 
REMARK    7  A    between atoms: C_16  and  N_17 
ROOT
ATOM      1  C   UNK d   1       1.559 -15.541 -39.785  0.00  0.00     0.063 C 
ATOM      2  C   UNK d   1       1.861 -16.739 -38.933  0.00  0.00     0.161 C 
ATOM      3  N   UNK d   1       1.777 -17.836 -39.845  0.00  0.00    -0.332 N 
ATOM      4  C   UNK d   1       2.273 -17.297 -41.102  0.00  0.00     0.295 C 
ATOM      5  O   UNK d   1       2.731 -18.024 -42.025  0.00  0.00    -0.264 OA
ATOM      6  C   UNK d   1       2.146 -15.851 -41.082  0.00  0.00     0.250 C 
ATOM      7  O   UNK d   1       2.479 -15.028 -41.999  0.00  0.00    -0.282 OA
ENDROOT
BRANCH   3   8
ATOM      8  C   UNK d   1       1.386 -19.202 -39.659  0.00  0.00     0.129 C 
BRANCH   8   9
ATOM      9  C   UNK d   1       2.247 -20.021 -38.754  0.00  0.00     0.048 C 
BRANCH   9  10
ATOM     10  C   UNK d   1       3.215 -20.894 -39.567  0.00  0.00     0.236 C 
BRANCH  10  11
ATOM     11  N   UNK d   1       4.257 -20.061 -40.066  0.00  0.00    -0.067 N 
ATOM     12  C   UNK d   1       5.211 -19.599 -39.110  0.00  0.00     0.261 C 
ATOM     13  C   UNK d   1       6.201 -20.658 -38.688  0.00  0.00     0.195 C 
ATOM     14  O   UNK d   1       5.829 -21.850 -39.350  0.00  0.00    -0.388 OA
ATOM     15  C   UNK d   1       6.073 -21.594 -40.714  0.00  0.00     0.195 C 
ATOM     16  C   UNK d   1       4.966 -20.669 -41.177  0.00  0.00     0.261 C 
ATOM     17  H   UNK d   1       3.791 -19.194 -40.472  0.00  0.00     0.280 HD
ENDBRANCH  10  11
ENDBRANCH   9  10
ENDBRANCH   8   9
ENDBRANCH   3   8
BRANCH   2  18
ATOM     18  C   UNK d   1       1.020 -16.788 -37.744  0.00  0.00    -0.029 A 
ATOM     19  C   UNK d   1      -0.360 -16.974 -37.926  0.00  0.00     0.028 A 
ATOM     20  C   UNK d   1      -1.250 -17.062 -36.886  0.00  0.00     0.011 A 
ATOM     21  C   UNK d   1      -0.794 -16.966 -35.595  0.00  0.00     0.019 A 
ATOM     22 Br   UNK d   1      -3.123 -17.317 -37.162  0.00  0.00    -0.051 Br
ATOM     23  C   UNK d   1       0.562 -16.782 -35.375  0.00  0.00     0.002 A 
ATOM     24  C   UNK d   1       1.428 -16.699 -36.445  0.00  0.00     0.009 A 
ENDBRANCH   2  18
BRANCH   1  25
ATOM     25  C   UNK d   1       0.952 -14.422 -39.441  0.00  0.00     0.139 C 
ATOM     26  O   UNK d   1      -0.371 -14.197 -39.885  0.00  0.00    -0.190 OA
BRANCH  25  27
ATOM     27  C   UNK d   1       1.624 -13.423 -38.613  0.00  0.00     0.068 A 
ATOM     28  S   UNK d   1       3.106 -12.638 -38.958  0.00  0.00    -0.070 SA
ATOM     29  C   UNK d   1       3.244 -11.703 -37.538  0.00  0.00     0.072 A 
ATOM     30  N   UNK d   1       2.154 -12.041 -36.875  0.00  0.00    -0.250 NA
ATOM     31  C   UNK d   1       4.334 -10.737 -37.137  0.00  0.00     0.078 C 
ATOM     32  C   UNK d   1       1.321 -12.900 -37.383  0.00  0.00     0.051 A 
ATOM     33  C   UNK d   1       0.087 -13.318 -36.594  0.00  0.00     0.072 C 
ENDBRANCH  25  27
ENDBRANCH   1  25
TORSDOF 7
ENDMDL
