MODEL 1
REMARK VINA RESULT:    -6.268      0.000      0.000
REMARK INTER + INTRA:         -10.185
REMARK INTER:                  -8.833
REMARK INTRA:                  -1.352
REMARK UNBOUND:                -1.352
REMARK  7 active torsions:
REMARK  status: ('A' for Active; 'I' for Inactive)
REMARK    1  A    between atoms: C_5  and  C_6 
REMARK    2  A    between atoms: C_6  and  C_7 
REMARK    3  A    between atoms: C_8  and  C_23 
REMARK    4  A    between atoms: N_9  and  C_14 
REMARK    5  A    between atoms: C_14  and  C_15 
REMARK    6  A    between atoms: C_15  and  C_16 
REMARK    7  A    between atoms: C_16  and  N_17 
ROOT
ATOM      1  C   UNK d   1      -0.803 -14.587 -37.251  0.00  0.00     0.063 C 
ATOM      2  C   UNK d   1       0.587 -14.791 -36.734  0.00  0.00     0.161 C 
ATOM      3  N   UNK d   1       0.772 -16.210 -36.884  0.00  0.00    -0.332 N 
ATOM      4  C   UNK d   1      -0.513 -16.790 -36.621  0.00  0.00     0.295 C 
ATOM      5  O   UNK d   1      -0.728 -17.961 -36.260  0.00  0.00    -0.264 OA
ATOM      6  C   UNK d   1      -1.537 -15.778 -36.845  0.00  0.00     0.250 C 
ATOM      7  O   UNK d   1      -2.792 -15.832 -36.732  0.00  0.00    -0.282 OA
ENDROOT
BRANCH   3   8
ATOM      8  C   UNK d   1       2.009 -16.856 -37.206  0.00  0.00     0.129 C 
BRANCH   8   9
ATOM      9  C   UNK d   1       1.975 -17.746 -38.378  0.00  0.00     0.048 C 
BRANCH   9  10
ATOM     10  C   UNK d   1       3.104 -18.606 -38.621  0.00  0.00     0.236 C 
BRANCH  10  11
ATOM     11  N   UNK d   1       3.622 -19.630 -37.845  0.00  0.00    -0.067 N 
ATOM     12  C   UNK d   1       4.856 -19.167 -37.107  0.00  0.00     0.261 C 
ATOM     13  C   UNK d   1       6.022 -19.198 -38.039  0.00  0.00     0.195 C 
ATOM     14  O   UNK d   1       6.292 -20.532 -38.319  0.00  0.00    -0.388 OA
ATOM     15  C   UNK d   1       5.223 -20.964 -39.137  0.00  0.00     0.195 C 
ATOM     16  C   UNK d   1       3.922 -20.909 -38.386  0.00  0.00     0.261 C 
ATOM     17  H   UNK d   1       2.986 -19.815 -37.031  0.00  0.00     0.280 HD
ENDBRANCH  10  11
ENDBRANCH   9  10
ENDBRANCH   8   9
ENDBRANCH   3   8
BRANCH   2  18
ATOM     18  C   UNK d   1       1.547 -13.941 -37.453  0.00  0.00    -0.030 A 
ATOM     19  C   UNK d   1       1.883 -14.030 -38.776  0.00  0.00     0.011 A 
ATOM     20  C   UNK d   1       2.793 -13.215 -39.411  0.00  0.00     0.019 A 
ATOM     21  C   UNK d   1       3.418 -12.236 -38.681  0.00  0.00     0.011 A 
ATOM     22  C   UNK d   1       3.124 -12.097 -37.350  0.00  0.00     0.019 A 
ATOM     23 Br   UNK d   1       4.683 -11.102 -39.569  0.00  0.00    -0.051 Br
ATOM     24  C   UNK d   1       2.209 -12.928 -36.746  0.00  0.00     0.011 A 
ENDBRANCH   2  18
BRANCH   1  25
ATOM     25  C   UNK d   1      -1.221 -13.529 -37.881  0.00  0.00     0.139 C 
ATOM     26  O   UNK d   1      -1.634 -13.644 -39.220  0.00  0.00    -0.190 OA
BRANCH  25  27
ATOM     27  C   UNK d   1      -1.266 -12.214 -37.204  0.00  0.00     0.068 A 
ATOM     28  S   UNK d   1      -1.872 -11.813 -35.653  0.00  0.00    -0.070 SA
ATOM     29  C   UNK d   1      -1.480 -10.155 -35.642  0.00  0.00     0.072 A 
ATOM     30  N   UNK d   1      -0.907  -9.991 -36.817  0.00  0.00    -0.250 NA
ATOM     31  C   UNK d   1      -1.710  -9.110 -34.584  0.00  0.00     0.078 C 
ATOM     32  C   UNK d   1      -0.782 -10.999 -37.625  0.00  0.00     0.051 A 
ATOM     33  C   UNK d   1      -0.085 -10.856 -38.975  0.00  0.00     0.072 C 
ENDBRANCH  25  27
ENDBRANCH   1  25
TORSDOF 7
ENDMDL
