MODEL 1
REMARK VINA RESULT:    -5.931      0.000      0.000
REMARK INTER + INTRA:          -9.671
REMARK INTER:                  -8.012
REMARK INTRA:                  -1.659
REMARK UNBOUND:                -1.659
REMARK  6 active torsions:
REMARK  status: ('A' for Active; 'I' for Inactive)
REMARK    1  A    between atoms: C_5  and  C_6 
REMARK    2  A    between atoms: C_6  and  C_7 
REMARK    3  A    between atoms: C_8  and  C_22 
REMARK    4  A    between atoms: N_9  and  C_14 
REMARK    5  A    between atoms: C_14  and  C_15 
REMARK    6  A    between atoms: C_15  and  N_16 
ROOT
ATOM      1  C   UNK d   1      -1.022 -16.472 -38.285  0.00  0.00     0.063 C 
ATOM      2  C   UNK d   1       0.316 -16.475 -37.619  0.00  0.00     0.161 C 
ATOM      3  N   UNK d   1       0.855 -17.685 -38.109  0.00  0.00    -0.331 N 
ATOM      4  C   UNK d   1      -0.264 -18.630 -37.891  0.00  0.00     0.295 C 
ATOM      5  O   UNK d   1      -0.179 -19.865 -37.656  0.00  0.00    -0.264 OA
ATOM      6  C   UNK d   1      -1.480 -17.833 -38.008  0.00  0.00     0.250 C 
ATOM      7  O   UNK d   1      -2.698 -18.176 -37.904  0.00  0.00    -0.282 OA
ENDROOT
BRANCH   1   8
ATOM      8  C   UNK d   1      -1.639 -15.491 -38.909  0.00  0.00     0.139 C 
ATOM      9  O   UNK d   1      -1.512 -15.354 -40.280  0.00  0.00    -0.190 OA
BRANCH   8  10
ATOM     10  C   UNK d   1      -2.447 -14.580 -38.085  0.00  0.00     0.068 A 
ATOM     11  S   UNK d   1      -3.789 -14.946 -37.068  0.00  0.00    -0.070 SA
ATOM     12  C   UNK d   1      -4.089 -13.387 -36.456  0.00  0.00     0.072 A 
ATOM     13  N   UNK d   1      -3.158 -12.668 -37.051  0.00  0.00    -0.250 NA
ATOM     14  C   UNK d   1      -5.147 -12.937 -35.485  0.00  0.00     0.078 C 
ATOM     15  C   UNK d   1      -2.322 -13.228 -37.868  0.00  0.00     0.051 A 
ATOM     16  C   UNK d   1      -1.214 -12.423 -38.530  0.00  0.00     0.072 C 
ENDBRANCH   8  10
ENDBRANCH   1   8
BRANCH   2  17
ATOM     17  C   UNK d   1       1.008 -15.237 -37.523  0.00  0.00    -0.030 A 
ATOM     18  C   UNK d   1       1.682 -14.747 -38.646  0.00  0.00     0.011 A 
ATOM     19  C   UNK d   1       2.387 -13.572 -38.634  0.00  0.00     0.019 A 
ATOM     20  C   UNK d   1       2.424 -12.852 -37.458  0.00  0.00     0.011 A 
ATOM     21  C   UNK d   1       1.767 -13.318 -36.339  0.00  0.00     0.019 A 
ATOM     22 Br   UNK d   1       3.385 -11.201 -37.355  0.00  0.00    -0.051 Br
ATOM     23  C   UNK d   1       1.066 -14.501 -36.375  0.00  0.00     0.011 A 
ENDBRANCH   2  17
BRANCH   3  24
ATOM     24  C   UNK d   1       2.065 -18.228 -38.625  0.00  0.00     0.155 C 
BRANCH  24  25
ATOM     25  C   UNK d   1       3.056 -18.822 -37.719  0.00  0.00     0.255 C 
BRANCH  25  26
ATOM     26  N   UNK d   1       3.843 -19.928 -38.086  0.00  0.00    -0.066 N 
ATOM     27  C   UNK d   1       3.625 -20.405 -39.435  0.00  0.00     0.261 C 
ATOM     28  C   UNK d   1       4.459 -21.675 -39.578  0.00  0.00     0.195 C 
ATOM     29  O   UNK d   1       5.413 -21.762 -38.564  0.00  0.00    -0.388 OA
ATOM     30  C   UNK d   1       6.112 -20.538 -38.598  0.00  0.00     0.195 C 
ATOM     31  C   UNK d   1       5.245 -19.398 -38.146  0.00  0.00     0.261 C 
ATOM     32  H   UNK d   1       3.853 -20.653 -37.362  0.00  0.00     0.280 HD
ENDBRANCH  25  26
ENDBRANCH  24  25
ENDBRANCH   3  24
TORSDOF 6
ENDMDL
