/Users/jonathanwahrer/Desktop/Msc/3_Semester/Drug_Design_Praktikum/waehrer_HTS_screening/HTS_experiment/out/docking_results/vina_output/6y4q/1180_docked.pdbqt
 OpenBabel03232218123D

 32 35  0  0  1  0  0  0  0  0999 V2000
   -1.0220  -16.4720  -38.2850 C   0  0  1  0  0  3  0  0  0  0  0  0
    0.3160  -16.4750  -37.6190 C   0  0  1  0  0  3  0  0  0  0  0  0
    0.8550  -17.6850  -38.1090 N   0  0  0  0  0  0  0  0  0  0  0  0
   -0.2640  -18.6300  -37.8910 C   0  0  0  0  0  0  0  0  0  0  0  0
   -0.1790  -19.8650  -37.6560 O   0  0  0  0  0  0  0  0  0  0  0  0
   -1.4800  -17.8330  -38.0080 C   0  0  0  0  0  0  0  0  0  0  0  0
   -2.6980  -18.1760  -37.9040 O   0  0  0  0  0  0  0  0  0  0  0  0
   -1.6390  -15.4910  -38.9090 C   0  0  1  0  0  3  0  0  0  0  0  0
   -1.5120  -15.3540  -40.2800 O   0  0  0  0  0  1  0  0  0  0  0  0
   -2.4470  -14.5800  -38.0850 C   0  0  0  0  0  0  0  0  0  0  0  0
   -3.7890  -14.9460  -37.0680 S   0  0  0  0  0  0  0  0  0  0  0  0
   -4.0890  -13.3870  -36.4560 C   0  0  0  0  0  0  0  0  0  0  0  0
   -3.1580  -12.6680  -37.0510 N   0  0  0  0  0  0  0  0  0  0  0  0
   -5.1470  -12.9370  -35.4850 C   0  0  0  0  0  1  0  0  0  0  0  0
   -2.3220  -13.2280  -37.8680 C   0  0  0  0  0  0  0  0  0  0  0  0
   -1.2140  -12.4230  -38.5300 C   0  0  0  0  0  1  0  0  0  0  0  0
    1.0080  -15.2370  -37.5230 C   0  0  0  0  0  0  0  0  0  0  0  0
    1.6820  -14.7470  -38.6460 C   0  0  0  0  0  3  0  0  0  0  0  0
    2.3870  -13.5720  -38.6340 C   0  0  0  0  0  3  0  0  0  0  0  0
    2.4240  -12.8520  -37.4580 C   0  0  0  0  0  0  0  0  0  0  0  0
    1.7670  -13.3180  -36.3390 C   0  0  0  0  0  3  0  0  0  0  0  0
    3.3850  -11.2010  -37.3550 Br  0  0  0  0  0  0  0  0  0  0  0  0
    1.0660  -14.5010  -36.3750 C   0  0  0  0  0  3  0  0  0  0  0  0
    2.0650  -18.2280  -38.6250 C   0  0  0  0  0  2  0  0  0  0  0  0
    3.0560  -18.8220  -37.7190 C   0  0  0  0  0  2  0  0  0  0  0  0
    3.8430  -19.9280  -38.0860 N   0  0  0  0  0  4  0  0  0  0  0  0
    3.6250  -20.4050  -39.4350 C   0  0  0  0  0  2  0  0  0  0  0  0
    4.4590  -21.6750  -39.5780 C   0  0  0  0  0  2  0  0  0  0  0  0
    5.4130  -21.7620  -38.5640 O   0  0  0  0  0  0  0  0  0  0  0  0
    6.1120  -20.5380  -38.5980 C   0  0  0  0  0  2  0  0  0  0  0  0
    5.2450  -19.3980  -38.1460 C   0  0  0  0  0  2  0  0  0  0  0  0
    3.8530  -20.6530  -37.3620 H   0  0  0  0  0  0  0  0  0  0  0  0
  1  8  1  1  0  0  0
  1  6  1  0  0  0  0
  1  2  1  0  0  0  0
  2 17  1  6  0  0  0
  3  4  1  0  0  0  0
  3  2  1  0  0  0  0
  4  5  2  0  0  0  0
  6  7  2  0  0  0  0
  6  4  1  0  0  0  0
  8  9  1  6  0  0  0
  8 10  1  0  0  0  0
 10 15  2  0  0  0  0
 10 11  1  0  0  0  0
 11 12  1  0  0  0  0
 12 14  1  0  0  0  0
 13 12  2  0  0  0  0
 15 13  1  0  0  0  0
 16 15  1  0  0  0  0
 17 23  1  0  0  0  0
 18 19  1  0  0  0  0
 18 17  2  0  0  0  0
 19 20  2  0  0  0  0
 20 22  1  0  0  0  0
 20 21  1  0  0  0  0
 23 21  2  0  0  0  0
 24  3  1  0  0  0  0
 24 25  1  0  0  0  0
 26 25  1  0  0  0  0
 26 32  1  0  0  0  0
 27 26  1  0  0  0  0
 28 27  1  0  0  0  0
 28 29  1  0  0  0  0
 30 29  1  0  0  0  0
 30 31  1  0  0  0  0
 31 26  1  0  0  0  0
M  END
>  <Pose>
1

>  <Score>
-5.931

$$$$
