MODEL 1
REMARK VINA RESULT:    -7.048      0.000      0.000
REMARK INTER + INTRA:          -7.836
REMARK INTER:                  -7.460
REMARK INTRA:                  -0.377
REMARK UNBOUND:                -0.377
REMARK  1 active torsions:
REMARK  status: ('A' for Active; 'I' for Inactive)
REMARK    1  A    between atoms: C_14  and  C_16 
ROOT
ATOM      1  S   UNK d   1       1.276 -18.550 -40.045  0.00  0.00    -0.074 SA
ATOM      2  C   UNK d   1       1.102 -17.386 -38.794  0.00  0.00     0.088 A 
ATOM      3  C   UNK d   1       1.954 -17.855 -37.831  0.00  0.00     0.073 A 
ATOM      4  C   UNK d   1       2.628 -18.985 -38.097  0.00  0.00    -0.023 A 
ATOM      5  C   UNK d   1       2.411 -19.579 -39.311  0.00  0.00     0.018 A 
ATOM      6  C   UNK d   1       3.175 -20.840 -39.589  0.00  0.00     0.281 C 
ATOM      7  N   UNK d   1       4.595 -20.557 -39.392  0.00  0.00    -0.070 N 
ATOM      8  C   UNK d   1       4.886 -19.992 -38.111  0.00  0.00     0.239 C 
ATOM      9  C   UNK d   1       3.636 -19.766 -37.268  0.00  0.00     0.068 C 
ATOM     10  C   UNK d   1       4.942 -19.559 -40.403  0.00  0.00     0.270 C 
ATOM     11  C   UNK d   1       2.004 -17.021 -36.598  0.00  0.00     0.256 C 
ATOM     12  O   UNK d   1       2.753 -17.344 -35.630  0.00  0.00    -0.267 OA
ATOM     13  N   UNK d   1       1.196 -15.857 -36.529  0.00  0.00    -0.332 N 
ATOM     14  C   UNK d   1       0.674 -15.158 -37.667  0.00  0.00     0.219 C 
ATOM     15  N   UNK d   1       0.314 -16.180 -38.637  0.00  0.00    -0.358 N 
ATOM     16  H   UNK d   1       5.162 -21.398 -39.620  0.00  0.00     0.279 HD
ATOM     17  H   UNK d   1       0.972 -15.492 -35.559  0.00  0.00     0.165 HD
ATOM     18  H   UNK d   1      -0.517 -16.091 -39.256  0.00  0.00     0.162 HD
ENDROOT
BRANCH  14  19
ATOM     19  C   UNK d   1       1.659 -14.229 -38.271  0.00  0.00    -0.013 A 
ATOM     20  C   UNK d   1       2.036 -14.325 -39.595  0.00  0.00     0.033 A 
ATOM     21  C   UNK d   1       2.948 -13.471 -40.173  0.00  0.00     0.049 A 
ATOM     22  C   UNK d   1       3.523 -12.470 -39.418  0.00  0.00     0.141 A 
ATOM     23 Br   UNK d   1       3.457 -13.614 -41.993  0.00  0.00    -0.048 Br
ATOM     24  C   UNK d   1       3.163 -12.354 -38.097  0.00  0.00     0.049 A 
ATOM     25  O   UNK d   1       4.442 -11.605 -39.994  0.00  0.00    -0.189 OA
ATOM     26  C   UNK d   1       2.246 -13.215 -37.524  0.00  0.00     0.033 A 
ATOM     27 Br   UNK d   1       3.987 -10.945 -37.083  0.00  0.00    -0.048 Br
ENDBRANCH  14  19
TORSDOF 1
ENDMDL
