/Users/jonathanwahrer/Desktop/Msc/3_Semester/Drug_Design_Praktikum/waehrer_HTS_screening/HTS_experiment/out/docking_results/vina_output/6y4q/1192_docked.pdbqt
 OpenBabel03232218123D

 27 30  0  0  1  0  0  0  0  0999 V2000
    1.2760  -18.5500  -40.0450 S   0  0  0  0  0  0  0  0  0  0  0  0
    1.1020  -17.3860  -38.7940 C   0  0  0  0  0  0  0  0  0  0  0  0
    1.9540  -17.8550  -37.8310 C   0  0  0  0  0  0  0  0  0  0  0  0
    2.6280  -18.9850  -38.0970 C   0  0  0  0  0  0  0  0  0  0  0  0
    2.4110  -19.5790  -39.3110 C   0  0  0  0  0  0  0  0  0  0  0  0
    3.1750  -20.8400  -39.5890 C   0  0  0  0  0  2  0  0  0  0  0  0
    4.5950  -20.5570  -39.3920 N   0  0  0  0  0  4  0  0  0  0  0  0
    4.8860  -19.9920  -38.1110 C   0  0  0  0  0  2  0  0  0  0  0  0
    3.6360  -19.7660  -37.2680 C   0  0  0  0  0  2  0  0  0  0  0  0
    4.9420  -19.5590  -40.4030 C   0  0  0  0  0  1  0  0  0  0  0  0
    2.0040  -17.0210  -36.5980 C   0  0  0  0  0  0  0  0  0  0  0  0
    2.7530  -17.3440  -35.6300 O   0  0  0  0  0  0  0  0  0  0  0  0
    1.1960  -15.8570  -36.5290 N   0  0  0  0  0  0  0  0  0  0  0  0
    0.6740  -15.1580  -37.6670 C   0  0  2  0  0  3  0  0  0  0  0  0
    0.3140  -16.1800  -38.6370 N   0  0  0  0  0  0  0  0  0  0  0  0
    5.1620  -21.3980  -39.6200 H   0  0  0  0  0  0  0  0  0  0  0  0
    0.9720  -15.4920  -35.5590 H   0  0  0  0  0  0  0  0  0  0  0  0
   -0.5170  -16.0910  -39.2560 H   0  0  0  0  0  0  0  0  0  0  0  0
    1.6590  -14.2290  -38.2710 C   0  0  0  0  0  0  0  0  0  0  0  0
    2.0360  -14.3250  -39.5950 C   0  0  0  0  0  3  0  0  0  0  0  0
    2.9480  -13.4710  -40.1730 C   0  0  0  0  0  0  0  0  0  0  0  0
    3.5230  -12.4700  -39.4180 C   0  0  0  0  0  0  0  0  0  0  0  0
    3.4570  -13.6140  -41.9930 Br  0  0  0  0  0  0  0  0  0  0  0  0
    3.1630  -12.3540  -38.0970 C   0  0  0  0  0  0  0  0  0  0  0  0
    4.4420  -11.6050  -39.9940 O   0  0  0  0  0  1  0  0  0  0  0  0
    2.2460  -13.2150  -37.5240 C   0  0  0  0  0  3  0  0  0  0  0  0
    3.9870  -10.9450  -37.0830 Br  0  0  0  0  0  0  0  0  0  0  0  0
  1  5  1  0  0  0  0
  1  2  1  0  0  0  0
  2 15  1  0  0  0  0
  2  3  2  0  0  0  0
  3 11  1  0  0  0  0
  4  3  1  0  0  0  0
  4  9  1  0  0  0  0
  5  4  2  0  0  0  0
  6  7  1  0  0  0  0
  6  5  1  0  0  0  0
  7  8  1  0  0  0  0
  8  9  1  0  0  0  0
 10  7  1  0  0  0  0
 11 13  1  0  0  0  0
 11 12  2  0  0  0  0
 13 17  1  0  0  0  0
 14 19  1  6  0  0  0
 14 13  1  0  0  0  0
 15 14  1  0  0  0  0
 16  7  1  0  0  0  0
 18 15  1  0  0  0  0
 19 26  1  0  0  0  0
 20 19  2  0  0  0  0
 21 20  1  0  0  0  0
 21 22  2  0  0  0  0
 22 24  1  0  0  0  0
 23 21  1  0  0  0  0
 24 26  2  0  0  0  0
 24 27  1  0  0  0  0
 25 22  1  0  0  0  0
M  END
>  <Pose>
1

>  <Score>
-7.048

$$$$
