/Users/jonathanwahrer/Desktop/Msc/3_Semester/Drug_Design_Praktikum/waehrer_HTS_screening/HTS_experiment/out/docking_results/vina_output/6y4q/1193_docked.pdbqt
 OpenBabel03232218123D

 29 32  0  0  1  0  0  0  0  0999 V2000
    1.5730  -19.8460  -39.0720 S   0  0  0  0  0  0  0  0  0  0  0  0
    1.4670  -18.5460  -40.1720 C   0  0  0  0  0  0  0  0  0  0  0  0
    2.7540  -18.4110  -40.6130 C   0  0  0  0  0  0  0  0  0  0  0  0
    3.6740  -19.2680  -40.1020 C   0  0  0  0  0  0  0  0  0  0  0  0
    3.2270  -20.1910  -39.1900 C   0  0  0  0  0  0  0  0  0  0  0  0
    4.1400  -21.1860  -38.5540 C   0  0  0  0  0  2  0  0  0  0  0  0
    5.2190  -21.6000  -39.3840 N   0  0  0  0  0  4  0  0  0  0  0  0
    5.4710  -20.8090  -40.5400 C   0  0  0  0  0  2  0  0  0  0  0  0
    5.1740  -19.3480  -40.4120 C   0  0  0  0  0  2  0  0  0  0  0  0
    6.4310  -21.8120  -38.6010 C   0  0  0  0  0  1  0  0  0  0  0  0
    2.9320  -17.3160  -41.6160 C   0  0  0  0  0  0  0  0  0  0  0  0
    4.0880  -17.0910  -42.1020 O   0  0  0  0  0  0  0  0  0  0  0  0
    1.8190  -16.5420  -42.0170 N   0  0  0  0  0  0  0  0  0  0  0  0
    0.6930  -16.3510  -41.1290 C   0  0  1  0  0  3  0  0  0  0  0  0
    0.3850  -17.6930  -40.6340 N   0  0  0  0  0  0  0  0  0  0  0  0
    4.9670  -22.5740  -39.7390 H   0  0  0  0  0  0  0  0  0  0  0  0
    1.8040  -16.1010  -42.9630 H   0  0  0  0  0  0  0  0  0  0  0  0
   -0.5650  -18.0970  -40.5840 H   0  0  0  0  0  0  0  0  0  0  0  0
    1.1540  -15.4920  -40.0080 C   0  0  0  0  0  0  0  0  0  0  0  0
    1.9620  -14.4000  -40.2440 C   0  0  0  0  0  3  0  0  0  0  0  0
    2.4000  -13.5910  -39.2180 C   0  0  0  0  0  0  0  0  0  0  0  0
    2.0230  -13.8780  -37.9130 C   0  0  0  0  0  0  0  0  0  0  0  0
    3.5170  -12.0780  -39.5290 Br  0  0  0  0  0  0  0  0  0  0  0  0
    1.2160  -14.9630  -37.6480 C   0  0  0  0  0  0  0  0  0  0  0  0
    2.4540  -13.0740  -36.8600 O   0  0  0  0  0  1  0  0  0  0  0  0
    0.8000  -15.7420  -38.6810 C   0  0  0  0  0  3  0  0  0  0  0  0
    0.8680  -15.2060  -36.3320 O   0  0  0  0  0  0  0  0  0  0  0  0
    0.8120  -16.4540  -35.7160 C   0  0  0  0  0  2  0  0  0  0  0  0
   -0.6070  -16.9770  -35.6520 C   0  0  0  0  0  1  0  0  0  0  0  0
  2  1  1  0  0  0  0
  3  2  2  0  0  0  0
  3  4  1  0  0  0  0
  4  5  2  0  0  0  0
  5  1  1  0  0  0  0
  5  6  1  0  0  0  0
  7 10  1  0  0  0  0
  7  6  1  0  0  0  0
  8  9  1  0  0  0  0
  8  7  1  0  0  0  0
  9  4  1  0  0  0  0
 11  3  1  0  0  0  0
 12 11  2  0  0  0  0
 13 11  1  0  0  0  0
 13 14  1  0  0  0  0
 14 15  1  0  0  0  0
 14 19  1  1  0  0  0
 15 18  1  0  0  0  0
 15  2  1  0  0  0  0
 16  7  1  0  0  0  0
 17 13  1  0  0  0  0
 19 26  1  0  0  0  0
 20 19  2  0  0  0  0
 20 21  1  0  0  0  0
 21 22  2  0  0  0  0
 22 24  1  0  0  0  0
 22 25  1  0  0  0  0
 23 21  1  0  0  0  0
 24 27  1  0  0  0  0
 26 24  2  0  0  0  0
 27 28  1  0  0  0  0
 28 29  1  0  0  0  0
M  END
>  <Pose>
1

>  <Score>
-5.749

$$$$
