MODEL 1
REMARK VINA RESULT:    -5.749      0.000      0.000
REMARK INTER + INTRA:          -7.180
REMARK INTER:                  -6.758
REMARK INTRA:                  -0.423
REMARK UNBOUND:                -0.423
REMARK  3 active torsions:
REMARK  status: ('A' for Active; 'I' for Inactive)
REMARK    1  A    between atoms: C_14  and  C_16 
REMARK    2  A    between atoms: C_20  and  O_22 
REMARK    3  A    between atoms: O_22  and  C_23 
ROOT
ATOM      1  S   UNK d   1       1.573 -19.846 -39.072  0.00  0.00    -0.074 SA
ATOM      2  C   UNK d   1       1.467 -18.546 -40.172  0.00  0.00     0.088 A 
ATOM      3  C   UNK d   1       2.754 -18.411 -40.613  0.00  0.00     0.073 A 
ATOM      4  C   UNK d   1       3.674 -19.268 -40.102  0.00  0.00    -0.023 A 
ATOM      5  C   UNK d   1       3.227 -20.191 -39.190  0.00  0.00     0.018 A 
ATOM      6  C   UNK d   1       4.140 -21.186 -38.554  0.00  0.00     0.281 C 
ATOM      7  N   UNK d   1       5.219 -21.600 -39.384  0.00  0.00    -0.070 N 
ATOM      8  C   UNK d   1       5.471 -20.809 -40.540  0.00  0.00     0.239 C 
ATOM      9  C   UNK d   1       5.174 -19.348 -40.412  0.00  0.00     0.068 C 
ATOM     10  C   UNK d   1       6.431 -21.812 -38.601  0.00  0.00     0.270 C 
ATOM     11  C   UNK d   1       2.932 -17.316 -41.616  0.00  0.00     0.256 C 
ATOM     12  O   UNK d   1       4.088 -17.091 -42.102  0.00  0.00    -0.267 OA
ATOM     13  N   UNK d   1       1.819 -16.542 -42.017  0.00  0.00    -0.332 N 
ATOM     14  C   UNK d   1       0.693 -16.351 -41.129  0.00  0.00     0.219 C 
ATOM     15  N   UNK d   1       0.385 -17.693 -40.634  0.00  0.00    -0.358 N 
ATOM     16  H   UNK d   1       4.967 -22.574 -39.739  0.00  0.00     0.279 HD
ATOM     17  H   UNK d   1       1.804 -16.101 -42.963  0.00  0.00     0.165 HD
ATOM     18  H   UNK d   1      -0.565 -18.097 -40.584  0.00  0.00     0.162 HD
ENDROOT
BRANCH  14  19
ATOM     19  C   UNK d   1       1.154 -15.492 -40.008  0.00  0.00    -0.012 A 
ATOM     20  C   UNK d   1       1.962 -14.400 -40.244  0.00  0.00     0.033 A 
ATOM     21  C   UNK d   1       2.400 -13.591 -39.218  0.00  0.00     0.051 A 
ATOM     22  C   UNK d   1       2.023 -13.878 -37.913  0.00  0.00     0.157 A 
ATOM     23 Br   UNK d   1       3.517 -12.078 -39.529  0.00  0.00    -0.048 Br
ATOM     24  C   UNK d   1       1.216 -14.963 -37.648  0.00  0.00     0.107 A 
ATOM     25  O   UNK d   1       2.454 -13.074 -36.860  0.00  0.00    -0.188 OA
ATOM     26  C   UNK d   1       0.800 -15.742 -38.681  0.00  0.00     0.050 A 
BRANCH  24  27
ATOM     27  O   UNK d   1       0.868 -15.206 -36.332  0.00  0.00    -0.348 OA
BRANCH  27  28
ATOM     28  C   UNK d   1       0.812 -16.454 -35.716  0.00  0.00     0.171 C 
ATOM     29  C   UNK d   1      -0.607 -16.977 -35.652  0.00  0.00     0.034 C 
ENDBRANCH  27  28
ENDBRANCH  24  27
ENDBRANCH  14  19
TORSDOF 3
ENDMDL
