/Users/jonathanwahrer/Desktop/Msc/3_Semester/Drug_Design_Praktikum/waehrer_HTS_screening/HTS_experiment/out/docking_results/vina_output/6y4q/1206_docked.pdbqt
 OpenBabel03232218123D

 25 28  0  0  1  0  0  0  0  0999 V2000
   -2.1150  -18.0080  -36.5850 S   0  0  0  0  0  0  0  0  0  0  0  0
   -2.0220  -19.5200  -37.5780 C   0  0  2  0  0  3  0  0  0  0  0  0
   -0.5400  -19.7670  -37.5060 C   0  0  0  0  0  2  0  0  0  0  0  0
    0.2090  -18.5490  -37.4560 N   0  0  0  0  0  0  0  0  0  0  0  0
   -0.4620  -17.4730  -37.0130 C   0  0  2  0  0  3  0  0  0  0  0  0
    0.3450  -16.4060  -37.0430 N   0  0  0  0  0  0  0  0  0  0  0  0
    1.5530  -16.7930  -37.5090 C   0  0  0  0  0  3  0  0  0  0  0  0
    1.4850  -18.1400  -37.7730 C   0  0  0  0  0  0  0  0  0  0  0  0
   -2.3780  -19.2550  -39.0200 C   0  0  0  0  0  1  0  0  0  0  0  0
    2.5780  -18.9240  -38.2980 C   0  0  0  0  0  0  0  0  0  0  0  0
    3.1460  -19.9000  -37.4600 C   0  0  0  0  0  3  0  0  0  0  0  0
    4.1600  -20.7070  -37.9080 C   0  0  0  0  0  3  0  0  0  0  0  0
    4.6800  -20.6200  -39.1750 C   0  0  0  0  0  0  0  0  0  0  0  0
    4.1410  -19.6730  -40.0140 C   0  0  0  0  0  3  0  0  0  0  0  0
    3.1050  -18.8490  -39.5590 C   0  0  0  0  0  3  0  0  0  0  0  0
    5.7270  -21.4890  -39.5600 N   0  0  0  0  0  0  0  0  0  0  0  0
    5.9310  -21.7460  -40.7520 O   0  0  0  0  0  0  0  0  0  0  0  0
    6.5180  -22.0460  -38.6020 O   0  0  0  0  0  0  0  0  0  0  0  0
    0.0110  -15.0790  -36.6540 C   0  0  0  0  0  0  0  0  0  0  0  0
    0.9610  -14.1890  -36.2090 C   0  0  0  0  0  3  0  0  0  0  0  0
    0.6640  -12.8970  -35.8260 C   0  0  0  0  0  3  0  0  0  0  0  0
   -0.6400  -12.4560  -35.8830 C   0  0  0  0  0  0  0  0  0  0  0  0
   -1.6220  -13.3240  -36.3250 C   0  0  0  0  0  3  0  0  0  0  0  0
   -1.0890  -10.6710  -35.3600 Br  0  0  0  0  0  0  0  0  0  0  0  0
   -1.2980  -14.6110  -36.7030 C   0  0  0  0  0  3  0  0  0  0  0  0
  2  9  1  6  0  0  0
  2  3  1  0  0  0  0
  2  1  1  0  0  0  0
  3  4  1  0  0  0  0
  4  5  1  0  0  0  0
  5  1  1  1  0  0  0
  6  5  1  0  0  0  0
  6 19  1  0  0  0  0
  7  6  1  0  0  0  0
  8  7  2  0  0  0  0
  8  4  1  0  0  0  0
 10  8  1  0  0  0  0
 10 11  1  0  0  0  0
 12 11  2  0  0  0  0
 13 12  1  0  0  0  0
 14 15  1  0  0  0  0
 14 13  2  0  0  0  0
 15 10  2  0  0  0  0
 16 13  1  0  0  0  0
 16 18  2  0  0  0  0
 17 16  2  0  0  0  0
 19 20  1  0  0  0  0
 20 21  2  0  0  0  0
 22 21  1  0  0  0  0
 22 24  1  0  0  0  0
 23 22  2  0  0  0  0
 25 19  2  0  0  0  0
 25 23  1  0  0  0  0
M  END
>  <Pose>
1

>  <Score>
-6.773

$$$$
