MODEL 1
REMARK VINA RESULT:    -6.773      0.000      0.000
REMARK INTER + INTRA:          -8.392
REMARK INTER:                  -7.960
REMARK INTRA:                  -0.431
REMARK UNBOUND:                -0.431
REMARK  3 active torsions:
REMARK  status: ('A' for Active; 'I' for Inactive)
REMARK    1  A    between atoms: N_6  and  C_18 
REMARK    2  A    between atoms: C_8  and  C_9 
REMARK    3  A    between atoms: C_12  and  N_15 
ROOT
ATOM      1  S   UNK d   1      -2.115 -18.008 -36.585  0.00  0.00    -0.087 SA
ATOM      2  C   UNK d   1      -2.022 -19.520 -37.578  0.00  0.00     0.069 C 
ATOM      3  C   UNK d   1      -0.540 -19.767 -37.506  0.00  0.00     0.146 C 
ATOM      4  N   UNK d   1       0.209 -18.549 -37.456  0.00  0.00    -0.324 N 
ATOM      5  C   UNK d   1      -0.462 -17.473 -37.013  0.00  0.00     0.154 A 
ATOM      6  N   UNK d   1       0.345 -16.406 -37.043  0.00  0.00    -0.300 N 
ATOM      7  C   UNK d   1       1.553 -16.793 -37.509  0.00  0.00     0.130 A 
ATOM      8  C   UNK d   1       1.485 -18.140 -37.773  0.00  0.00     0.062 A 
ATOM      9  C   UNK d   1      -2.378 -19.255 -39.020  0.00  0.00     0.023 C 
ENDROOT
BRANCH   8  10
ATOM     10  C   UNK d   1       2.578 -18.924 -38.298  0.00  0.00    -0.008 A 
ATOM     11  C   UNK d   1       3.146 -19.900 -37.460  0.00  0.00     0.016 A 
ATOM     12  C   UNK d   1       4.160 -20.707 -37.908  0.00  0.00     0.037 A 
ATOM     13  C   UNK d   1       4.680 -20.620 -39.175  0.00  0.00     0.102 A 
ATOM     14  C   UNK d   1       4.141 -19.673 -40.014  0.00  0.00     0.037 A 
ATOM     15  C   UNK d   1       3.105 -18.849 -39.559  0.00  0.00     0.016 A 
BRANCH  13  16
ATOM     16  N   UNK d   1       5.727 -21.489 -39.560  0.00  0.00    -0.116 N 
ATOM     17  O   UNK d   1       5.931 -21.746 -40.752  0.00  0.00    -0.532 OA
ATOM     18  O   UNK d   1       6.518 -22.046 -38.602  0.00  0.00    -0.532 OA
ENDBRANCH  13  16
ENDBRANCH   8  10
BRANCH   6  19
ATOM     19  C   UNK d   1       0.011 -15.079 -36.654  0.00  0.00     0.041 A 
ATOM     20  C   UNK d   1       0.961 -14.189 -36.209  0.00  0.00     0.031 A 
ATOM     21  C   UNK d   1       0.664 -12.897 -35.826  0.00  0.00     0.021 A 
ATOM     22  C   UNK d   1      -0.640 -12.456 -35.883  0.00  0.00     0.011 A 
ATOM     23  C   UNK d   1      -1.622 -13.324 -36.325  0.00  0.00     0.021 A 
ATOM     24 Br   UNK d   1      -1.089 -10.671 -35.360  0.00  0.00    -0.051 Br
ATOM     25  C   UNK d   1      -1.298 -14.611 -36.703  0.00  0.00     0.031 A 
ENDBRANCH   6  19
TORSDOF 3
ENDMDL
