MODEL 1
REMARK VINA RESULT:    -6.572      0.000      0.000
REMARK INTER + INTRA:          -8.628
REMARK INTER:                  -7.724
REMARK INTRA:                  -0.904
REMARK UNBOUND:                -0.904
REMARK  3 active torsions:
REMARK  status: ('A' for Active; 'I' for Inactive)
REMARK    1  A    between atoms: N_7  and  C_18 
REMARK    2  A    between atoms: C_8  and  C_10 
REMARK    3  A    between atoms: C_13  and  O_16 
ROOT
ATOM      1  S   UNK d   1      -1.955 -14.040 -37.004  0.00  0.00    -0.093 SA
ATOM      2  C   UNK d   1      -3.605 -14.468 -37.627  0.00  0.00     0.084 C 
ATOM      3  C   UNK d   1      -3.614 -15.965 -37.883  0.00  0.00     0.031 C 
ATOM      4  C   UNK d   1      -2.968 -16.696 -36.725  0.00  0.00     0.131 C 
ATOM      5  N   UNK d   1      -1.536 -16.695 -36.978  0.00  0.00    -0.335 N 
ATOM      6  C   UNK d   1      -0.947 -15.507 -37.127  0.00  0.00     0.154 A 
ATOM      7  N   UNK d   1       0.398 -15.707 -37.357  0.00  0.00    -0.290 N 
ATOM      8  C   UNK d   1       0.644 -17.006 -37.351  0.00  0.00     0.067 A 
ATOM      9  C   UNK d   1      -0.586 -17.613 -37.111  0.00  0.00     0.124 A 
ENDROOT
BRANCH   8  10
ATOM     10  C   UNK d   1       1.882 -17.744 -37.541  0.00  0.00    -0.007 A 
ATOM     11  C   UNK d   1       2.240 -18.162 -38.832  0.00  0.00     0.016 A 
ATOM     12  C   UNK d   1       3.391 -18.859 -39.073  0.00  0.00     0.037 A 
ATOM     13  C   UNK d   1       4.279 -19.201 -38.078  0.00  0.00     0.068 A 
ATOM     14  C   UNK d   1       3.939 -18.797 -36.813  0.00  0.00     0.037 A 
ATOM     15  C   UNK d   1       2.763 -18.082 -36.543  0.00  0.00     0.016 A 
BRANCH  13  16
ATOM     16  O   UNK d   1       5.439 -19.909 -38.362  0.00  0.00    -0.356 OA
ATOM     17  C   UNK d   1       5.384 -21.303 -38.600  0.00  0.00     0.210 C 
ENDBRANCH  13  16
ENDBRANCH   8  10
BRANCH   7  18
ATOM     18  C   UNK d   1       1.298 -14.619 -37.556  0.00  0.00     0.042 A 
ATOM     19  C   UNK d   1       1.804 -14.338 -38.813  0.00  0.00     0.031 A 
ATOM     20  C   UNK d   1       2.653 -13.274 -39.045  0.00  0.00     0.021 A 
ATOM     21  C   UNK d   1       2.999 -12.475 -37.973  0.00  0.00     0.011 A 
ATOM     22  C   UNK d   1       2.490 -12.762 -36.725  0.00  0.00     0.021 A 
ATOM     23 Br   UNK d   1       4.175 -10.972 -38.198  0.00  0.00    -0.051 Br
ATOM     24  C   UNK d   1       1.641 -13.818 -36.471  0.00  0.00     0.031 A 
ENDBRANCH   7  18
TORSDOF 3
ENDMDL
