/Users/jonathanwahrer/Desktop/Msc/3_Semester/Drug_Design_Praktikum/waehrer_HTS_screening/HTS_experiment/out/docking_results/vina_output/6y4q/1211_docked.pdbqt
 OpenBabel03232218123D

 26 29  0  0  1  0  0  0  0  0999 V2000
    1.6890  -15.2060  -39.9950 S   0  0  0  0  0  0  0  0  0  0  0  0
    1.5270  -15.6510  -41.7680 C   0  0  0  0  0  2  0  0  0  0  0  0
    0.0990  -16.1860  -41.8960 C   0  0  0  0  0  2  0  0  0  0  0  0
    0.0220  -17.4910  -41.1110 C   0  0  0  0  0  2  0  0  0  0  0  0
   -0.2220  -17.1480  -39.7320 N   0  0  1  0  0  0  0  0  0  0  0  0
    0.4420  -16.1780  -39.1580 C   0  0  2  0  0  3  0  0  0  0  0  0
   -0.0440  -16.0730  -37.7940 N   0  0  0  0  0  0  0  0  0  0  0  0
   -0.2820  -17.4630  -37.4680 C   0  0  2  0  0  0  0  0  0  0  0  0
   -1.1620  -17.7000  -38.7520 C   0  0  0  0  0  2  0  0  0  0  0  0
   -0.9850  -17.6960  -36.3290 O   0  0  0  0  0  0  0  0  0  0  0  0
   -1.9100  -17.3180  -36.4430 H   0  0  0  0  0  0  0  0  0  0  0  0
    0.9620  -18.2260  -37.6220 C   0  0  0  0  0  0  0  0  0  0  0  0
    1.0170  -19.4630  -38.2410 C   0  0  0  0  0  3  0  0  0  0  0  0
    2.2390  -20.1470  -38.3200 C   0  0  0  0  0  3  0  0  0  0  0  0
    3.3790  -19.6490  -37.8120 C   0  0  0  0  0  0  0  0  0  0  0  0
    3.3590  -18.3900  -37.1770 C   0  0  0  0  0  3  0  0  0  0  0  0
    2.1340  -17.7470  -37.1200 C   0  0  0  0  0  3  0  0  0  0  0  0
    4.6340  -20.3100  -37.8700 O   0  0  0  0  0  0  0  0  0  0  0  0
    4.7830  -21.4910  -38.6290 C   0  0  0  0  0  1  0  0  0  0  0  0
   -0.2800  -14.8890  -37.0650 C   0  0  0  0  0  0  0  0  0  0  0  0
   -1.5920  -14.3570  -37.0830 C   0  0  0  0  0  3  0  0  0  0  0  0
   -1.9070  -13.1710  -36.4410 C   0  0  0  0  0  3  0  0  0  0  0  0
   -0.9550  -12.4610  -35.7620 C   0  0  0  0  0  0  0  0  0  0  0  0
    0.3330  -12.9540  -35.7270 C   0  0  0  0  0  3  0  0  0  0  0  0
   -1.3360  -10.8110  -34.8800 Br  0  0  0  0  0  0  0  0  0  0  0  0
    0.6450  -14.1620  -36.3800 C   0  0  0  0  0  3  0  0  0  0  0  0
  2  1  1  0  0  0  0
  3  2  1  0  0  0  0
  3  4  1  0  0  0  0
  5  4  1  6  0  0  0
  5  6  1  0  0  0  0
  5  9  1  0  0  0  0
  6  1  1  6  0  0  0
  6  7  1  0  0  0  0
  7  8  1  0  0  0  0
  7 20  1  0  0  0  0
  8 10  1  1  0  0  0
  9  8  1  0  0  0  0
 11 10  1  0  0  0  0
 12  8  1  0  0  0  0
 12 17  1  0  0  0  0
 13 12  2  0  0  0  0
 14 13  1  0  0  0  0
 14 15  2  0  0  0  0
 15 16  1  0  0  0  0
 16 17  2  0  0  0  0
 18 15  1  0  0  0  0
 19 18  1  0  0  0  0
 20 26  1  0  0  0  0
 21 20  2  0  0  0  0
 21 22  1  0  0  0  0
 22 23  2  0  0  0  0
 23 24  1  0  0  0  0
 23 25  1  0  0  0  0
 26 24  2  0  0  0  0
M  END
>  <Pose>
1

>  <Score>
-5.563

$$$$
