MODEL 1
REMARK VINA RESULT:    -5.563      0.000      0.000
REMARK INTER + INTRA:          -6.798
REMARK INTER:                  -6.701
REMARK INTRA:                  -0.097
REMARK UNBOUND:                -0.097
REMARK  4 active torsions:
REMARK  status: ('A' for Active; 'I' for Inactive)
REMARK    1  A    between atoms: N_7  and  C_19 
REMARK    2  A    between atoms: C_8  and  O_10 
REMARK    3  A    between atoms: C_8  and  C_11 
REMARK    4  A    between atoms: C_14  and  O_17 
ROOT
ATOM      1  S   UNK d   1       1.689 -15.206 -39.995  0.00  0.00    -0.094 SA
ATOM      2  C   UNK d   1       1.527 -15.651 -41.768  0.00  0.00     0.084 C 
ATOM      3  C   UNK d   1       0.099 -16.186 -41.896  0.00  0.00     0.030 C 
ATOM      4  C   UNK d   1       0.022 -17.491 -41.111  0.00  0.00     0.126 C 
ATOM      5  N   UNK d   1      -0.222 -17.148 -39.732  0.00  0.00    -0.356 N 
ATOM      6  C   UNK d   1       0.442 -16.178 -39.158  0.00  0.00     0.148 C 
ATOM      7  N   UNK d   1      -0.044 -16.073 -37.794  0.00  0.00    -0.289 N 
ATOM      8  C   UNK d   1      -0.282 -17.463 -37.468  0.00  0.00     0.185 C 
ATOM      9  C   UNK d   1      -1.162 -17.700 -38.752  0.00  0.00     0.192 C 
ENDROOT
BRANCH   8  10
ATOM     10  O   UNK d   1      -0.985 -17.696 -36.329  0.00  0.00    -0.365 OA
ATOM     11  H   UNK d   1      -1.910 -17.318 -36.443  0.00  0.00     0.213 HD
ENDBRANCH   8  10
BRANCH   8  12
ATOM     12  C   UNK d   1       0.962 -18.226 -37.622  0.00  0.00    -0.001 A 
ATOM     13  C   UNK d   1       1.017 -19.463 -38.241  0.00  0.00     0.015 A 
ATOM     14  C   UNK d   1       2.239 -20.147 -38.320  0.00  0.00     0.037 A 
ATOM     15  C   UNK d   1       3.379 -19.649 -37.812  0.00  0.00     0.068 A 
ATOM     16  C   UNK d   1       3.359 -18.390 -37.177  0.00  0.00     0.037 A 
ATOM     17  C   UNK d   1       2.134 -17.747 -37.120  0.00  0.00     0.015 A 
BRANCH  15  18
ATOM     18  O   UNK d   1       4.634 -20.310 -37.870  0.00  0.00    -0.356 OA
ATOM     19  C   UNK d   1       4.783 -21.491 -38.629  0.00  0.00     0.210 C 
ENDBRANCH  15  18
ENDBRANCH   8  12
BRANCH   7  20
ATOM     20  C   UNK d   1      -0.280 -14.889 -37.065  0.00  0.00     0.040 A 
ATOM     21  C   UNK d   1      -1.592 -14.357 -37.083  0.00  0.00     0.031 A 
ATOM     22  C   UNK d   1      -1.907 -13.171 -36.441  0.00  0.00     0.021 A 
ATOM     23  C   UNK d   1      -0.955 -12.461 -35.762  0.00  0.00     0.011 A 
ATOM     24  C   UNK d   1       0.333 -12.954 -35.727  0.00  0.00     0.021 A 
ATOM     25 Br   UNK d   1      -1.336 -10.811 -34.880  0.00  0.00    -0.051 Br
ATOM     26  C   UNK d   1       0.645 -14.162 -36.380  0.00  0.00     0.031 A 
ENDBRANCH   7  20
TORSDOF 4
ENDMDL
