MODEL 1
REMARK VINA RESULT:    -6.657      0.000      0.000
REMARK INTER + INTRA:          -8.675
REMARK INTER:                  -8.019
REMARK INTRA:                  -0.655
REMARK UNBOUND:                -0.655
REMARK  4 active torsions:
REMARK  status: ('A' for Active; 'I' for Inactive)
REMARK    1  A    between atoms: C_6  and  O_17 
REMARK    2  A    between atoms: C_6  and  C_18 
REMARK    3  A    between atoms: N_8  and  C_10 
REMARK    4  A    between atoms: C_20  and  N_24 
ROOT
ATOM      1  S   UNK d   1      -1.092 -14.132 -39.277  0.00  0.00    -0.094 SA
ATOM      2  C   UNK d   1      -2.754 -13.806 -38.556  0.00  0.00     0.084 C 
ATOM      3  C   UNK d   1      -2.823 -14.427 -37.172  0.00  0.00     0.030 C 
ATOM      4  C   UNK d   1      -2.264 -15.826 -37.176  0.00  0.00     0.129 C 
ATOM      5  N   UNK d   1      -0.838 -15.780 -37.103  0.00  0.00    -0.324 N 
ATOM      6  C   UNK d   1       0.209 -16.491 -36.393  0.00  0.00     0.181 C 
ATOM      7  C   UNK d   1       1.313 -15.454 -36.283  0.00  0.00     0.198 C 
ATOM      8  N   UNK d   1       1.048 -14.620 -37.473  0.00  0.00    -0.323 N 
ATOM      9  C   UNK d   1      -0.137 -14.811 -37.899  0.00  0.00     0.147 C 
ENDROOT
BRANCH   6  10
ATOM     10  O   UNK d   1      -0.207 -16.946 -35.158  0.00  0.00    -0.365 OA
ATOM     11  H   UNK d   1       0.353 -17.615 -34.739  0.00  0.00     0.213 HD
ENDBRANCH   6  10
BRANCH   6  12
ATOM     12  C   UNK d   1       0.733 -17.629 -37.186  0.00  0.00     0.001 A 
ATOM     13  C   UNK d   1       2.096 -17.791 -37.334  0.00  0.00     0.048 A 
ATOM     14  C   UNK d   1       2.545 -18.876 -38.087  0.00  0.00     0.103 A 
ATOM     15  C   UNK d   1       1.669 -19.749 -38.659  0.00  0.00     0.036 A 
ATOM     16  C   UNK d   1       0.302 -19.599 -38.518  0.00  0.00     0.003 A 
ATOM     17  C   UNK d   1      -0.141 -18.508 -37.760  0.00  0.00     0.012 A 
BRANCH  14  18
ATOM     18  N   UNK d   1       3.943 -19.051 -38.245  0.00  0.00    -0.116 N 
ATOM     19  O   UNK d   1       4.718 -19.063 -37.270  0.00  0.00    -0.532 OA
ATOM     20  O   UNK d   1       4.501 -19.215 -39.481  0.00  0.00    -0.532 OA
ENDBRANCH  14  18
ENDBRANCH   6  12
BRANCH   8  21
ATOM     21  C   UNK d   1       1.992 -13.717 -38.042  0.00  0.00     0.036 A 
ATOM     22  C   UNK d   1       2.471 -13.750 -39.318  0.00  0.00     0.031 A 
ATOM     23  C   UNK d   1       3.378 -12.824 -39.814  0.00  0.00     0.021 A 
ATOM     24  C   UNK d   1       3.836 -11.811 -38.995  0.00  0.00     0.011 A 
ATOM     25  C   UNK d   1       3.370 -11.747 -37.686  0.00  0.00     0.021 A 
ATOM     26 Br   UNK d   1       5.091 -10.492 -39.583  0.00  0.00    -0.051 Br
ATOM     27  C   UNK d   1       2.461 -12.686 -37.213  0.00  0.00     0.031 A 
ENDBRANCH   8  21
TORSDOF 4
ENDMDL
