/Users/jonathanwahrer/Desktop/Msc/3_Semester/Drug_Design_Praktikum/waehrer_HTS_screening/HTS_experiment/out/docking_results/vina_output/6y4q/1222_docked.pdbqt
 OpenBabel03232218133D

 24 27  0  0  1  0  0  0  0  0999 V2000
   -1.3580  -14.8390  -39.4030 S   0  0  0  0  0  0  0  0  0  0  0  0
   -3.0930  -14.5020  -38.8590 C   0  0  0  0  0  2  0  0  0  0  0  0
   -3.3670  -15.1770  -37.5400 C   0  0  0  0  0  2  0  0  0  0  0  0
   -2.5470  -16.4280  -37.3110 C   0  0  0  0  0  2  0  0  0  0  0  0
   -1.1810  -16.1870  -37.0550 N   0  0  1  0  0  0  0  0  0  0  0  0
   -0.0710  -16.6890  -36.2280 C   0  0  1  0  0  0  0  0  0  0  0  0
    0.5930  -15.3620  -35.9480 C   0  0  0  0  0  2  0  0  0  0  0  0
    0.5170  -14.7220  -37.2530 N   0  0  0  0  0  0  0  0  0  0  0  0
   -0.5210  -15.1350  -37.8110 C   0  0  1  0  0  3  0  0  0  0  0  0
   -0.4850  -17.2730  -35.0700 O   0  0  0  0  0  0  0  0  0  0  0  0
   -1.3140  -16.9100  -34.6710 H   0  0  0  0  0  0  0  0  0  0  0  0
    0.8510  -17.5480  -37.0440 C   0  0  0  0  0  0  0  0  0  0  0  0
    0.4170  -18.3070  -38.1140 C   0  0  0  0  0  3  0  0  0  0  0  0
    1.3370  -19.0680  -38.8220 C   0  0  0  0  0  3  0  0  0  0  0  0
    2.6880  -19.1020  -38.5030 C   0  0  0  0  0  3  0  0  0  0  0  0
    3.1260  -18.3520  -37.4450 C   0  0  0  0  0  3  0  0  0  0  0  0
    2.2040  -17.5880  -36.7300 C   0  0  0  0  0  3  0  0  0  0  0  0
    1.5080  -13.8300  -37.8070 C   0  0  0  0  0  0  0  0  0  0  0  0
    2.0510  -13.9340  -39.0490 C   0  0  0  0  0  3  0  0  0  0  0  0
    3.0380  -13.0810  -39.5260 C   0  0  0  0  0  3  0  0  0  0  0  0
    3.5060  -12.0750  -38.7230 C   0  0  0  0  0  0  0  0  0  0  0  0
    2.9570  -11.9650  -37.4600 C   0  0  0  0  0  3  0  0  0  0  0  0
    4.8710  -10.8510  -39.2940 Br  0  0  0  0  0  0  0  0  0  0  0  0
    1.9860  -12.8060  -36.9920 C   0  0  0  0  0  3  0  0  0  0  0  0
  1  2  1  0  0  0  0
  2  3  1  0  0  0  0
  3  4  1  0  0  0  0
  5  4  1  6  0  0  0
  5  6  1  0  0  0  0
  6  7  1  0  0  0  0
  6 10  1  1  0  0  0
  8  7  1  0  0  0  0
  9  1  1  6  0  0  0
  9  8  1  0  0  0  0
  9  5  1  0  0  0  0
 10 11  1  0  0  0  0
 12 17  1  0  0  0  0
 12  6  1  0  0  0  0
 13 12  2  0  0  0  0
 14 15  2  0  0  0  0
 14 13  1  0  0  0  0
 15 16  1  0  0  0  0
 16 17  2  0  0  0  0
 18  8  1  0  0  0  0
 18 24  1  0  0  0  0
 19 18  2  0  0  0  0
 20 19  1  0  0  0  0
 20 21  2  0  0  0  0
 21 22  1  0  0  0  0
 22 24  2  0  0  0  0
 23 21  1  0  0  0  0
M  END
>  <Pose>
1

>  <Score>
-6.100

$$$$
