MODEL 1
REMARK VINA RESULT:    -6.100      0.000      0.000
REMARK INTER + INTRA:          -7.452
REMARK INTER:                  -6.991
REMARK INTRA:                  -0.461
REMARK UNBOUND:                -0.461
REMARK  3 active torsions:
REMARK  status: ('A' for Active; 'I' for Inactive)
REMARK    1  A    between atoms: C_6  and  O_17 
REMARK    2  A    between atoms: C_6  and  C_18 
REMARK    3  A    between atoms: N_8  and  C_10 
ROOT
ATOM      1  S   UNK d   1      -1.358 -14.839 -39.403  0.00  0.00    -0.094 SA
ATOM      2  C   UNK d   1      -3.093 -14.502 -38.859  0.00  0.00     0.084 C 
ATOM      3  C   UNK d   1      -3.367 -15.177 -37.540  0.00  0.00     0.030 C 
ATOM      4  C   UNK d   1      -2.547 -16.428 -37.311  0.00  0.00     0.129 C 
ATOM      5  N   UNK d   1      -1.181 -16.187 -37.055  0.00  0.00    -0.324 N 
ATOM      6  C   UNK d   1      -0.071 -16.689 -36.228  0.00  0.00     0.181 C 
ATOM      7  C   UNK d   1       0.593 -15.362 -35.948  0.00  0.00     0.198 C 
ATOM      8  N   UNK d   1       0.517 -14.722 -37.253  0.00  0.00    -0.323 N 
ATOM      9  C   UNK d   1      -0.521 -15.135 -37.811  0.00  0.00     0.147 C 
ENDROOT
BRANCH   6  10
ATOM     10  O   UNK d   1      -0.485 -17.273 -35.070  0.00  0.00    -0.365 OA
ATOM     11  H   UNK d   1      -1.314 -16.910 -34.671  0.00  0.00     0.213 HD
ENDBRANCH   6  10
BRANCH   6  12
ATOM     12  C   UNK d   1       0.851 -17.548 -37.044  0.00  0.00    -0.002 A 
ATOM     13  C   UNK d   1       0.417 -18.307 -38.114  0.00  0.00     0.012 A 
ATOM     14  C   UNK d   1       1.337 -19.068 -38.822  0.00  0.00     0.001 A 
ATOM     15  C   UNK d   1       2.688 -19.102 -38.503  0.00  0.00     0.000 A 
ATOM     16  C   UNK d   1       3.126 -18.352 -37.445  0.00  0.00     0.001 A 
ATOM     17  C   UNK d   1       2.204 -17.588 -36.730  0.00  0.00     0.012 A 
ENDBRANCH   6  12
BRANCH   8  18
ATOM     18  C   UNK d   1       1.508 -13.830 -37.807  0.00  0.00     0.036 A 
ATOM     19  C   UNK d   1       2.051 -13.934 -39.049  0.00  0.00     0.031 A 
ATOM     20  C   UNK d   1       3.038 -13.081 -39.526  0.00  0.00     0.021 A 
ATOM     21  C   UNK d   1       3.506 -12.075 -38.723  0.00  0.00     0.011 A 
ATOM     22  C   UNK d   1       2.957 -11.965 -37.460  0.00  0.00     0.021 A 
ATOM     23 Br   UNK d   1       4.871 -10.851 -39.294  0.00  0.00    -0.051 Br
ATOM     24  C   UNK d   1       1.986 -12.806 -36.992  0.00  0.00     0.031 A 
ENDBRANCH   8  18
TORSDOF 3
ENDMDL
