MODEL 1
REMARK VINA RESULT:    -6.370      0.000      0.000
REMARK INTER + INTRA:          -8.028
REMARK INTER:                  -7.674
REMARK INTRA:                  -0.354
REMARK UNBOUND:                -0.354
REMARK  4 active torsions:
REMARK  status: ('A' for Active; 'I' for Inactive)
REMARK    1  A    between atoms: C_6  and  O_18 
REMARK    2  A    between atoms: C_6  and  C_19 
REMARK    3  A    between atoms: N_8  and  C_10 
REMARK    4  A    between atoms: C_13  and  O_16 
ROOT
ATOM      1  S   UNK d   1      -0.612 -15.275 -39.914  0.00  0.00    -0.094 SA
ATOM      2  C   UNK d   1      -2.429 -15.565 -39.911  0.00  0.00     0.084 C 
ATOM      3  C   UNK d   1      -2.624 -16.864 -39.143  0.00  0.00     0.030 C 
ATOM      4  C   UNK d   1      -2.323 -16.705 -37.686  0.00  0.00     0.129 C 
ATOM      5  N   UNK d   1      -0.963 -16.382 -37.385  0.00  0.00    -0.324 N 
ATOM      6  C   UNK d   1       0.010 -16.786 -36.366  0.00  0.00     0.181 C 
ATOM      7  C   UNK d   1       0.602 -15.386 -36.112  0.00  0.00     0.198 C 
ATOM      8  N   UNK d   1       0.717 -14.873 -37.464  0.00  0.00    -0.323 N 
ATOM      9  C   UNK d   1      -0.180 -15.438 -38.166  0.00  0.00     0.147 C 
ENDROOT
BRANCH   6  10
ATOM     10  O   UNK d   1      -0.646 -17.259 -35.254  0.00  0.00    -0.365 OA
ATOM     11  H   UNK d   1      -0.417 -16.765 -34.431  0.00  0.00     0.213 HD
ENDBRANCH   6  10
BRANCH   6  12
ATOM     12  C   UNK d   1       1.055 -17.681 -36.894  0.00  0.00    -0.002 A 
ATOM     13  C   UNK d   1       2.400 -17.599 -36.612  0.00  0.00     0.013 A 
ATOM     14  C   UNK d   1       3.302 -18.499 -37.155  0.00  0.00     0.020 A 
ATOM     15  C   UNK d   1       2.868 -19.492 -37.985  0.00  0.00     0.011 A 
ATOM     16  C   UNK d   1       1.525 -19.589 -38.278  0.00  0.00     0.020 A 
ATOM     17 Br   UNK d   1       4.067 -20.772 -38.771  0.00  0.00    -0.051 Br
ATOM     18  C   UNK d   1       0.642 -18.691 -37.734  0.00  0.00     0.013 A 
ENDBRANCH   6  12
BRANCH   8  19
ATOM     19  C   UNK d   1       1.710 -13.894 -37.845  0.00  0.00     0.036 A 
ATOM     20  C   UNK d   1       2.152 -12.960 -36.913  0.00  0.00     0.032 A 
ATOM     21  C   UNK d   1       3.096 -12.012 -37.246  0.00  0.00     0.039 A 
ATOM     22  C   UNK d   1       3.653 -11.931 -38.505  0.00  0.00     0.068 A 
ATOM     23  C   UNK d   1       3.220 -12.850 -39.431  0.00  0.00     0.039 A 
ATOM     24  C   UNK d   1       2.259 -13.814 -39.088  0.00  0.00     0.032 A 
BRANCH  22  25
ATOM     25  O   UNK d   1       4.604 -10.963 -38.803  0.00  0.00    -0.356 OA
ATOM     26  C   UNK d   1       5.229 -10.791 -40.044  0.00  0.00     0.210 C 
ENDBRANCH  22  25
ENDBRANCH   8  19
TORSDOF 4
ENDMDL
