/Users/jonathanwahrer/Desktop/Msc/3_Semester/Drug_Design_Praktikum/waehrer_HTS_screening/HTS_experiment/out/docking_results/vina_output/6y4q/1224_docked.pdbqt
 OpenBabel03232218133D

 26 29  0  0  1  0  0  0  0  0999 V2000
   -0.6120  -15.2750  -39.9140 S   0  0  0  0  0  0  0  0  0  0  0  0
   -2.4290  -15.5650  -39.9110 C   0  0  0  0  0  2  0  0  0  0  0  0
   -2.6240  -16.8640  -39.1430 C   0  0  0  0  0  2  0  0  0  0  0  0
   -2.3230  -16.7050  -37.6860 C   0  0  0  0  0  2  0  0  0  0  0  0
   -0.9630  -16.3820  -37.3850 N   0  0  2  0  0  0  0  0  0  0  0  0
    0.0100  -16.7860  -36.3660 C   0  0  1  0  0  0  0  0  0  0  0  0
    0.6020  -15.3860  -36.1120 C   0  0  0  0  0  2  0  0  0  0  0  0
    0.7170  -14.8730  -37.4640 N   0  0  0  0  0  0  0  0  0  0  0  0
   -0.1800  -15.4380  -38.1660 C   0  0  1  0  0  3  0  0  0  0  0  0
   -0.6460  -17.2590  -35.2540 O   0  0  0  0  0  0  0  0  0  0  0  0
   -0.4170  -16.7650  -34.4310 H   0  0  0  0  0  0  0  0  0  0  0  0
    1.0550  -17.6810  -36.8940 C   0  0  0  0  0  0  0  0  0  0  0  0
    2.4000  -17.5990  -36.6120 C   0  0  0  0  0  3  0  0  0  0  0  0
    3.3020  -18.4990  -37.1550 C   0  0  0  0  0  3  0  0  0  0  0  0
    2.8680  -19.4920  -37.9850 C   0  0  0  0  0  0  0  0  0  0  0  0
    1.5250  -19.5890  -38.2780 C   0  0  0  0  0  3  0  0  0  0  0  0
    4.0670  -20.7720  -38.7710 Br  0  0  0  0  0  0  0  0  0  0  0  0
    0.6420  -18.6910  -37.7340 C   0  0  0  0  0  3  0  0  0  0  0  0
    1.7100  -13.8940  -37.8450 C   0  0  0  0  0  0  0  0  0  0  0  0
    2.1520  -12.9600  -36.9130 C   0  0  0  0  0  3  0  0  0  0  0  0
    3.0960  -12.0120  -37.2460 C   0  0  0  0  0  3  0  0  0  0  0  0
    3.6530  -11.9310  -38.5050 C   0  0  0  0  0  0  0  0  0  0  0  0
    3.2200  -12.8500  -39.4310 C   0  0  0  0  0  3  0  0  0  0  0  0
    2.2590  -13.8140  -39.0880 C   0  0  0  0  0  3  0  0  0  0  0  0
    4.6040  -10.9630  -38.8030 O   0  0  0  0  0  0  0  0  0  0  0  0
    5.2290  -10.7910  -40.0440 C   0  0  0  0  0  1  0  0  0  0  0  0
  1  2  1  0  0  0  0
  2  3  1  0  0  0  0
  3  4  1  0  0  0  0
  5  4  1  1  0  0  0
  5  6  1  0  0  0  0
  6  7  1  0  0  0  0
  6 10  1  1  0  0  0
  8  7  1  0  0  0  0
  9  1  1  6  0  0  0
  9  8  1  0  0  0  0
  9  5  1  0  0  0  0
 10 11  1  0  0  0  0
 12 13  1  0  0  0  0
 12  6  1  0  0  0  0
 14 13  2  0  0  0  0
 15 14  1  0  0  0  0
 16 15  2  0  0  0  0
 16 18  1  0  0  0  0
 17 15  1  0  0  0  0
 18 12  2  0  0  0  0
 19  8  1  0  0  0  0
 19 20  1  0  0  0  0
 21 20  2  0  0  0  0
 22 21  1  0  0  0  0
 23 24  1  0  0  0  0
 23 22  2  0  0  0  0
 24 19  2  0  0  0  0
 25 22  1  0  0  0  0
 26 25  1  0  0  0  0
M  END
>  <Pose>
1

>  <Score>
-6.370

$$$$
