MODEL 1
REMARK VINA RESULT:    -6.916      0.000      0.000
REMARK INTER + INTRA:          -8.580
REMARK INTER:                  -7.927
REMARK INTRA:                  -0.653
REMARK UNBOUND:                -0.653
REMARK  3 active torsions:
REMARK  status: ('A' for Active; 'I' for Inactive)
REMARK    1  A    between atoms: C_6  and  O_16 
REMARK    2  A    between atoms: C_6  and  C_17 
REMARK    3  A    between atoms: N_8  and  C_10 
ROOT
ATOM      1  S   UNK d   1      -0.217 -19.423 -38.968  0.00  0.00    -0.094 SA
ATOM      2  C   UNK d   1      -1.886 -19.432 -38.256  0.00  0.00     0.084 C 
ATOM      3  C   UNK d   1      -1.743 -18.893 -36.829  0.00  0.00     0.030 C 
ATOM      4  C   UNK d   1      -1.301 -17.424 -36.923  0.00  0.00     0.129 C 
ATOM      5  N   UNK d   1       0.158 -17.407 -37.083  0.00  0.00    -0.324 N 
ATOM      6  C   UNK d   1       1.180 -16.620 -36.525  0.00  0.00     0.181 C 
ATOM      7  C   UNK d   1       2.468 -17.370 -36.849  0.00  0.00     0.198 C 
ATOM      8  N   UNK d   1       2.063 -18.381 -37.777  0.00  0.00    -0.323 N 
ATOM      9  C   UNK d   1       0.801 -18.362 -37.915  0.00  0.00     0.147 C 
ENDROOT
BRANCH   6  10
ATOM     10  O   UNK d   1       1.074 -16.647 -35.116  0.00  0.00    -0.365 OA
ATOM     11  H   UNK d   1       0.228 -16.179 -34.895  0.00  0.00     0.213 HD
ENDBRANCH   6  10
BRANCH   6  12
ATOM     12  C   UNK d   1       1.324 -15.230 -36.952  0.00  0.00    -0.002 A 
ATOM     13  C   UNK d   1       0.891 -14.259 -36.049  0.00  0.00     0.013 A 
ATOM     14  C   UNK d   1       0.985 -12.899 -36.282  0.00  0.00     0.020 A 
ATOM     15  C   UNK d   1       1.525 -12.446 -37.454  0.00  0.00     0.011 A 
ATOM     16  C   UNK d   1       1.960 -13.394 -38.363  0.00  0.00     0.020 A 
ATOM     17 Br   UNK d   1       1.697 -10.563 -37.835  0.00  0.00    -0.051 Br
ATOM     18  C   UNK d   1       1.861 -14.760 -38.115  0.00  0.00     0.013 A 
ENDBRANCH   6  12
BRANCH   8  19
ATOM     19  C   UNK d   1       3.003 -19.282 -38.385  0.00  0.00     0.036 A 
ATOM     20  C   UNK d   1       3.442 -19.028 -39.644  0.00  0.00     0.029 A 
ATOM     21  C   UNK d   1       4.374 -19.899 -40.197  0.00  0.00     0.002 A 
ATOM     22  C   UNK d   1       4.864 -20.996 -39.525  0.00  0.00     0.000 A 
ATOM     23  C   UNK d   1       4.386 -21.214 -38.248  0.00  0.00     0.002 A 
ATOM     24  C   UNK d   1       3.466 -20.374 -37.671  0.00  0.00     0.029 A 
ENDBRANCH   8  19
TORSDOF 3
ENDMDL
