MODEL 1
REMARK VINA RESULT:    -6.526      0.000      0.000
REMARK INTER + INTRA:         -11.079
REMARK INTER:                  -9.768
REMARK INTRA:                  -1.310
REMARK UNBOUND:                -1.310
REMARK  9 active torsions:
REMARK  status: ('A' for Active; 'I' for Inactive)
REMARK    1  A    between atoms: C_5  and  S_6 
REMARK    2  A    between atoms: S_6  and  C_7 
REMARK    3  A    between atoms: C_7  and  C_8 
REMARK    4  A    between atoms: N_9  and  C_28 
REMARK    5  A    between atoms: C_12  and  C_13 
REMARK       I    between atoms: C_13  and  N_15 
REMARK    6  A    between atoms: N_15  and  N_16 
REMARK    7  A    between atoms: C_17  and  C_18 
REMARK    8  A    between atoms: C_22  and  O_24 
REMARK    9  A    between atoms: C_32  and  N_33 
ROOT
ATOM      1  C   UNK d   1       2.852 -18.237 -37.461  0.00  0.00     0.086 A 
ATOM      2  N   UNK d   1       3.820 -19.069 -37.060  0.00  0.00    -0.192 N 
ATOM      3  N   UNK d   1       3.953 -18.857 -35.738  0.00  0.00    -0.058 NA
ATOM      4  N   UNK d   1       3.133 -17.959 -35.326  0.00  0.00    -0.124 NA
ATOM      5  C   UNK d   1       2.368 -17.493 -36.379  0.00  0.00     0.175 A 
ENDROOT
BRANCH   5   6
ATOM      6  C   UNK d   1       1.343 -16.491 -36.246  0.00  0.00     0.294 C 
ATOM      7  O   UNK d   1       0.133 -16.919 -36.084  0.00  0.00    -0.264 OA
ATOM      8  N   UNK d   1       1.476 -15.106 -36.269  0.00  0.00    -0.242 N 
ATOM      9  H   UNK d   1       2.332 -14.540 -36.393  0.00  0.00     0.192 HD
BRANCH   8  10
ATOM     10  N   UNK d   1       0.312 -14.274 -36.113  0.00  0.00    -0.183 NA
ATOM     11  C   UNK d   1       0.371 -13.007 -36.224  0.00  0.00     0.150 C 
BRANCH  11  12
ATOM     12  C   UNK d   1      -0.782 -12.130 -36.074  0.00  0.00    -0.013 A 
ATOM     13  C   UNK d   1      -1.374 -11.520 -37.157  0.00  0.00     0.035 A 
ATOM     14  C   UNK d   1      -2.470 -10.692 -37.032  0.00  0.00     0.051 A 
ATOM     15  C   UNK d   1      -3.023 -10.439 -35.803  0.00  0.00     0.157 A 
ATOM     16 Br   UNK d   1      -3.257  -9.868 -38.567  0.00  0.00    -0.048 Br
ATOM     17  C   UNK d   1      -2.445 -11.044 -34.676  0.00  0.00     0.106 A 
ATOM     18  O   UNK d   1      -4.125  -9.603 -35.700  0.00  0.00    -0.188 OA
ATOM     19  C   UNK d   1      -1.350 -11.866 -34.835  0.00  0.00     0.052 A 
BRANCH  17  20
ATOM     20  O   UNK d   1      -3.049 -10.747 -33.476  0.00  0.00    -0.353 OA
ATOM     21  C   UNK d   1      -3.653 -11.674 -32.609  0.00  0.00     0.210 C 
ENDBRANCH  17  20
ENDBRANCH  11  12
ENDBRANCH   8  10
ENDBRANCH   5   6
BRANCH   1  22
ATOM     22  C   UNK d   1       2.307 -18.099 -38.821  0.00  0.00     0.143 C 
BRANCH  22  23
ATOM     23  S   UNK d   1       1.132 -19.324 -39.356  0.00  0.00    -0.098 SA
BRANCH  23  24
ATOM     24  C   UNK d   1      -0.511 -19.035 -38.713  0.00  0.00     0.125 C 
ATOM     25  S   UNK d   1      -1.326 -20.186 -37.606  0.00  0.00    -0.102 SA
ATOM     26  C   UNK d   1      -2.935 -19.338 -37.614  0.00  0.00     0.103 C 
ATOM     27  C   UNK d   1      -2.545 -18.061 -38.288  0.00  0.00     0.161 C 
ATOM     28  N   UNK d   1      -1.307 -18.102 -38.881  0.00  0.00    -0.275 NA
ENDBRANCH  23  24
ENDBRANCH  22  23
ENDBRANCH   1  22
BRANCH   2  29
ATOM     29  C   UNK d   1       4.597 -20.042 -37.754  0.00  0.00     0.237 A 
ATOM     30  N   UNK d   1       4.194 -21.221 -38.272  0.00  0.00    -0.081 NA
ATOM     31  O   UNK d   1       5.148 -21.843 -38.856  0.00  0.00    -0.103 OA
ATOM     32  N   UNK d   1       6.218 -21.118 -38.757  0.00  0.00    -0.075 NA
ATOM     33  C   UNK d   1       5.936 -19.969 -38.073  0.00  0.00     0.300 A 
BRANCH  33  34
ATOM     34  N   UNK d   1       6.838 -18.921 -37.782  0.00  0.00    -0.026 N 
ATOM     35  H   UNK d   1       7.026 -18.397 -38.676  0.00  0.00     0.283 HD
ATOM     36  H   UNK d   1       7.728 -19.225 -37.350  0.00  0.00     0.283 HD
ATOM     37  H   UNK d   1       6.362 -18.233 -37.136  0.00  0.00     0.283 HD
ENDBRANCH  33  34
ENDBRANCH   2  29
TORSDOF 9
ENDMDL
