MODEL 1
REMARK VINA RESULT:    -5.902      0.000      0.000
REMARK INTER + INTRA:          -7.952
REMARK INTER:                  -6.937
REMARK INTRA:                  -1.015
REMARK UNBOUND:                -1.015
REMARK  3 active torsions:
REMARK  status: ('A' for Active; 'I' for Inactive)
REMARK    1  A    between atoms: C_9  and  C_12 
REMARK    2  A    between atoms: C_12  and  C_13 
REMARK    3  A    between atoms: C_12  and  C_24 
ROOT
ATOM      1  C   UNK d   1       0.640 -18.226 -38.668  0.00  0.00     0.063 C 
ENDROOT
BRANCH   1   2
ATOM      2  C   UNK d   1       0.877 -19.634 -38.249  0.00  0.00     0.182 C 
ATOM      3  C   UNK d   1       0.186 -20.513 -39.230  0.00  0.00     0.259 C 
ATOM      4  N   UNK d   1       0.849 -20.742 -40.489  0.00  0.00    -0.188 NA
ATOM      5  O   UNK d   1      -0.927 -21.019 -38.941  0.00  0.00    -0.270 OA
ATOM      6  C   UNK d   1       2.096 -20.598 -40.641  0.00  0.00     0.174 C 
ATOM      7  S   UNK d   1       3.185 -20.799 -42.036  0.00  0.00    -0.090 SA
ATOM      8  N   UNK d   1       2.925 -20.225 -39.564  0.00  0.00    -0.295 N 
ATOM      9  C   UNK d   1       4.702 -21.026 -40.991  0.00  0.00     0.103 C 
ATOM     10  C   UNK d   1       4.315 -20.073 -39.889  0.00  0.00     0.144 C 
ATOM     11  C   UNK d   1       2.309 -20.013 -38.267  0.00  0.00     0.239 C 
ATOM     12  O   UNK d   1       3.025 -20.164 -37.248  0.00  0.00    -0.272 OA
ENDBRANCH   1   2
BRANCH   1  13
ATOM     13  C   UNK d   1       1.834 -17.323 -38.479  0.00  0.00     0.182 C 
ATOM     14  C   UNK d   1       1.803 -16.527 -37.242  0.00  0.00     0.239 C 
ATOM     15  O   UNK d   1       2.078 -17.081 -36.120  0.00  0.00    -0.272 OA
ATOM     16  N   UNK d   1       1.461 -15.119 -37.286  0.00  0.00    -0.295 N 
ATOM     17  C   UNK d   1       1.160 -14.274 -36.164  0.00  0.00     0.144 C 
ATOM     18  C   UNK d   1       1.436 -14.473 -38.542  0.00  0.00     0.174 C 
ATOM     19  C   UNK d   1       0.184 -13.192 -36.556  0.00  0.00     0.103 C 
ATOM     20  S   UNK d   1       0.949 -12.784 -38.195  0.00  0.00    -0.090 SA
ATOM     21  N   UNK d   1       1.703 -15.073 -39.636  0.00  0.00    -0.188 NA
ATOM     22  C   UNK d   1       2.051 -16.467 -39.672  0.00  0.00     0.259 C 
ATOM     23  O   UNK d   1       2.540 -16.923 -40.736  0.00  0.00    -0.270 OA
ENDBRANCH   1  13
BRANCH   1  24
ATOM     24  C   UNK d   1      -0.564 -17.712 -37.978  0.00  0.00    -0.050 A 
ATOM     25  C   UNK d   1      -1.383 -16.767 -38.582  0.00  0.00     0.026 A 
ATOM     26  C   UNK d   1      -2.510 -16.284 -37.950  0.00  0.00     0.011 A 
ATOM     27  C   UNK d   1      -2.850 -16.735 -36.694  0.00  0.00     0.019 A 
ATOM     28 Br   UNK d   1      -3.641 -14.986 -38.773  0.00  0.00    -0.051 Br
ATOM     29  C   UNK d   1      -2.045 -17.661 -36.103  0.00  0.00     0.002 A 
ATOM     30  C   UNK d   1      -0.915 -18.153 -36.723  0.00  0.00     0.007 A 
ENDBRANCH   1  24
TORSDOF 3
ENDMDL
