MODEL 1
REMARK VINA RESULT:    -6.436      0.000      0.000
REMARK INTER + INTRA:          -8.687
REMARK INTER:                  -7.565
REMARK INTRA:                  -1.123
REMARK UNBOUND:                -1.123
REMARK  3 active torsions:
REMARK  status: ('A' for Active; 'I' for Inactive)
REMARK    1  A    between atoms: C_9  and  C_12 
REMARK    2  A    between atoms: C_12  and  C_13 
REMARK    3  A    between atoms: C_12  and  C_24 
ROOT
ATOM      1  C   UNK d   1       1.980 -17.404 -38.515  0.00  0.00     0.063 C 
ENDROOT
BRANCH   1   2
ATOM      2  C   UNK d   1       1.436 -17.586 -39.869  0.00  0.00     0.182 C 
ATOM      3  C   UNK d   1       0.118 -17.162 -40.250  0.00  0.00     0.259 C 
ATOM      4  N   UNK d   1      -0.014 -15.821 -40.797  0.00  0.00    -0.188 NA
ATOM      5  O   UNK d   1      -0.974 -17.778 -40.191  0.00  0.00    -0.270 OA
ATOM      6  C   UNK d   1       0.988 -15.247 -41.382  0.00  0.00     0.174 C 
ATOM      7  S   UNK d   1       1.147 -13.616 -42.155  0.00  0.00    -0.090 SA
ATOM      8  N   UNK d   1       2.270 -15.822 -41.505  0.00  0.00    -0.295 N 
ATOM      9  C   UNK d   1       2.991 -13.593 -42.074  0.00  0.00     0.103 C 
ATOM     10  C   UNK d   1       3.245 -15.062 -42.193  0.00  0.00     0.144 C 
ATOM     11  C   UNK d   1       2.423 -17.135 -40.921  0.00  0.00     0.239 C 
ATOM     12  O   UNK d   1       3.356 -17.873 -41.287  0.00  0.00    -0.272 OA
ENDBRANCH   1   2
BRANCH   1  13
ATOM     13  C   UNK d   1       2.246 -18.541 -37.625  0.00  0.00     0.182 C 
ATOM     14  C   UNK d   1       2.215 -19.807 -38.482  0.00  0.00     0.239 C 
ATOM     15  O   UNK d   1       1.116 -20.301 -38.822  0.00  0.00    -0.272 OA
ATOM     16  N   UNK d   1       3.451 -20.431 -38.899  0.00  0.00    -0.295 N 
ATOM     17  C   UNK d   1       3.631 -21.384 -39.939  0.00  0.00     0.144 C 
ATOM     18  C   UNK d   1       4.622 -20.076 -38.187  0.00  0.00     0.174 C 
ATOM     19  C   UNK d   1       5.005 -21.277 -40.552  0.00  0.00     0.103 C 
ATOM     20  S   UNK d   1       5.938 -20.986 -38.975  0.00  0.00    -0.090 SA
ATOM     21  N   UNK d   1       4.645 -19.254 -37.213  0.00  0.00    -0.188 NA
ATOM     22  C   UNK d   1       3.405 -18.621 -36.776  0.00  0.00     0.259 C 
ATOM     23  O   UNK d   1       3.428 -18.166 -35.618  0.00  0.00    -0.270 OA
ENDBRANCH   1  13
BRANCH   1  24
ATOM     24  C   UNK d   1       1.373 -16.213 -37.805  0.00  0.00    -0.051 A 
ATOM     25  C   UNK d   1       0.293 -16.362 -36.969  0.00  0.00     0.009 A 
ATOM     26  C   UNK d   1      -0.232 -15.258 -36.347  0.00  0.00     0.019 A 
ATOM     27  C   UNK d   1       0.267 -14.005 -36.518  0.00  0.00     0.011 A 
ATOM     28  C   UNK d   1       1.345 -13.824 -37.348  0.00  0.00     0.019 A 
ATOM     29 Br   UNK d   1      -0.475 -12.467 -35.645  0.00  0.00    -0.051 Br
ATOM     30  C   UNK d   1       1.880 -14.947 -37.980  0.00  0.00     0.009 A 
ENDBRANCH   1  24
TORSDOF 3
ENDMDL
