MODEL 1
REMARK VINA RESULT:    -5.236      0.000      0.000
REMARK INTER + INTRA:          -6.271
REMARK INTER:                  -5.849
REMARK INTRA:                  -0.422
REMARK UNBOUND:                -0.422
REMARK  2 active torsions:
REMARK  status: ('A' for Active; 'I' for Inactive)
REMARK    1  A    between atoms: C_4  and  C_7 
REMARK    2  A    between atoms: C_14  and  C_15 
ROOT
ATOM      1  S   UNK d   1       0.508 -20.013 -38.240  0.00  0.00    -0.025 SA
ATOM      2  C   UNK d   1      -0.233 -18.505 -37.887  0.00  0.00     0.219 A 
ATOM      3  N   UNK d   1       0.820 -17.688 -37.907  0.00  0.00    -0.184 N 
ATOM      4  C   UNK d   1       0.287 -16.450 -37.629  0.00  0.00     0.205 A 
ATOM      5  N   UNK d   1      -1.029 -16.561 -37.457  0.00  0.00    -0.125 NA
ATOM      6  N   UNK d   1      -1.389 -17.820 -37.609  0.00  0.00    -0.120 NA
ATOM      7  N   UNK d   1       1.971 -18.169 -38.152  0.00  0.00    -0.154 NA
ATOM      8  C   UNK d   1       2.134 -19.457 -38.385  0.00  0.00     0.153 A 
ENDROOT
BRANCH   8   9
ATOM      9  C   UNK d   1       3.351 -20.218 -38.685  0.00  0.00     0.133 A 
ATOM     10  N   UNK d   1       3.874 -21.211 -37.955  0.00  0.00    -0.171 NA
ATOM     11  N   UNK d   1       4.990 -21.658 -38.554  0.00  0.00    -0.287 N 
ATOM     12  C   UNK d   1       5.190 -20.948 -39.682  0.00  0.00     0.131 A 
ATOM     13  H   UNK d   1       5.591 -22.431 -38.188  0.00  0.00     0.188 HD
ATOM     14  C   UNK d   1       4.142 -20.028 -39.763  0.00  0.00     0.061 A 
ATOM     15 Br   UNK d   1       3.946 -18.781 -41.165  0.00  0.00    -0.047 Br
ENDBRANCH   8   9
BRANCH   4  16
ATOM     16  C   UNK d   1       1.039 -15.183 -37.532  0.00  0.00     0.123 A 
ATOM     17  N   UNK d   1       1.666 -14.662 -38.603  0.00  0.00    -0.254 NA
ATOM     18  C   UNK d   1       2.352 -13.502 -38.501  0.00  0.00     0.136 A 
ATOM     19  C   UNK d   1       2.416 -12.839 -37.306  0.00  0.00     0.135 A 
ATOM     20  N   UNK d   1       1.789 -13.367 -36.254  0.00  0.00    -0.269 NA
ATOM     21  C   UNK d   1       1.097 -14.525 -36.328  0.00  0.00     0.151 A 
ENDBRANCH   4  16
TORSDOF 2
ENDMDL
