MODEL 1
REMARK VINA RESULT:    -5.749      0.000      0.000
REMARK INTER + INTRA:          -7.235
REMARK INTER:                  -6.757
REMARK INTRA:                  -0.477
REMARK UNBOUND:                -0.477
REMARK  3 active torsions:
REMARK  status: ('A' for Active; 'I' for Inactive)
REMARK    1  A    between atoms: C_6  and  C_13 
REMARK    2  A    between atoms: C_13  and  C_14 
REMARK    3  A    between atoms: C_13  and  C_26 
ROOT
ATOM      1  C   UNK d   1       0.800 -16.757 -39.052  0.00  0.00     0.063 C 
ENDROOT
BRANCH   1   2
ATOM      2  C   UNK d   1       0.209 -17.585 -37.946  0.00  0.00     0.184 C 
ATOM      3  C   UNK d   1       0.848 -17.147 -36.629  0.00  0.00     0.259 C 
ATOM      4  N   UNK d   1       2.264 -17.406 -36.491  0.00  0.00    -0.186 NA
ATOM      5  O   UNK d   1       0.131 -16.612 -35.785  0.00  0.00    -0.270 OA
ATOM      6  C   UNK d   1       2.793 -18.413 -37.106  0.00  0.00     0.200 A 
ATOM      7  S   UNK d   1       4.477 -19.004 -37.152  0.00  0.00    -0.032 SA
ATOM      8  N   UNK d   1       2.052 -19.302 -37.914  0.00  0.00    -0.197 N 
ATOM      9  C   UNK d   1       4.141 -20.392 -38.226  0.00  0.00     0.083 A 
ATOM     10  N   UNK d   1       2.756 -20.325 -38.490  0.00  0.00    -0.283 N 
ATOM     11  C   UNK d   1       5.032 -21.278 -38.663  0.00  0.00     0.052 C 
ATOM     12  H   UNK d   1       2.311 -21.080 -39.122  0.00  0.00     0.188 HD
ATOM     13  C   UNK d   1       0.626 -19.020 -38.020  0.00  0.00     0.259 C 
ATOM     14  O   UNK d   1      -0.192 -19.973 -38.164  0.00  0.00    -0.270 OA
ENDBRANCH   1   2
BRANCH   1  15
ATOM     15  C   UNK d   1       0.228 -16.917 -40.404  0.00  0.00     0.184 C 
ATOM     16  C   UNK d   1      -0.127 -18.259 -40.841  0.00  0.00     0.259 C 
ATOM     17  O   UNK d   1      -1.349 -18.632 -40.829  0.00  0.00    -0.270 OA
ATOM     18  N   UNK d   1       0.877 -19.200 -41.299  0.00  0.00    -0.197 N 
ATOM     19  N   UNK d   1       0.808 -20.556 -41.315  0.00  0.00    -0.283 N 
ATOM     20  C   UNK d   1       2.062 -18.615 -41.791  0.00  0.00     0.200 A 
ATOM     21  C   UNK d   1       1.928 -21.260 -41.824  0.00  0.00     0.083 A 
ATOM     22  H   UNK d   1      -0.033 -21.138 -40.973  0.00  0.00     0.188 HD
ATOM     23  C   UNK d   1       2.117 -22.555 -41.955  0.00  0.00     0.052 C 
ATOM     24  S   UNK d   1       3.099 -19.982 -42.276  0.00  0.00    -0.032 SA
ATOM     25  N   UNK d   1       2.269 -17.348 -41.844  0.00  0.00    -0.186 NA
ATOM     26  C   UNK d   1       1.272 -16.419 -41.388  0.00  0.00     0.259 C 
ATOM     27  O   UNK d   1       1.204 -15.233 -41.742  0.00  0.00    -0.270 OA
ENDBRANCH   1  15
BRANCH   1  28
ATOM     28  C   UNK d   1       0.848 -15.313 -38.684  0.00  0.00    -0.051 A 
ATOM     29  C   UNK d   1       2.045 -14.675 -38.452  0.00  0.00     0.009 A 
ATOM     30  C   UNK d   1       2.095 -13.343 -38.112  0.00  0.00     0.019 A 
ATOM     31  C   UNK d   1       0.925 -12.627 -37.999  0.00  0.00     0.011 A 
ATOM     32  C   UNK d   1      -0.311 -13.236 -38.225  0.00  0.00     0.019 A 
ATOM     33 Br   UNK d   1       0.962 -10.774 -37.528  0.00  0.00    -0.051 Br
ATOM     34  C   UNK d   1      -0.319 -14.573 -38.565  0.00  0.00     0.009 A 
ENDBRANCH   1  28
TORSDOF 3
ENDMDL
