/Users/jonathanwahrer/Desktop/Msc/3_Semester/Drug_Design_Praktikum/waehrer_HTS_screening/HTS_experiment/out/docking_results/vina_output/6y4q/1256_docked.pdbqt
 OpenBabel03232218153D

 30 33  0  0  0  0  0  0  0  0999 V2000
    0.6690  -19.9670  -38.1060 S   0  0  0  0  0  0  0  0  0  0  0  0
   -0.4980  -18.9290  -37.4030 C   0  0  0  0  0  0  0  0  0  0  0  0
   -1.7360  -19.1180  -36.8480 N   0  0  0  0  0  0  0  0  0  0  0  0
   -2.4290  -18.0910  -36.3320 C   0  0  0  0  0  0  0  0  0  0  0  0
   -3.5570  -18.1680  -35.8080 O   0  0  0  0  0  0  0  0  0  0  0  0
   -1.8050  -16.8680  -36.4080 C   0  0  0  0  0  3  0  0  0  0  0  0
   -0.5730  -16.6710  -36.9590 C   0  0  0  0  0  0  0  0  0  0  0  0
    0.1120  -17.7420  -37.4780 N   0  0  0  0  0  0  0  0  0  0  0  0
    1.2780  -17.7030  -37.9960 N   0  0  0  0  0  0  0  0  0  0  0  0
    1.8700  -18.7730  -38.4440 C   0  0  0  0  0  0  0  0  0  0  0  0
   -0.0350  -15.3120  -36.9560 C   0  0  0  0  0  0  0  0  0  0  0  0
   -0.8450  -14.3150  -36.9050 O   0  0  0  0  0  0  0  0  0  0  0  0
    1.3370  -14.9910  -37.0130 N   0  0  0  0  0  0  0  0  0  0  0  0
    2.0630  -15.7290  -37.0780 H   0  0  0  0  0  0  0  0  0  0  0  0
    1.7550  -13.5940  -36.9890 C   0  0  0  0  0  2  0  0  0  0  0  0
    2.4750  -13.2410  -38.2380 C   0  0  0  0  0  0  0  0  0  0  0  0
    3.3290  -12.1490  -38.2390 C   0  0  0  0  0  0  0  0  0  0  0  0
    3.9680  -11.7890  -39.3990 C   0  0  0  0  0  3  0  0  0  0  0  0
    3.7910  -12.4750  -40.5720 C   0  0  0  0  0  3  0  0  0  0  0  0
    2.9410  -13.5650  -40.5800 C   0  0  0  0  0  0  0  0  0  0  0  0
    2.2990  -13.9260  -39.4070 C   0  0  0  0  0  3  0  0  0  0  0  0
    2.6440  -14.5770  -42.1710 Br  0  0  0  0  0  0  0  0  0  0  0  0
    3.4980  -11.4680  -37.0540 O   0  0  0  0  0  0  0  0  0  0  0  0
    4.0300  -10.1440  -37.1060 C   0  0  0  0  0  1  0  0  0  0  0  0
    3.1800  -18.9370  -39.0380 N   0  0  0  0  0  0  0  0  0  0  0  0
    3.3620  -18.7800  -40.4300 C   0  0  0  0  0  2  0  0  0  0  0  0
    4.7890  -19.0930  -40.8110 C   0  0  0  0  0  2  0  0  0  0  0  0
    5.2390  -20.1950  -40.0780 O   0  0  0  0  0  0  0  0  0  0  0  0
    5.4550  -19.8300  -38.7430 C   0  0  0  0  0  2  0  0  0  0  0  0
    4.2180  -19.2610  -38.1200 C   0  0  0  0  0  2  0  0  0  0  0  0
  1  2  1  0  0  0  0
  2  3  2  0  0  0  0
  3  4  1  0  0  0  0
  4  5  2  0  0  0  0
  6  4  1  0  0  0  0
  7 11  1  0  0  0  0
  7  6  2  0  0  0  0
  8  2  1  0  0  0  0
  8  7  1  0  0  0  0
  9  8  1  0  0  0  0
 10  1  1  0  0  0  0
 10  9  2  0  0  0  0
 11 12  2  0  0  0  0
 13 15  1  0  0  0  0
 13 11  1  0  0  0  0
 14 13  1  0  0  0  0
 16 15  1  0  0  0  0
 17 16  1  0  0  0  0
 17 23  1  0  0  0  0
 18 17  2  0  0  0  0
 19 18  1  0  0  0  0
 20 19  2  0  0  0  0
 20 21  1  0  0  0  0
 21 16  2  0  0  0  0
 22 20  1  0  0  0  0
 24 23  1  0  0  0  0
 25 10  1  0  0  0  0
 25 30  1  0  0  0  0
 26 25  1  0  0  0  0
 27 26  1  0  0  0  0
 27 28  1  0  0  0  0
 28 29  1  0  0  0  0
 29 30  1  0  0  0  0
M  END
>  <Pose>
1

>  <Score>
-6.503

$$$$
