MODEL 1
REMARK VINA RESULT:    -6.521      0.000      0.000
REMARK INTER + INTRA:          -8.712
REMARK INTER:                  -8.046
REMARK INTRA:                  -0.666
REMARK UNBOUND:                -0.666
REMARK  4 active torsions:
REMARK  status: ('A' for Active; 'I' for Inactive)
REMARK    1  A    between atoms: N_3  and  C_15 
REMARK    2  A    between atoms: C_7  and  C_9 
REMARK    3  A    between atoms: C_15  and  C_16 
REMARK    4  A    between atoms: C_16  and  C_18 
ROOT
ATOM      1  S   UNK d   1       1.651 -17.426 -40.198  0.00  0.00    -0.063 SA
ATOM      2  C   UNK d   1       1.691 -17.222 -38.422  0.00  0.00     0.149 A 
ATOM      3  N   UNK d   1       1.104 -16.606 -37.449  0.00  0.00    -0.352 N 
ATOM      4  C   UNK d   1       1.689 -16.923 -36.200  0.00  0.00     0.145 A 
ATOM      5  C   UNK d   1       2.786 -17.881 -36.530  0.00  0.00     0.151 A 
ATOM      6  N   UNK d   1       2.746 -18.052 -38.002  0.00  0.00    -0.325 N 
ATOM      7  C   UNK d   1       3.421 -18.756 -39.006  0.00  0.00     0.053 A 
ATOM      8  C   UNK d   1       3.015 -18.580 -40.243  0.00  0.00     0.083 A 
ENDROOT
BRANCH   3   9
ATOM      9  C   UNK d   1      -0.039 -15.706 -37.689  0.00  0.00     0.208 C 
BRANCH   9  10
ATOM     10  C   UNK d   1       0.278 -14.424 -37.029  0.00  0.00     0.177 C 
ATOM     11  O   UNK d   1      -0.360 -14.031 -36.031  0.00  0.00    -0.291 OA
BRANCH  10  12
ATOM     12  C   UNK d   1       1.353 -13.586 -37.541  0.00  0.00     0.011 A 
ATOM     13  C   UNK d   1       1.650 -13.551 -38.905  0.00  0.00     0.016 A 
ATOM     14  C   UNK d   1       2.670 -12.771 -39.417  0.00  0.00     0.020 A 
ATOM     15  C   UNK d   1       3.396 -12.017 -38.534  0.00  0.00     0.011 A 
ATOM     16  C   UNK d   1       3.141 -12.015 -37.175  0.00  0.00     0.020 A 
ATOM     17 Br   UNK d   1       4.809 -10.937 -39.255  0.00  0.00    -0.051 Br
ATOM     18  C   UNK d   1       2.105 -12.812 -36.683  0.00  0.00     0.016 A 
ENDBRANCH  10  12
ENDBRANCH   9  10
ENDBRANCH   3   9
BRANCH   7  19
ATOM     19  C   UNK d   1       4.560 -19.701 -38.760  0.00  0.00    -0.009 A 
ATOM     20  C   UNK d   1       5.747 -19.269 -38.214  0.00  0.00     0.014 A 
ATOM     21  C   UNK d   1       6.825 -20.093 -37.971  0.00  0.00     0.001 A 
ATOM     22  C   UNK d   1       6.751 -21.432 -38.279  0.00  0.00     0.000 A 
ATOM     23  C   UNK d   1       5.583 -21.885 -38.824  0.00  0.00     0.001 A 
ATOM     24  C   UNK d   1       4.488 -21.035 -39.068  0.00  0.00     0.014 A 
ENDBRANCH   7  19
TORSDOF 4
ENDMDL
