MODEL 1
REMARK VINA RESULT:    -6.385      0.000      0.000
REMARK INTER + INTRA:          -7.598
REMARK INTER:                  -7.131
REMARK INTRA:                  -0.467
REMARK UNBOUND:                -0.467
REMARK  2 active torsions:
REMARK  status: ('A' for Active; 'I' for Inactive)
REMARK    1  A    between atoms: C_3  and  C_8 
REMARK       I    between atoms: N_12  and  C_14 
REMARK    2  A    between atoms: C_14  and  C_16 
ROOT
ATOM      1  C   UNK d   1      -2.026 -16.217 -37.552  0.00  0.00     0.273 C 
ATOM      2  N   UNK d   1      -2.363 -16.995 -36.366  0.00  0.00     0.095 NA
ATOM      3  C   UNK d   1      -2.104 -18.357 -36.350  0.00  0.00     0.290 C 
ATOM      4  C   UNK d   1      -1.006 -18.916 -37.230  0.00  0.00     0.155 C 
ATOM      5  N   UNK d   1      -0.763 -18.155 -38.377  0.00  0.00    -0.355 N 
ATOM      6  C   UNK d   1      -1.647 -17.069 -38.675  0.00  0.00     0.165 C 
ATOM      7  C   UNK d   1       0.294 -18.346 -39.303  0.00  0.00     0.189 C 
ATOM      8  O   UNK d   1       0.168 -17.573 -40.356  0.00  0.00    -0.171 OA
ATOM      9  H   UNK d   1      -2.046 -16.501 -35.507  0.00  0.00     0.316 HD
ENDROOT
BRANCH   7  10
ATOM     10  C   UNK d   1       1.440 -19.182 -39.315  0.00  0.00     0.038 A 
ATOM     11  C   UNK d   1       1.493 -20.194 -40.304  0.00  0.00     0.135 A 
ATOM     12  N   UNK d   1       2.586 -20.937 -40.473  0.00  0.00    -0.234 NA
ATOM     13  C   UNK d   1       3.677 -20.765 -39.724  0.00  0.00     0.192 A 
ATOM     14  C   UNK d   1       3.686 -19.801 -38.753  0.00  0.00     0.089 A 
ATOM     15  O   UNK d   1       4.815 -21.557 -39.915  0.00  0.00    -0.323 OA
ATOM     16  C   UNK d   1       2.563 -19.004 -38.543  0.00  0.00     0.051 A 
ATOM     17  N   UNK d   1       4.862 -19.584 -37.967  0.00  0.00    -0.322 N 
ATOM     18  C   UNK d   1       6.012 -20.391 -38.224  0.00  0.00     0.246 C 
ATOM     19  H   UNK d   1       4.899 -18.861 -37.233  0.00  0.00     0.169 HD
ATOM     20  O   UNK d   1       7.183 -20.056 -37.953  0.00  0.00    -0.271 OA
ATOM     21  C   UNK d   1       5.778 -21.723 -38.862  0.00  0.00     0.280 C 
ENDBRANCH   7  10
BRANCH   1  22
ATOM     22  C   UNK d   1      -0.938 -15.283 -37.092  0.00  0.00    -0.002 A 
ATOM     23  C   UNK d   1      -1.313 -13.984 -36.715  0.00  0.00     0.042 A 
ATOM     24 Cl   UNK d   1      -3.009 -13.524 -36.972  0.00  0.00    -0.084 Cl
ATOM     25  C   UNK d   1      -0.433 -13.074 -36.170  0.00  0.00     0.024 A 
ATOM     26  C   UNK d   1       0.893 -13.447 -35.978  0.00  0.00     0.002 A 
ATOM     27  C   UNK d   1       1.260 -14.729 -36.349  0.00  0.00     0.001 A 
ATOM     28  C   UNK d   1       0.366 -15.633 -36.896  0.00  0.00     0.011 A 
ENDBRANCH   1  22
TORSDOF 2
ENDMDL
