/Users/jonathanwahrer/Desktop/Msc/3_Semester/Drug_Design_Praktikum/waehrer_HTS_screening/HTS_experiment/out/docking_results/vina_output/6y4q/1271_docked.pdbqt
 OpenBabel03232218163D

 35 38  0  0  0  0  0  0  0  0999 V2000
    2.3770  -17.5330  -36.1760 C   0  0  0  0  0  0  0  0  0  0  0  0
    3.0700  -18.0500  -35.1530 N   0  0  0  0  0  0  0  0  0  0  0  0
    3.8990  -18.9220  -35.6660 N   0  0  0  0  0  0  0  0  0  0  0  0
    3.7570  -18.9790  -36.9880 N   0  0  0  0  0  0  0  0  0  0  0  0
    2.8150  -18.1300  -37.3690 C   0  0  0  0  0  0  0  0  0  0  0  0
    1.3550  -16.5120  -36.0360 C   0  0  0  0  0  0  0  0  0  0  0  0
    1.6280  -15.1330  -36.1920 N   0  0  0  0  0  0  0  0  0  0  0  0
    2.5940  -14.7710  -36.4140 H   0  0  0  0  0  0  0  0  0  0  0  0
    0.1870  -16.8730  -35.7670 O   0  0  0  0  0  0  0  0  0  0  0  0
    0.6360  -14.1610  -36.0620 N   0  0  0  0  0  0  0  0  0  0  0  0
    0.0000  -14.0590  -35.2530 H   0  0  0  0  0  0  0  0  0  0  0  0
    0.4740  -13.2100  -37.1350 C   0  0  0  0  0  0  0  0  0  0  0  0
   -0.7160  -12.7080  -37.3510 C   0  0  0  0  0  2  0  0  0  0  0  0
    1.6320  -12.8650  -37.9350 C   0  0  0  0  0  0  0  0  0  0  0  0
    1.8100  -13.4400  -39.1930 C   0  0  0  0  0  3  0  0  0  0  0  0
    2.8950  -13.1100  -39.9670 C   0  0  0  0  0  0  0  0  0  0  0  0
    3.1490  -13.8900  -41.6830 Br  0  0  0  0  0  0  0  0  0  0  0  0
    3.8460  -12.2020  -39.5340 C   0  0  0  0  0  3  0  0  0  0  0  0
    3.6840  -11.6340  -38.3080 C   0  0  0  0  0  3  0  0  0  0  0  0
    2.5790  -11.9720  -37.5260 C   0  0  0  0  0  3  0  0  0  0  0  0
    2.2320  -17.8160  -38.6530 C   0  0  0  0  0  2  0  0  0  0  0  0
    1.1930  -18.7100  -39.1240 N   0  0  0  0  0  0  0  0  0  0  0  0
   -0.1210  -18.0850  -39.0060 C   0  0  0  0  0  2  0  0  0  0  0  0
   -0.1270  -16.6760  -39.5580 C   0  0  0  0  0  2  0  0  0  0  0  0
    0.3240  -16.6870  -41.0070 C   0  0  0  0  0  2  0  0  0  0  0  0
    0.6130  -18.0860  -41.4700 C   0  0  0  0  0  2  0  0  0  0  0  0
    1.3750  -18.9550  -40.5520 C   0  0  0  0  0  2  0  0  0  0  0  0
    4.4990  -19.8510  -37.8190 C   0  0  0  0  0  0  0  0  0  0  0  0
    3.9470  -20.9270  -38.4460 N   0  0  0  0  0  0  0  0  0  0  0  0
    4.8870  -21.5120  -39.1180 O   0  0  0  0  0  0  0  0  0  0  0  0
    6.0120  -20.9070  -38.9800 N   0  0  0  0  0  0  0  0  0  0  0  0
    5.8160  -19.8560  -38.1720 C   0  0  0  0  0  0  0  0  0  0  0  0
    6.7690  -18.9170  -37.7480 N   0  0  0  0  0  0  0  0  0  0  0  0
    7.1960  -18.8610  -36.7980 H   0  0  0  0  0  0  0  0  0  0  0  0
    7.0960  -18.1960  -38.4280 H   0  0  0  0  0  0  0  0  0  0  0  0
  1  6  1  0  0  0  0
  1  2  1  0  0  0  0
  3  2  2  0  0  0  0
  4  3  1  0  0  0  0
  5  4  1  0  0  0  0
  5  1  2  0  0  0  0
  6  9  2  0  0  0  0
  7 10  1  0  0  0  0
  7  6  1  0  0  0  0
  8  7  1  0  0  0  0
 10 11  1  0  0  0  0
 12 10  1  0  0  0  0
 13 12  2  0  0  0  0
 14 20  1  0  0  0  0
 14 12  1  0  0  0  0
 15 14  2  0  0  0  0
 16 18  2  0  0  0  0
 16 15  1  0  0  0  0
 17 16  1  0  0  0  0
 18 19  1  0  0  0  0
 19 20  2  0  0  0  0
 21  5  1  0  0  0  0
 22 23  1  0  0  0  0
 22 21  1  0  0  0  0
 24 23  1  0  0  0  0
 25 24  1  0  0  0  0
 26 25  1  0  0  0  0
 26 27  1  0  0  0  0
 27 22  1  0  0  0  0
 28  4  1  0  0  0  0
 29 28  2  0  0  0  0
 30 31  1  0  0  0  0
 30 29  1  0  0  0  0
 31 32  2  0  0  0  0
 32 28  1  0  0  0  0
 32 33  1  0  0  0  0
 33 34  1  0  0  0  0
 35 33  1  0  0  0  0
M  END
>  <Pose>
1

>  <Score>
-6.861

$$$$
