MODEL 1
REMARK VINA RESULT:    -6.861      0.000      0.000
REMARK INTER + INTRA:         -11.972
REMARK INTER:                  -9.870
REMARK INTRA:                  -2.102
REMARK UNBOUND:                -2.102
REMARK  8 active torsions:
REMARK  status: ('A' for Active; 'I' for Inactive)
REMARK    1  A    between atoms: C_4  and  C_8 
REMARK    2  A    between atoms: C_8  and  N_10 
REMARK    3  A    between atoms: N_10  and  N_11 
REMARK       I    between atoms: N_11  and  C_12 
REMARK    4  A    between atoms: C_12  and  C_14 
REMARK    5  A    between atoms: N_17  and  C_26 
REMARK    6  A    between atoms: C_18  and  C_19 
REMARK    7  A    between atoms: C_19  and  N_20 
REMARK    8  A    between atoms: C_30  and  N_31 
ROOT
ATOM      1  C   UNK d   1       2.377 -17.533 -36.176  0.00  0.00     0.176 A 
ATOM      2  N   UNK d   1       3.070 -18.050 -35.153  0.00  0.00    -0.124 NA
ATOM      3  N   UNK d   1       3.899 -18.922 -35.666  0.00  0.00    -0.058 NA
ATOM      4  N   UNK d   1       3.757 -18.979 -36.988  0.00  0.00    -0.191 N 
ATOM      5  C   UNK d   1       2.815 -18.130 -37.369  0.00  0.00     0.104 A 
ENDROOT
BRANCH   1   6
ATOM      6  C   UNK d   1       1.355 -16.512 -36.036  0.00  0.00     0.292 C 
ATOM      7  N   UNK d   1       1.628 -15.133 -36.192  0.00  0.00    -0.264 N 
ATOM      8  H   UNK d   1       2.594 -14.771 -36.414  0.00  0.00     0.190 HD
ATOM      9  O   UNK d   1       0.187 -16.873 -35.767  0.00  0.00    -0.264 OA
BRANCH   7  10
ATOM     10  N   UNK d   1       0.636 -14.161 -36.062  0.00  0.00    -0.298 N 
ATOM     11  H   UNK d   1       0.000 -14.059 -35.253  0.00  0.00     0.187 HD
BRANCH  10  12
ATOM     12  C   UNK d   1       0.474 -13.210 -37.135  0.00  0.00     0.049 C 
ATOM     13  C   UNK d   1      -0.716 -12.708 -37.351  0.00  0.00     0.045 C 
BRANCH  12  14
ATOM     14  C   UNK d   1       1.632 -12.865 -37.935  0.00  0.00    -0.008 A 
ATOM     15  C   UNK d   1       1.810 -13.440 -39.193  0.00  0.00     0.032 A 
ATOM     16  C   UNK d   1       2.895 -13.110 -39.967  0.00  0.00     0.011 A 
ATOM     17 Br   UNK d   1       3.149 -13.890 -41.683  0.00  0.00    -0.051 Br
ATOM     18  C   UNK d   1       3.846 -12.202 -39.534  0.00  0.00     0.019 A 
ATOM     19  C   UNK d   1       3.684 -11.634 -38.308  0.00  0.00     0.002 A 
ATOM     20  C   UNK d   1       2.579 -11.972 -37.526  0.00  0.00     0.014 A 
ENDBRANCH  12  14
ENDBRANCH  10  12
ENDBRANCH   7  10
ENDBRANCH   1   6
BRANCH   5  21
ATOM     21  C   UNK d   1       2.232 -17.816 -38.653  0.00  0.00     0.334 C 
BRANCH  21  22
ATOM     22  N   UNK d   1       1.193 -18.710 -39.124  0.00  0.00     0.094 NA
ATOM     23  C   UNK d   1      -0.121 -18.085 -39.006  0.00  0.00     0.273 C 
ATOM     24  C   UNK d   1      -0.127 -16.676 -39.558  0.00  0.00     0.030 C 
ATOM     25  C   UNK d   1       0.324 -16.687 -41.007  0.00  0.00     0.003 C 
ATOM     26  C   UNK d   1       0.613 -18.086 -41.470  0.00  0.00     0.030 C 
ATOM     27  C   UNK d   1       1.375 -18.955 -40.552  0.00  0.00     0.273 C 
ENDBRANCH  21  22
ENDBRANCH   5  21
BRANCH   4  28
ATOM     28  C   UNK d   1       4.499 -19.851 -37.819  0.00  0.00     0.229 A 
ATOM     29  N   UNK d   1       3.947 -20.927 -38.446  0.00  0.00    -0.081 NA
ATOM     30  O   UNK d   1       4.887 -21.512 -39.118  0.00  0.00    -0.103 OA
ATOM     31  N   UNK d   1       6.012 -20.907 -38.980  0.00  0.00    -0.083 NA
ATOM     32  C   UNK d   1       5.816 -19.856 -38.172  0.00  0.00     0.201 A 
BRANCH  32  33
ATOM     33  N   UNK d   1       6.769 -18.917 -37.748  0.00  0.00    -0.379 N 
ATOM     34  H   UNK d   1       7.196 -18.861 -36.798  0.00  0.00     0.158 HD
ATOM     35  H   UNK d   1       7.096 -18.196 -38.428  0.00  0.00     0.158 HD
ENDBRANCH  32  33
ENDBRANCH   4  28
TORSDOF 8
ENDMDL
