MODEL 1
REMARK VINA RESULT:    -6.444      0.000      0.000
REMARK INTER + INTRA:         -10.635
REMARK INTER:                  -9.081
REMARK INTRA:                  -1.554
REMARK UNBOUND:                -1.554
REMARK  7 active torsions:
REMARK  status: ('A' for Active; 'I' for Inactive)
REMARK    1  A    between atoms: C_4  and  C_8 
REMARK    2  A    between atoms: N_9  and  C_26 
REMARK    3  A    between atoms: C_15  and  C_17 
REMARK    4  A    between atoms: C_20  and  O_23 
REMARK    5  A    between atoms: C_26  and  C_27 
REMARK    6  A    between atoms: C_27  and  C_28 
REMARK    7  A    between atoms: C_28  and  N_29 
ROOT
ATOM      1  C   UNK d   1       0.080 -14.216 -37.672  0.00  0.00     0.161 C 
ATOM      2  N   UNK d   1      -0.700 -14.162 -38.892  0.00  0.00    -0.332 N 
ATOM      3  C   UNK d   1       0.122 -14.666 -39.930  0.00  0.00     0.295 C 
ATOM      4  O   UNK d   1       0.020 -14.381 -41.128  0.00  0.00    -0.264 OA
ATOM      5  C   UNK d   1       1.092 -15.573 -39.291  0.00  0.00     0.250 C 
ATOM      6  O   UNK d   1       2.000 -16.239 -39.846  0.00  0.00    -0.282 OA
ATOM      7  C   UNK d   1       0.768 -15.536 -37.871  0.00  0.00     0.062 C 
ATOM      8  C   UNK d   1       1.015 -16.503 -36.999  0.00  0.00     0.130 C 
ATOM      9  O   UNK d   1       0.566 -16.262 -35.680  0.00  0.00    -0.190 OA
ENDROOT
BRANCH   1  10
ATOM     10  C   UNK d   1       1.003 -13.074 -37.603  0.00  0.00    -0.029 A 
ATOM     11  C   UNK d   1       0.552 -11.794 -37.888  0.00  0.00     0.028 A 
ATOM     12  C   UNK d   1       1.402 -10.685 -37.808  0.00  0.00     0.011 A 
ATOM     13 Br   UNK d   1       0.742  -8.926 -38.211  0.00  0.00    -0.051 Br
ATOM     14  C   UNK d   1       2.713 -10.847 -37.442  0.00  0.00     0.019 A 
ATOM     15  C   UNK d   1       3.175 -12.109 -37.155  0.00  0.00     0.002 A 
ATOM     16  C   UNK d   1       2.317 -13.198 -37.240  0.00  0.00     0.009 A 
ENDBRANCH   1  10
BRANCH   8  17
ATOM     17  C   UNK d   1       1.701 -17.747 -37.332  0.00  0.00     0.007 A 
ATOM     18  C   UNK d   1       1.100 -18.835 -37.891  0.00  0.00    -0.046 A 
ATOM     19  C   UNK d   1       1.827 -20.014 -38.134  0.00  0.00     0.044 A 
ATOM     20  C   UNK d   1      -0.323 -18.778 -38.300  0.00  0.00     0.049 C 
ATOM     21  C   UNK d   1       3.156 -20.135 -37.829  0.00  0.00     0.068 A 
ATOM     22  C   UNK d   1       3.767 -19.036 -37.265  0.00  0.00     0.037 A 
ATOM     23  C   UNK d   1       3.068 -17.882 -37.024  0.00  0.00     0.017 A 
BRANCH  21  24
ATOM     24  O   UNK d   1       3.882 -21.302 -38.069  0.00  0.00    -0.356 OA
ATOM     25  C   UNK d   1       5.144 -21.246 -38.683  0.00  0.00     0.210 C 
ENDBRANCH  21  24
ENDBRANCH   8  17
BRANCH   2  26
ATOM     26  C   UNK d   1      -2.059 -13.668 -38.972  0.00  0.00     0.129 C 
BRANCH  26  27
ATOM     27  C   UNK d   1      -2.765 -13.636 -37.653  0.00  0.00     0.048 C 
BRANCH  27  28
ATOM     28  C   UNK d   1      -3.329 -12.326 -37.251  0.00  0.00     0.236 C 
BRANCH  28  29
ATOM     29  N   UNK d   1      -2.842 -11.796 -36.028  0.00  0.00    -0.067 N 
ATOM     30  C   UNK d   1      -2.359 -10.410 -36.136  0.00  0.00     0.261 C 
ATOM     31  C   UNK d   1      -1.394 -10.228 -34.962  0.00  0.00     0.195 C 
ATOM     32  O   UNK d   1      -1.489 -11.261 -34.047  0.00  0.00    -0.388 OA
ATOM     33  C   UNK d   1      -2.815 -11.480 -33.676  0.00  0.00     0.195 C 
ATOM     34  C   UNK d   1      -3.687 -11.847 -34.890  0.00  0.00     0.261 C 
ATOM     35  H   UNK d   1      -1.969 -12.354 -35.779  0.00  0.00     0.280 HD
ENDBRANCH  28  29
ENDBRANCH  27  28
ENDBRANCH  26  27
ENDBRANCH   2  26
TORSDOF 7
ENDMDL
