MODEL 1
REMARK VINA RESULT:    -6.810      0.000      0.000
REMARK INTER + INTRA:          -8.977
REMARK INTER:                  -8.402
REMARK INTRA:                  -0.575
REMARK UNBOUND:                -0.575
REMARK  4 active torsions:
REMARK  status: ('A' for Active; 'I' for Inactive)
REMARK    1  A    between atoms: C_4  and  C_8 
REMARK       I    between atoms: C_8  and  N_10 
REMARK    2  A    between atoms: N_10  and  C_11 
REMARK    3  A    between atoms: C_19  and  C_22 
REMARK    4  A    between atoms: C_22  and  C_23 
ROOT
ATOM      1  C   UNK d   1       3.208 -20.946 -39.615  0.00  0.00     0.105 C 
ATOM      2  C   UNK d   1       3.085 -19.525 -40.132  0.00  0.00     0.152 C 
ATOM      3  N   UNK d   1       2.677 -18.786 -38.953  0.00  0.00    -0.335 N 
ATOM      4  C   UNK d   1       2.754 -19.616 -37.768  0.00  0.00     0.181 C 
ATOM      5  C   UNK d   1       3.719 -20.719 -38.221  0.00  0.00     0.061 C 
ATOM      6  C   UNK d   1       3.313 -18.820 -36.677  0.00  0.00     0.241 C 
ATOM      7  O   UNK d   1       4.293 -19.211 -36.025  0.00  0.00    -0.271 OA
ATOM      8  N   UNK d   1       2.698 -17.576 -36.380  0.00  0.00    -0.346 N 
ATOM      9  C   UNK d   1       1.994 -16.864 -37.423  0.00  0.00     0.181 C 
ATOM     10  C   UNK d   1       2.230 -17.435 -38.768  0.00  0.00     0.243 C 
ATOM     11  O   UNK d   1       2.037 -16.725 -39.790  0.00  0.00    -0.271 OA
ATOM     12  H   UNK d   1       2.733 -17.144 -35.430  0.00  0.00     0.163 HD
ENDROOT
BRANCH   1  13
ATOM     13  N   UNK d   1       4.119 -21.731 -40.428  0.00  0.00    -0.351 N 
ATOM     14  C   UNK d   1       3.562 -22.499 -41.471  0.00  0.00     0.252 C 
ATOM     15  O   UNK d   1       2.291 -22.480 -41.661  0.00  0.00    -0.268 OA
ATOM     16  H   UNK d   1       5.135 -21.746 -40.267  0.00  0.00     0.163 HD
BRANCH  14  17
ATOM     17  C   UNK d   1       4.379 -23.322 -42.347  0.00  0.00     0.033 A 
ATOM     18  C   UNK d   1       5.660 -22.917 -42.699  0.00  0.00     0.036 A 
ATOM     19  C   UNK d   1       6.434 -23.690 -43.520  0.00  0.00     0.011 A 
ATOM     20 Br   UNK d   1       8.198 -23.121 -43.998  0.00  0.00    -0.051 Br
ATOM     21  C   UNK d   1       5.981 -24.878 -44.019  0.00  0.00     0.019 A 
ATOM     22  C   UNK d   1       4.715 -25.281 -43.671  0.00  0.00     0.002 A 
ATOM     23  C   UNK d   1       3.923 -24.504 -42.840  0.00  0.00     0.017 A 
ENDBRANCH  14  17
ENDBRANCH   1  13
BRANCH   9  24
ATOM     24  C   UNK d   1       0.519 -16.706 -37.123  0.00  0.00     0.073 C 
BRANCH  24  25
ATOM     25  C   UNK d   1       0.150 -15.336 -36.731  0.00  0.00    -0.056 A 
ATOM     26  C   UNK d   1       1.132 -14.445 -36.337  0.00  0.00     0.007 A 
ATOM     27  C   UNK d   1       0.795 -13.162 -35.969  0.00  0.00     0.001 A 
ATOM     28  C   UNK d   1      -0.509 -12.704 -35.972  0.00  0.00     0.000 A 
ATOM     29  C   UNK d   1      -1.490 -13.590 -36.363  0.00  0.00     0.001 A 
ATOM     30  C   UNK d   1      -1.171 -14.881 -36.736  0.00  0.00     0.007 A 
ENDBRANCH  24  25
ENDBRANCH   9  24
TORSDOF 4
ENDMDL
