MODEL 1
REMARK VINA RESULT:    -6.326      0.000      0.000
REMARK INTER + INTRA:          -9.739
REMARK INTER:                  -8.545
REMARK INTRA:                  -1.193
REMARK UNBOUND:                -1.193
REMARK  6 active torsions:
REMARK  status: ('A' for Active; 'I' for Inactive)
REMARK    1  A    between atoms: C_4  and  C_8 
REMARK    2  A    between atoms: N_9  and  C_28 
REMARK    3  A    between atoms: C_15  and  C_17 
REMARK    4  A    between atoms: C_28  and  C_29 
REMARK    5  A    between atoms: C_29  and  C_30 
REMARK    6  A    between atoms: C_30  and  N_31 
ROOT
ATOM      1  C   UNK d   1       1.746 -19.133 -39.228  0.00  0.00     0.161 C 
ATOM      2  N   UNK d   1       2.454 -18.784 -38.012  0.00  0.00    -0.332 N 
ATOM      3  C   UNK d   1       3.232 -19.932 -37.607  0.00  0.00     0.295 C 
ATOM      4  O   UNK d   1       3.636 -20.212 -36.472  0.00  0.00    -0.264 OA
ATOM      5  C   UNK d   1       3.437 -20.691 -38.837  0.00  0.00     0.251 C 
ATOM      6  O   UNK d   1       4.060 -21.783 -38.995  0.00  0.00    -0.282 OA
ATOM      7  C   UNK d   1       2.785 -19.977 -39.922  0.00  0.00     0.064 C 
ATOM      8  C   UNK d   1       3.006 -20.073 -41.223  0.00  0.00     0.149 C 
ATOM      9  O   UNK d   1       2.179 -19.303 -42.090  0.00  0.00    -0.189 OA
ENDROOT
BRANCH   1  10
ATOM     10  C   UNK d   1       0.512 -19.902 -39.021  0.00  0.00    -0.029 A 
ATOM     11  C   UNK d   1       0.062 -20.708 -40.071  0.00  0.00     0.028 A 
ATOM     12  C   UNK d   1      -1.072 -21.446 -39.942  0.00  0.00     0.011 A 
ATOM     13 Br   UNK d   1      -1.669 -22.541 -41.389  0.00  0.00    -0.051 Br
ATOM     14  C   UNK d   1      -1.804 -21.420 -38.779  0.00  0.00     0.019 A 
ATOM     15  C   UNK d   1      -1.388 -20.638 -37.727  0.00  0.00     0.002 A 
ATOM     16  C   UNK d   1      -0.229 -19.884 -37.859  0.00  0.00     0.009 A 
ENDBRANCH   1  10
BRANCH   8  17
ATOM     17  C   UNK d   1       4.049 -20.913 -41.757  0.00  0.00     0.102 A 
ATOM     18  N   UNK d   1       3.969 -22.202 -42.150  0.00  0.00    -0.302 N 
ATOM     19  C   UNK d   1       5.182 -22.584 -42.619  0.00  0.00     0.140 A 
ATOM     20  C   UNK d   1       2.989 -23.122 -42.149  0.00  0.00     0.099 A 
ATOM     21  N   UNK d   1       6.049 -21.537 -42.529  0.00  0.00    -0.233 NA
ATOM     22  C   UNK d   1       5.474 -23.836 -43.093  0.00  0.00    -0.015 A 
ATOM     23  C   UNK d   1       5.339 -20.515 -41.996  0.00  0.00     0.063 A 
ATOM     24  C   UNK d   1       5.903 -19.164 -41.720  0.00  0.00     0.073 C 
ATOM     25  C   UNK d   1       4.463 -24.772 -43.089  0.00  0.00     0.012 A 
ATOM     26  C   UNK d   1       6.828 -24.201 -43.600  0.00  0.00     0.052 C 
ATOM     27  C   UNK d   1       3.227 -24.389 -42.610  0.00  0.00     0.018 A 
ENDBRANCH   8  17
BRANCH   2  28
ATOM     28  C   UNK d   1       2.398 -17.515 -37.306  0.00  0.00     0.129 C 
BRANCH  28  29
ATOM     29  C   UNK d   1       1.426 -16.540 -37.875  0.00  0.00     0.048 C 
BRANCH  29  30
ATOM     30  C   UNK d   1       1.694 -15.099 -37.520  0.00  0.00     0.235 C 
BRANCH  30  31
ATOM     31  N   UNK d   1       1.116 -14.798 -36.232  0.00  0.00    -0.079 N 
ATOM     32  C   UNK d   1       1.097 -13.364 -36.005  0.00  0.00     0.269 C 
ATOM     33  C   UNK d   1      -0.267 -15.233 -36.238  0.00  0.00     0.269 C 
ATOM     34  H   UNK d   1       1.580 -15.313 -35.453  0.00  0.00     0.278 HD
ENDBRANCH  30  31
ENDBRANCH  29  30
ENDBRANCH  28  29
ENDBRANCH   2  28
TORSDOF 6
ENDMDL
