MODEL 1
REMARK VINA RESULT:    -6.191      0.000      0.000
REMARK INTER + INTRA:          -6.754
REMARK INTER:                  -6.553
REMARK INTRA:                  -0.201
REMARK UNBOUND:                -0.201
REMARK  1 active torsions:
REMARK  status: ('A' for Active; 'I' for Inactive)
REMARK    1  A    between atoms: C_5  and  C_8 
ROOT
ATOM      1  C   UNK d   1       1.383 -18.891 -37.790  0.00  0.00     0.102 A 
ATOM      2  C   UNK d   1       0.426 -19.354 -38.770  0.00  0.00     0.068 A 
ATOM      3  C   UNK d   1       0.803 -20.177 -39.794  0.00  0.00     0.124 A 
ATOM      4  N   UNK d   1       2.150 -20.643 -39.941  0.00  0.00    -0.343 N 
ATOM      5  C   UNK d   1       3.072 -20.198 -38.954  0.00  0.00     0.048 A 
ATOM      6  C   UNK d   1       2.737 -19.416 -37.966  0.00  0.00     0.055 A 
ATOM      7  C   UNK d   1       3.940 -19.183 -37.110  0.00  0.00     0.292 A 
ATOM      8  O   UNK d   1       3.916 -18.458 -36.070  0.00  0.00    -0.259 OA
ATOM      9  O   UNK d   1       4.950 -19.882 -37.686  0.00  0.00    -0.312 OA
ATOM     10  C   UNK d   1       4.552 -20.520 -38.851  0.00  0.00     0.237 A 
ATOM     11  N   UNK d   1      -0.133 -20.586 -40.710  0.00  0.00    -0.289 N 
ATOM     12  C   UNK d   1      -1.406 -20.187 -40.608  0.00  0.00     0.332 A 
ATOM     13  O   UNK d   1      -2.251 -20.575 -41.463  0.00  0.00    -0.246 OA
ATOM     14  N   UNK d   1      -1.766 -19.378 -39.598  0.00  0.00    -0.270 N 
ATOM     15  C   UNK d   1      -0.921 -18.937 -38.669  0.00  0.00     0.262 A 
ATOM     16  O   UNK d   1      -1.249 -18.182 -37.720  0.00  0.00    -0.267 OA
ATOM     17  C   UNK d   1      -3.170 -18.968 -39.527  0.00  0.00     0.164 C 
ATOM     18  C   UNK d   1       0.331 -21.460 -41.777  0.00  0.00     0.163 C 
ATOM     19  H   UNK d   1       2.394 -21.265 -40.733  0.00  0.00     0.167 HD
ENDROOT
BRANCH   1  20
ATOM     20  C   UNK d   1       1.359 -17.459 -37.505  0.00  0.00    -0.045 A 
ATOM     21  C   UNK d   1       1.001 -16.963 -36.288  0.00  0.00     0.009 A 
ATOM     22  C   UNK d   1       0.982 -15.578 -36.045  0.00  0.00     0.019 A 
ATOM     23  C   UNK d   1       1.329 -14.712 -37.049  0.00  0.00     0.011 A 
ATOM     24 Br   UNK d   1       1.318 -12.810 -36.765  0.00  0.00    -0.051 Br
ATOM     25  C   UNK d   1       1.689 -15.196 -38.273  0.00  0.00     0.019 A 
ATOM     26  C   UNK d   1       1.704 -16.583 -38.504  0.00  0.00     0.009 A 
ENDBRANCH   1  20
TORSDOF 1
ENDMDL
