/Users/jonathanwahrer/Desktop/Msc/3_Semester/Drug_Design_Praktikum/waehrer_HTS_screening/HTS_experiment/out/docking_results/vina_output/6y4q/1299_docked.pdbqt
 OpenBabel03232218183D

 36 39  0  0  0  0  0  0  0  0999 V2000
    0.7000  -18.1350  -38.7840 C   0  0  0  0  0  0  0  0  0  0  0  0
   -0.6160  -18.2220  -38.4070 N   0  0  0  0  0  0  0  0  0  0  0  0
   -0.9290  -19.4970  -38.5120 N   0  0  0  0  0  0  0  0  0  0  0  0
    0.0710  -20.2080  -38.9180 N   0  0  0  0  0  0  0  0  0  0  0  0
    1.1430  -19.3890  -39.1100 C   0  0  0  0  0  0  0  0  0  0  0  0
    1.3840  -16.8480  -38.7880 C   0  0  0  0  0  0  0  0  0  0  0  0
    1.3090  -15.8510  -39.7860 N   0  0  0  0  0  0  0  0  0  0  0  0
    0.7460  -15.9020  -40.6640 H   0  0  0  0  0  0  0  0  0  0  0  0
    2.1520  -16.5370  -37.7990 O   0  0  0  0  0  0  0  0  0  0  0  0
    2.0800  -14.6620  -39.5620 N   0  0  0  0  0  0  0  0  0  0  0  0
    2.7300  -14.0980  -40.5040 C   0  0  0  0  0  3  0  0  0  0  0  0
    3.5200  -12.8790  -40.2730 C   0  0  0  0  0  0  0  0  0  0  0  0
    4.3360  -12.3760  -41.2380 C   0  0  0  0  0  3  0  0  0  0  0  0
    5.0780  -11.2300  -41.0200 C   0  0  0  0  0  0  0  0  0  0  0  0
    5.0170  -10.5620  -39.8220 C   0  0  0  0  0  0  0  0  0  0  0  0
    6.2280  -10.5270  -42.3920 Br  0  0  0  0  0  0  0  0  0  0  0  0
    4.1910  -11.0700  -38.8410 C   0  0  0  0  0  0  0  0  0  0  0  0
    4.0980  -10.1500  -37.1710 Br  0  0  0  0  0  0  0  0  0  0  0  0
    3.4530  -12.2150  -39.0680 C   0  0  0  0  0  3  0  0  0  0  0  0
    5.7760   -9.4150  -39.6410 O   0  0  0  0  0  0  0  0  0  0  0  0
    5.4470   -8.4930  -39.8680 H   0  0  0  0  0  0  0  0  0  0  0  0
   -1.4560  -17.1650  -37.9940 C   0  0  0  0  0  0  0  0  0  0  0  0
   -1.8150  -16.0360  -38.6540 N   0  0  0  0  0  0  0  0  0  0  0  0
   -2.5970  -15.3450  -37.9060 O   0  0  0  0  0  0  0  0  0  0  0  0
   -2.8140  -15.9120  -36.7620 N   0  0  0  0  0  0  0  0  0  0  0  0
   -2.1050  -17.0730  -36.7760 C   0  0  0  0  0  0  0  0  0  0  0  0
   -2.0680  -18.0000  -35.7040 N   0  0  0  0  0  0  0  0  0  0  0  0
   -2.8200  -18.7120  -35.6500 H   0  0  0  0  0  0  0  0  0  0  0  0
   -1.3350  -18.0090  -34.9720 H   0  0  0  0  0  0  0  0  0  0  0  0
    2.4830  -19.7460  -39.5740 C   0  0  0  0  0  2  0  0  0  0  0  0
    3.1330  -20.7770  -38.7790 N   0  0  0  0  0  0  0  0  0  0  0  0
    4.3100  -21.2810  -39.4750 C   0  0  0  0  0  2  0  0  0  0  0  0
    5.5510  -20.5240  -39.0950 C   0  0  0  0  0  2  0  0  0  0  0  0
    5.3100  -19.2570  -38.5970 O   0  0  0  0  0  0  0  0  0  0  0  0
    4.5020  -19.2240  -37.4710 C   0  0  0  0  0  2  0  0  0  0  0  0
    3.4860  -20.3350  -37.4530 C   0  0  0  0  0  2  0  0  0  0  0  0
  1  2  1  0  0  0  0
  2 22  1  0  0  0  0
  3  2  1  0  0  0  0
  4  3  2  0  0  0  0
  5  4  1  0  0  0  0
  5  1  2  0  0  0  0
  6  1  1  0  0  0  0
  6  9  2  0  0  0  0
  7 10  1  0  0  0  0
  7  6  1  0  0  0  0
  8  7  1  0  0  0  0
 11 12  1  0  0  0  0
 11 10  2  0  0  0  0
 12 19  1  0  0  0  0
 13 14  1  0  0  0  0
 13 12  2  0  0  0  0
 14 15  2  0  0  0  0
 15 20  1  0  0  0  0
 15 17  1  0  0  0  0
 16 14  1  0  0  0  0
 17 18  1  0  0  0  0
 19 17  2  0  0  0  0
 21 20  1  0  0  0  0
 22 26  1  0  0  0  0
 23 22  2  0  0  0  0
 23 24  1  0  0  0  0
 24 25  1  0  0  0  0
 26 25  2  0  0  0  0
 26 27  1  0  0  0  0
 27 28  1  0  0  0  0
 27 29  1  0  0  0  0
 30  5  1  0  0  0  0
 30 31  1  0  0  0  0
 31 36  1  0  0  0  0
 32 33  1  0  0  0  0
 32 31  1  0  0  0  0
 33 34  1  0  0  0  0
 34 35  1  0  0  0  0
 35 36  1  0  0  0  0
M  END
>  <Pose>
1

>  <Score>
-5.802

$$$$
