MODEL 1
REMARK VINA RESULT:    -5.802      0.000      0.000
REMARK INTER + INTRA:          -9.637
REMARK INTER:                  -8.176
REMARK INTRA:                  -1.461
REMARK UNBOUND:                -1.461
REMARK  8 active torsions:
REMARK  status: ('A' for Active; 'I' for Inactive)
REMARK    1  A    between atoms: C_3  and  O_32 
REMARK    2  A    between atoms: C_6  and  C_8 
REMARK    3  A    between atoms: N_9  and  N_10 
REMARK       I    between atoms: N_10  and  C_11 
REMARK    4  A    between atoms: C_11  and  C_13 
REMARK    5  A    between atoms: N_14  and  C_25 
REMARK    6  A    between atoms: C_17  and  C_18 
REMARK    7  A    between atoms: C_18  and  N_19 
REMARK    8  A    between atoms: C_29  and  N_30 
ROOT
ATOM      1  C   UNK d   1       0.700 -18.135 -38.784  0.00  0.00     0.160 A 
ATOM      2  N   UNK d   1      -0.616 -18.222 -38.407  0.00  0.00    -0.184 N 
ATOM      3  N   UNK d   1      -0.929 -19.497 -38.512  0.00  0.00    -0.058 NA
ATOM      4  N   UNK d   1       0.071 -20.208 -38.918  0.00  0.00    -0.132 NA
ATOM      5  C   UNK d   1       1.143 -19.389 -39.110  0.00  0.00     0.121 A 
ENDROOT
BRANCH   1   6
ATOM      6  C   UNK d   1       1.384 -16.848 -38.788  0.00  0.00     0.292 C 
ATOM      7  N   UNK d   1       1.309 -15.851 -39.786  0.00  0.00    -0.242 N 
ATOM      8  H   UNK d   1       0.746 -15.902 -40.664  0.00  0.00     0.192 HD
ATOM      9  O   UNK d   1       2.152 -16.537 -37.799  0.00  0.00    -0.264 OA
BRANCH   7  10
ATOM     10  N   UNK d   1       2.080 -14.662 -39.562  0.00  0.00    -0.183 NA
ATOM     11  C   UNK d   1       2.730 -14.098 -40.504  0.00  0.00     0.150 C 
BRANCH  11  12
ATOM     12  C   UNK d   1       3.520 -12.879 -40.273  0.00  0.00    -0.014 A 
ATOM     13  C   UNK d   1       4.336 -12.376 -41.238  0.00  0.00     0.035 A 
ATOM     14  C   UNK d   1       5.078 -11.230 -41.020  0.00  0.00     0.046 A 
ATOM     15  C   UNK d   1       5.017 -10.562 -39.822  0.00  0.00     0.100 A 
ATOM     16 Br   UNK d   1       6.228 -10.527 -42.392  0.00  0.00    -0.048 Br
ATOM     17  C   UNK d   1       4.191 -11.070 -38.841  0.00  0.00     0.046 A 
ATOM     18 Br   UNK d   1       4.098 -10.150 -37.171  0.00  0.00    -0.048 Br
ATOM     19  C   UNK d   1       3.453 -12.215 -39.068  0.00  0.00     0.035 A 
BRANCH  15  20
ATOM     20  O   UNK d   1       5.776  -9.415 -39.641  0.00  0.00    -0.358 OA
ATOM     21  H   UNK d   1       5.447  -8.493 -39.868  0.00  0.00     0.217 HD
ENDBRANCH  15  20
ENDBRANCH  11  12
ENDBRANCH   7  10
ENDBRANCH   1   6
BRANCH   2  22
ATOM     22  C   UNK d   1      -1.456 -17.165 -37.994  0.00  0.00     0.230 A 
ATOM     23  N   UNK d   1      -1.815 -16.036 -38.654  0.00  0.00    -0.081 NA
ATOM     24  O   UNK d   1      -2.597 -15.345 -37.906  0.00  0.00    -0.103 OA
ATOM     25  N   UNK d   1      -2.814 -15.912 -36.762  0.00  0.00    -0.083 NA
ATOM     26  C   UNK d   1      -2.105 -17.073 -36.776  0.00  0.00     0.201 A 
BRANCH  26  27
ATOM     27  N   UNK d   1      -2.068 -18.000 -35.704  0.00  0.00    -0.379 N 
ATOM     28  H   UNK d   1      -2.820 -18.712 -35.650  0.00  0.00     0.158 HD
ATOM     29  H   UNK d   1      -1.335 -18.009 -34.972  0.00  0.00     0.158 HD
ENDBRANCH  26  27
ENDBRANCH   2  22
BRANCH   5  30
ATOM     30  C   UNK d   1       2.483 -19.746 -39.574  0.00  0.00     0.336 C 
BRANCH  30  31
ATOM     31  N   UNK d   1       3.133 -20.777 -38.779  0.00  0.00     0.098 N 
ATOM     32  C   UNK d   1       4.310 -21.281 -39.475  0.00  0.00     0.299 C 
ATOM     33  C   UNK d   1       5.551 -20.524 -39.095  0.00  0.00     0.198 C 
ATOM     34  O   UNK d   1       5.310 -19.257 -38.597  0.00  0.00    -0.388 OA
ATOM     35  C   UNK d   1       4.502 -19.224 -37.471  0.00  0.00     0.198 C 
ATOM     36  C   UNK d   1       3.486 -20.335 -37.453  0.00  0.00     0.299 C 
ENDBRANCH  30  31
ENDBRANCH   5  30
TORSDOF 8
ENDMDL
