MODEL 1
REMARK VINA RESULT:    -6.509      0.000      0.000
REMARK INTER + INTRA:          -7.818
REMARK INTER:                  -7.270
REMARK INTRA:                  -0.548
REMARK UNBOUND:                -0.548
REMARK  2 active torsions:
REMARK  status: ('A' for Active; 'I' for Inactive)
REMARK    1  A    between atoms: C_3  and  N_11 
REMARK    2  A    between atoms: C_6  and  N_8 
ROOT
ATOM      1  N   UNK d   1       2.516 -18.911 -38.404  0.00  0.00    -0.250 N 
ATOM      2  C   UNK d   1       3.094 -18.716 -39.682  0.00  0.00     0.239 C 
ATOM      3  O   UNK d   1       2.563 -18.154 -40.661  0.00  0.00    -0.272 OA
ATOM      4  C   UNK d   1       4.460 -19.281 -39.722  0.00  0.00     0.127 C 
ATOM      5  C   UNK d   1       4.338 -20.673 -40.302  0.00  0.00     0.159 C 
ATOM      6  O   UNK d   1       3.767 -21.350 -39.191  0.00  0.00    -0.371 OA
ATOM      7  C   UNK d   1       4.836 -21.097 -38.291  0.00  0.00     0.159 C 
ATOM      8  C   UNK d   1       4.808 -19.593 -38.269  0.00  0.00     0.127 C 
ATOM      9  C   UNK d   1       3.608 -19.165 -37.517  0.00  0.00     0.239 C 
ATOM     10  O   UNK d   1       3.546 -19.040 -36.251  0.00  0.00    -0.272 OA
ATOM     11  C   UNK d   1       5.963 -21.628 -39.088  0.00  0.00     0.004 C 
ATOM     12  C   UNK d   1       5.665 -21.335 -40.351  0.00  0.00     0.004 C 
ENDROOT
BRANCH   1  13
ATOM     13  C   UNK d   1       1.161 -18.881 -37.984  0.00  0.00     0.062 A 
ATOM     14  C   UNK d   1       0.567 -17.721 -37.541  0.00  0.00     0.040 A 
ATOM     15 Br   UNK d   1       1.658 -16.147 -37.531  0.00  0.00    -0.049 Br
ATOM     16  C   UNK d   1      -0.758 -17.666 -37.117  0.00  0.00     0.057 A 
ATOM     17  C   UNK d   1      -1.546 -18.800 -37.126  0.00  0.00     0.104 A 
ATOM     18  C   UNK d   1      -0.949 -19.968 -37.572  0.00  0.00     0.038 A 
ATOM     19  C   UNK d   1       0.359 -20.024 -37.991  0.00  0.00     0.034 A 
BRANCH  17  20
ATOM     20  N   UNK d   1      -2.901 -18.775 -36.697  0.00  0.00    -0.116 N 
ATOM     21  O   UNK d   1      -3.172 -18.185 -35.637  0.00  0.00    -0.532 OA
ATOM     22  O   UNK d   1      -3.936 -19.359 -37.376  0.00  0.00    -0.532 OA
ENDBRANCH  17  20
ENDBRANCH   1  13
TORSDOF 2
ENDMDL
