MODEL 1
REMARK VINA RESULT:    -6.625      0.000      0.000
REMARK INTER + INTRA:          -8.365
REMARK INTER:                  -7.593
REMARK INTRA:                  -0.772
REMARK UNBOUND:                -0.772
REMARK  3 active torsions:
REMARK  status: ('A' for Active; 'I' for Inactive)
REMARK    1  A    between atoms: C_6  and  N_8 
REMARK    2  A    between atoms: C_12  and  C_21 
REMARK    3  A    between atoms: C_21  and  O_22 
ROOT
ATOM      1  N   UNK d   1       2.351 -18.614 -37.467  0.00  0.00    -0.252 N 
ATOM      2  C   UNK d   1       1.794 -19.552 -38.382  0.00  0.00     0.239 C 
ATOM      3  O   UNK d   1       0.603 -19.639 -38.751  0.00  0.00    -0.272 OA
ATOM      4  C   UNK d   1       2.870 -20.467 -38.870  0.00  0.00     0.136 C 
ATOM      5  C   UNK d   1       3.581 -19.913 -40.060  0.00  0.00     0.114 C 
ATOM      6  O   UNK d   1       4.458 -18.956 -39.491  0.00  0.00    -0.358 OA
ATOM      7  C   UNK d   1       5.111 -19.853 -38.608  0.00  0.00     0.089 C 
ATOM      8  C   UNK d   1       3.953 -20.339 -37.802  0.00  0.00     0.133 C 
ATOM      9  C   UNK d   1       3.471 -19.274 -36.891  0.00  0.00     0.239 C 
ATOM     10  O   UNK d   1       3.977 -18.999 -35.783  0.00  0.00    -0.272 OA
ATOM     11  C   UNK d   1       5.540 -20.888 -39.596  0.00  0.00     0.010 C 
ATOM     12  C   UNK d   1       4.571 -20.919 -40.528  0.00  0.00     0.013 C 
ATOM     13  C   UNK d   1       6.208 -19.229 -37.855  0.00  0.00     0.051 C 
ENDROOT
BRANCH   1  14
ATOM     14  C   UNK d   1       1.853 -17.305 -37.230  0.00  0.00     0.046 A 
ATOM     15  C   UNK d   1       1.073 -16.989 -36.136  0.00  0.00     0.031 A 
ATOM     16  C   UNK d   1       0.584 -15.699 -35.903  0.00  0.00     0.010 A 
ATOM     17  C   UNK d   1       0.867 -14.673 -36.775  0.00  0.00    -0.044 A 
ATOM     18  C   UNK d   1       1.644 -14.972 -37.870  0.00  0.00     0.019 A 
ATOM     19  C   UNK d   1       0.342 -13.299 -36.525  0.00  0.00     0.049 C 
ATOM     20 Br   UNK d   1       2.057 -13.579 -39.099  0.00  0.00    -0.051 Br
ATOM     21  C   UNK d   1       2.130 -16.262 -38.097  0.00  0.00     0.050 A 
ENDBRANCH   1  14
BRANCH   5  22
ATOM     22  C   UNK d   1       2.722 -19.359 -41.122  0.00  0.00     0.207 C 
BRANCH  22  23
ATOM     23  O   UNK d   1       1.818 -20.300 -41.608  0.00  0.00    -0.398 OA
ATOM     24  H   UNK d   1       1.180 -19.920 -42.275  0.00  0.00     0.209 HD
ENDBRANCH  22  23
ENDBRANCH   5  22
TORSDOF 3
ENDMDL
