/Users/jonathanwahrer/Desktop/Msc/3_Semester/Drug_Design_Praktikum/waehrer_HTS_screening/HTS_experiment/out/docking_results/vina_output/6y4q/1301_docked.pdbqt
 OpenBabel03232218183D

 24 27  0  0  1  0  0  0  0  0999 V2000
    2.3510  -18.6140  -37.4670 N   0  0  0  0  0  0  0  0  0  0  0  0
    1.7940  -19.5520  -38.3820 C   0  0  0  0  0  0  0  0  0  0  0  0
    0.6030  -19.6390  -38.7510 O   0  0  0  0  0  0  0  0  0  0  0  0
    2.8700  -20.4670  -38.8700 C   0  0  1  0  0  3  0  0  0  0  0  0
    3.5810  -19.9130  -40.0600 C   0  0  1  0  0  0  0  0  0  0  0  0
    4.4580  -18.9560  -39.4910 O   0  0  0  0  0  0  0  0  0  0  0  0
    5.1110  -19.8530  -38.6080 C   0  0  1  0  0  0  0  0  0  0  0  0
    3.9530  -20.3390  -37.8020 C   0  0  1  0  0  3  0  0  0  0  0  0
    3.4710  -19.2740  -36.8910 C   0  0  0  0  0  0  0  0  0  0  0  0
    3.9770  -18.9990  -35.7830 O   0  0  0  0  0  0  0  0  0  0  0  0
    5.5400  -20.8880  -39.5960 C   0  0  0  0  0  2  0  0  0  0  0  0
    4.5710  -20.9190  -40.5280 C   0  0  0  0  0  2  0  0  0  0  0  0
    6.2080  -19.2290  -37.8550 C   0  0  0  0  0  1  0  0  0  0  0  0
    1.8530  -17.3050  -37.2300 C   0  0  0  0  0  0  0  0  0  0  0  0
    1.0730  -16.9890  -36.1360 C   0  0  0  0  0  3  0  0  0  0  0  0
    0.5840  -15.6990  -35.9030 C   0  0  0  0  0  3  0  0  0  0  0  0
    0.8670  -14.6730  -36.7750 C   0  0  0  0  0  0  0  0  0  0  0  0
    1.6440  -14.9720  -37.8700 C   0  0  0  0  0  0  0  0  0  0  0  0
    0.3420  -13.2990  -36.5250 C   0  0  0  0  0  1  0  0  0  0  0  0
    2.0570  -13.5790  -39.0990 Br  0  0  0  0  0  0  0  0  0  0  0  0
    2.1300  -16.2620  -38.0970 C   0  0  0  0  0  3  0  0  0  0  0  0
    2.7220  -19.3590  -41.1220 C   0  0  0  0  0  2  0  0  0  0  0  0
    1.8180  -20.3000  -41.6080 O   0  0  0  0  0  0  0  0  0  0  0  0
    1.1800  -19.9200  -42.2750 H   0  0  0  0  0  0  0  0  0  0  0  0
  1 14  1  0  0  0  0
  1  9  1  0  0  0  0
  2  1  1  0  0  0  0
  3  2  2  0  0  0  0
  4  2  1  1  0  0  0
  4  8  1  0  0  0  0
  5 22  1  6  0  0  0
  5  6  1  0  0  0  0
  5  4  1  0  0  0  0
  6  7  1  0  0  0  0
  7 13  1  1  0  0  0
  7  8  1  0  0  0  0
  8  9  1  1  0  0  0
  9 10  2  0  0  0  0
 11  7  1  0  0  0  0
 12  5  1  0  0  0  0
 12 11  1  0  0  0  0
 14 15  1  0  0  0  0
 15 16  2  0  0  0  0
 17 19  1  0  0  0  0
 17 16  1  0  0  0  0
 18 17  2  0  0  0  0
 20 18  1  0  0  0  0
 21 18  1  0  0  0  0
 21 14  2  0  0  0  0
 23 22  1  0  0  0  0
 24 23  1  0  0  0  0
M  END
>  <Pose>
1

>  <Score>
-6.625

$$$$
