MODEL 1
REMARK VINA RESULT:    -6.803      0.000      0.000
REMARK INTER + INTRA:         -10.040
REMARK INTER:                  -9.190
REMARK INTRA:                  -0.850
REMARK UNBOUND:                -0.850
REMARK  6 active torsions:
REMARK  status: ('A' for Active; 'I' for Inactive)
REMARK    1  A    between atoms: C_4  and  C_8 
REMARK    2  A    between atoms: N_9  and  C_26 
REMARK    3  A    between atoms: C_15  and  C_17 
REMARK    4  A    between atoms: C_26  and  C_27 
REMARK    5  A    between atoms: C_27  and  C_28 
REMARK    6  A    between atoms: C_28  and  N_29 
ROOT
ATOM      1  C   UNK d   1       1.026 -16.832 -37.296  0.00  0.00     0.161 C 
ATOM      2  N   UNK d   1      -0.298 -17.091 -37.820  0.00  0.00    -0.332 N 
ATOM      3  C   UNK d   1      -0.169 -17.197 -39.227  0.00  0.00     0.295 C 
ATOM      4  O   UNK d   1      -1.038 -16.964 -40.103  0.00  0.00    -0.264 OA
ATOM      5  C   UNK d   1       1.203 -17.642 -39.474  0.00  0.00     0.251 C 
ATOM      6  O   UNK d   1       1.774 -17.870 -40.564  0.00  0.00    -0.282 OA
ATOM      7  C   UNK d   1       1.820 -17.777 -38.144  0.00  0.00     0.064 C 
ATOM      8  C   UNK d   1       2.846 -18.543 -37.855  0.00  0.00     0.153 C 
ATOM      9  O   UNK d   1       3.321 -18.501 -36.538  0.00  0.00    -0.188 OA
ENDROOT
BRANCH   1  10
ATOM     10  C   UNK d   1       1.458 -15.436 -37.408  0.00  0.00    -0.029 A 
ATOM     11  C   UNK d   1       2.032 -14.873 -38.519  0.00  0.00     0.028 A 
ATOM     12  C   UNK d   1       2.420 -13.533 -38.574  0.00  0.00     0.011 A 
ATOM     13 Br   UNK d   1       3.221 -12.819 -40.170  0.00  0.00    -0.051 Br
ATOM     14  C   UNK d   1       2.229 -12.719 -37.478  0.00  0.00     0.019 A 
ATOM     15  C   UNK d   1       1.654 -13.258 -36.349  0.00  0.00     0.002 A 
ATOM     16  C   UNK d   1       1.277 -14.580 -36.308  0.00  0.00     0.009 A 
ENDBRANCH   1  10
BRANCH   8  17
ATOM     17  C   UNK d   1       3.485 -19.424 -38.853  0.00  0.00     0.114 A 
ATOM     18  O   UNK d   1       3.034 -20.523 -39.380  0.00  0.00    -0.307 OA
ATOM     19  C   UNK d   1       3.886 -21.034 -40.240  0.00  0.00     0.086 A 
ATOM     20  C   UNK d   1       5.004 -20.218 -40.302  0.00  0.00     0.001 A 
ATOM     21  C   UNK d   1       3.874 -22.162 -41.042  0.00  0.00     0.038 A 
ATOM     22  C   UNK d   1       4.729 -19.197 -39.412  0.00  0.00     0.054 A 
ATOM     23  C   UNK d   1       6.054 -20.534 -41.136  0.00  0.00     0.014 A 
ATOM     24  C   UNK d   1       6.042 -21.655 -41.935  0.00  0.00     0.001 A 
ATOM     25  C   UNK d   1       4.938 -22.477 -41.885  0.00  0.00     0.003 A 
ENDBRANCH   8  17
BRANCH   2  26
ATOM     26  C   UNK d   1      -1.570 -17.255 -37.120  0.00  0.00     0.129 C 
BRANCH  26  27
ATOM     27  C   UNK d   1      -1.734 -18.686 -36.645  0.00  0.00     0.048 C 
BRANCH  27  28
ATOM     28  C   UNK d   1      -2.375 -19.573 -37.681  0.00  0.00     0.235 C 
BRANCH  28  29
ATOM     29  N   UNK d   1      -1.643 -20.795 -37.787  0.00  0.00    -0.079 N 
ATOM     30  C   UNK d   1      -2.321 -21.802 -38.575  0.00  0.00     0.269 C 
ATOM     31  C   UNK d   1      -0.310 -20.669 -38.292  0.00  0.00     0.269 C 
ATOM     32  H   UNK d   1      -1.565 -21.199 -36.806  0.00  0.00     0.278 HD
ENDBRANCH  28  29
ENDBRANCH  27  28
ENDBRANCH  26  27
ENDBRANCH   2  26
TORSDOF 6
ENDMDL
