/Users/jonathanwahrer/Desktop/Msc/3_Semester/Drug_Design_Praktikum/waehrer_HTS_screening/HTS_experiment/out/docking_results/vina_output/6y4q/1314_docked.pdbqt
 OpenBabel03232218193D

 32 35  0  0  0  0  0  0  0  0999 V2000
    2.0850  -17.4840  -40.6810 C   0  0  0  0  0  0  0  0  0  0  0  0
    2.2830  -18.2020  -41.7450 N   0  0  0  0  0  0  0  0  0  0  0  0
    2.9700  -19.2480  -41.4370 N   0  0  0  0  0  0  0  0  0  0  0  0
    3.2840  -19.2910  -40.0860 N   0  0  0  0  0  0  0  0  0  0  0  0
    2.7420  -18.2050  -39.5800 C   0  0  0  0  0  0  0  0  0  0  0  0
    1.6250  -16.1650  -40.5200 C   0  0  0  0  0  0  0  0  0  0  0  0
    2.5420  -14.9450  -40.7640 N   0  0  0  0  0  0  0  0  0  0  0  0
    3.4760  -15.1820  -41.0880 H   0  0  0  0  0  0  0  0  0  0  0  0
    0.4950  -15.8470  -40.1680 O   0  0  0  0  0  0  0  0  0  0  0  0
    1.8130  -13.9350  -40.4220 N   0  0  0  0  0  2  0  0  0  0  0  0
    1.5290  -12.8650  -39.8570 C   0  0  0  0  0  2  0  0  0  0  0  0
    2.7810  -12.3340  -39.1160 C   0  0  0  0  0  0  0  0  0  0  0  0
    2.7080  -12.3000  -37.7440 C   0  0  0  0  0  0  0  0  0  0  0  0
    1.3010  -13.1920  -36.8560 Br  0  0  0  0  0  0  0  0  0  0  0  0
    3.6600  -11.5390  -37.0580 C   0  0  0  0  0  3  0  0  0  0  0  0
    4.6650  -10.8590  -37.7530 C   0  0  0  0  0  3  0  0  0  0  0  0
    4.7260  -10.9340  -39.1040 C   0  0  0  0  0  3  0  0  0  0  0  0
    3.7340  -11.6960  -39.7960 C   0  0  0  0  0  3  0  0  0  0  0  0
    2.4970  -17.6540  -38.2500 C   0  0  0  0  0  2  0  0  0  0  0  0
    1.5450  -17.9150  -37.3480 N   0  0  0  0  0  0  0  0  0  0  0  0
    1.8370  -17.2300  -36.0960 C   0  0  0  0  0  2  0  0  0  0  0  0
    0.1940  -18.1070  -37.4140 C   0  0  0  0  0  2  0  0  0  0  0  0
    0.5640  -16.5760  -35.6490 C   0  0  0  0  0  2  0  0  0  0  0  0
   -0.4590  -16.8750  -36.7390 C   0  0  0  0  0  2  0  0  0  0  0  0
    4.0760  -20.3510  -39.6490 C   0  0  0  0  0  0  0  0  0  0  0  0
    3.8190  -21.0070  -38.4460 N   0  0  0  0  0  0  0  0  0  0  0  0
    4.7520  -21.8480  -38.2400 O   0  0  0  0  0  0  0  0  0  0  0  0
    5.6140  -21.8390  -39.1760 N   0  0  0  0  0  0  0  0  0  0  0  0
    5.2120  -20.9010  -40.0800 C   0  0  0  0  0  0  0  0  0  0  0  0
    5.9970  -20.6390  -41.2500 N   0  0  0  0  0  0  0  0  0  0  0  0
    6.8800  -21.1590  -41.3480 H   0  0  0  0  0  0  0  0  0  0  0  0
    5.7170  -19.9230  -41.9170 H   0  0  0  0  0  0  0  0  0  0  0  0
  1  6  1  0  0  0  0
  1  5  2  0  0  0  0
  2  3  2  0  0  0  0
  2  1  1  0  0  0  0
  3  4  1  0  0  0  0
  4 25  1  0  0  0  0
  4  5  1  0  0  0  0
  5 19  1  0  0  0  0
  6  9  2  0  0  0  0
  7  6  1  0  0  0  0
  7 10  1  0  0  0  0
  8  7  1  0  0  0  0
 10 11  1  0  0  0  0
 11 12  1  0  0  0  0
 12 13  1  0  0  0  0
 13 15  2  0  0  0  0
 13 14  1  0  0  0  0
 16 15  1  0  0  0  0
 17 16  2  0  0  0  0
 18 12  2  0  0  0  0
 18 17  1  0  0  0  0
 19 20  1  0  0  0  0
 20 21  1  0  0  0  0
 21 23  1  0  0  0  0
 22 20  1  0  0  0  0
 22 24  1  0  0  0  0
 24 23  1  0  0  0  0
 25 26  2  0  0  0  0
 26 27  1  0  0  0  0
 28 27  1  0  0  0  0
 29 25  1  0  0  0  0
 29 28  2  0  0  0  0
 30 29  1  0  0  0  0
 31 30  1  0  0  0  0
 32 30  1  0  0  0  0
M  END
>  <Pose>
1

>  <Score>
-6.043

$$$$
