MODEL 1
REMARK VINA RESULT:    -6.043      0.000      0.000
REMARK INTER + INTRA:          -9.691
REMARK INTER:                  -8.340
REMARK INTRA:                  -1.351
REMARK UNBOUND:                -1.351
REMARK  7 active torsions:
REMARK  status: ('A' for Active; 'I' for Inactive)
REMARK    1  A    between atoms: C_3  and  C_8 
REMARK    2  A    between atoms: C_8  and  N_9 
REMARK    3  A    between atoms: N_9  and  N_10 
REMARK       I    between atoms: N_10  and  C_11 
REMARK    4  A    between atoms: C_11  and  C_13 
REMARK    5  A    between atoms: N_16  and  C_24 
REMARK    6  A    between atoms: C_17  and  C_18 
REMARK    7  A    between atoms: C_28  and  N_29 
ROOT
ATOM      1  C   UNK d   1       2.085 -17.484 -40.681  0.00  0.00     0.176 A 
ATOM      2  N   UNK d   1       2.283 -18.202 -41.745  0.00  0.00    -0.124 NA
ATOM      3  N   UNK d   1       2.970 -19.248 -41.437  0.00  0.00    -0.058 NA
ATOM      4  N   UNK d   1       3.284 -19.291 -40.086  0.00  0.00    -0.191 N 
ATOM      5  C   UNK d   1       2.742 -18.205 -39.580  0.00  0.00     0.093 A 
ENDROOT
BRANCH   1   6
ATOM      6  C   UNK d   1       1.625 -16.165 -40.520  0.00  0.00     0.294 C 
ATOM      7  N   UNK d   1       2.542 -14.945 -40.764  0.00  0.00    -0.242 N 
ATOM      8  H   UNK d   1       3.476 -15.182 -41.088  0.00  0.00     0.192 HD
ATOM      9  O   UNK d   1       0.495 -15.847 -40.168  0.00  0.00    -0.264 OA
BRANCH   7  10
ATOM     10  N   UNK d   1       1.813 -13.935 -40.422  0.00  0.00    -0.183 NA
BRANCH  10  11
ATOM     11  C   UNK d   1       1.529 -12.865 -39.857  0.00  0.00     0.151 C 
BRANCH  11  12
ATOM     12  C   UNK d   1       2.781 -12.334 -39.116  0.00  0.00     0.000 A 
ATOM     13  C   UNK d   1       2.708 -12.300 -37.744  0.00  0.00     0.022 A 
ATOM     14 Br   UNK d   1       1.301 -13.192 -36.856  0.00  0.00    -0.050 Br
ATOM     15  C   UNK d   1       3.660 -11.539 -37.058  0.00  0.00     0.020 A 
ATOM     16  C   UNK d   1       4.665 -10.859 -37.753  0.00  0.00     0.001 A 
ATOM     17  C   UNK d   1       4.726 -10.934 -39.104  0.00  0.00     0.001 A 
ATOM     18  C   UNK d   1       3.734 -11.696 -39.796  0.00  0.00     0.014 A 
ENDBRANCH  11  12
ENDBRANCH  10  11
ENDBRANCH   7  10
ENDBRANCH   1   6
BRANCH   5  19
ATOM     19  C   UNK d   1       2.497 -17.654 -38.250  0.00  0.00     0.179 C 
ATOM     20  N   UNK d   1       1.545 -17.915 -37.348  0.00  0.00    -0.407 N 
ATOM     21  C   UNK d   1       1.837 -17.230 -36.096  0.00  0.00     0.117 C 
ATOM     22  C   UNK d   1       0.194 -18.107 -37.414  0.00  0.00     0.117 C 
ATOM     23  C   UNK d   1       0.564 -16.576 -35.649  0.00  0.00     0.021 C 
ATOM     24  C   UNK d   1      -0.459 -16.875 -36.739  0.00  0.00     0.021 C 
ENDBRANCH   5  19
BRANCH   4  25
ATOM     25  C   UNK d   1       4.076 -20.351 -39.649  0.00  0.00     0.229 A 
ATOM     26  N   UNK d   1       3.819 -21.007 -38.446  0.00  0.00    -0.081 NA
ATOM     27  O   UNK d   1       4.752 -21.848 -38.240  0.00  0.00    -0.103 OA
ATOM     28  N   UNK d   1       5.614 -21.839 -39.176  0.00  0.00    -0.083 NA
ATOM     29  C   UNK d   1       5.212 -20.901 -40.080  0.00  0.00     0.201 A 
BRANCH  29  30
ATOM     30  N   UNK d   1       5.997 -20.639 -41.250  0.00  0.00    -0.379 N 
ATOM     31  H   UNK d   1       6.880 -21.159 -41.348  0.00  0.00     0.158 HD
ATOM     32  H   UNK d   1       5.717 -19.923 -41.917  0.00  0.00     0.158 HD
ENDBRANCH  29  30
ENDBRANCH   4  25
TORSDOF 7
ENDMDL
