MODEL 1
REMARK VINA RESULT:    -6.377      0.000      0.000
REMARK INTER + INTRA:          -9.977
REMARK INTER:                  -8.800
REMARK INTRA:                  -1.177
REMARK UNBOUND:                -1.177
REMARK  7 active torsions:
REMARK  status: ('A' for Active; 'I' for Inactive)
REMARK    1  A    between atoms: C_4  and  C_8 
REMARK    2  A    between atoms: C_8  and  C_10 
REMARK    3  A    between atoms: C_10  and  N_11 
REMARK    4  A    between atoms: N_18  and  C_21 
REMARK    5  A    between atoms: C_19  and  N_20 
REMARK    6  A    between atoms: C_21  and  C_22 
REMARK    7  A    between atoms: C_22  and  N_23 
ROOT
ATOM      1  N   UNK d   1       0.458 -15.724 -38.711  0.00  0.00    -0.175 N 
ATOM      2  C   UNK d   1      -0.249 -16.605 -37.931  0.00  0.00     0.079 A 
ATOM      3  C   UNK d   1       0.078 -17.856 -38.367  0.00  0.00     0.079 A 
ATOM      4  C   UNK d   1      -0.503 -18.970 -37.753  0.00  0.00     0.032 A 
ATOM      5  C   UNK d   1      -1.395 -18.787 -36.718  0.00  0.00     0.002 A 
ATOM      6  C   UNK d   1      -1.726 -17.525 -36.275  0.00  0.00     0.002 A 
ATOM      7  C   UNK d   1      -1.139 -16.419 -36.895  0.00  0.00     0.032 A 
ATOM      8  N   UNK d   1       0.962 -17.722 -39.380  0.00  0.00    -0.179 N 
ATOM      9  C   UNK d   1       1.206 -16.429 -39.601  0.00  0.00     0.681 A 
ENDROOT
BRANCH   1  10
ATOM     10  C   UNK d   1       0.442 -14.288 -38.533  0.00  0.00     0.216 C 
BRANCH  10  11
ATOM     11  C   UNK d   1       1.566 -13.773 -37.740  0.00  0.00     0.113 C 
ATOM     12  O   UNK d   1       1.640 -14.214 -36.504  0.00  0.00    -0.194 OA
BRANCH  11  13
ATOM     13  C   UNK d   1       2.619 -12.855 -38.089  0.00  0.00    -0.001 A 
ATOM     14  C   UNK d   1       3.159 -12.694 -39.333  0.00  0.00     0.033 A 
ATOM     15  C   UNK d   1       4.148 -11.789 -39.591  0.00  0.00     0.011 A 
ATOM     16 Br   UNK d   1       4.877 -11.592 -41.374  0.00  0.00    -0.051 Br
ATOM     17  C   UNK d   1       4.633 -11.000 -38.573  0.00  0.00     0.019 A 
ATOM     18  C   UNK d   1       4.129 -11.115 -37.299  0.00  0.00     0.002 A 
ATOM     19  C   UNK d   1       3.139 -12.032 -37.078  0.00  0.00     0.014 A 
ENDBRANCH  11  13
ENDBRANCH  10  11
ENDBRANCH   1  10
BRANCH   9  20
ATOM     20  N   UNK d   1       2.084 -15.945 -40.451  0.00  0.00    -0.234 N 
ATOM     21  H   UNK d   1       3.065 -16.208 -40.452  0.00  0.00     0.174 HD
ATOM     22  H   UNK d   1       1.767 -15.241 -41.133  0.00  0.00     0.174 HD
ENDBRANCH   9  20
BRANCH   8  23
ATOM     23  C   UNK d   1       1.545 -18.875 -40.043  0.00  0.00     0.178 C 
BRANCH  23  24
ATOM     24  C   UNK d   1       2.957 -19.155 -39.731  0.00  0.00     0.293 C 
BRANCH  24  25
ATOM     25  N   UNK d   1       3.288 -20.293 -38.952  0.00  0.00     0.094 N 
ATOM     26  C   UNK d   1       3.095 -20.007 -37.507  0.00  0.00     0.298 C 
ATOM     27  C   UNK d   1       3.876 -18.815 -37.060  0.00  0.00     0.198 C 
ATOM     28  O   UNK d   1       5.226 -19.161 -37.136  0.00  0.00    -0.388 OA
ATOM     29  C   UNK d   1       5.585 -19.541 -38.405  0.00  0.00     0.198 C 
ATOM     30  C   UNK d   1       4.724 -20.614 -39.016  0.00  0.00     0.298 C 
ENDBRANCH  24  25
ENDBRANCH  23  24
ENDBRANCH   8  23
TORSDOF 7
ENDMDL
