MODEL 1
REMARK VINA RESULT:    -6.127      0.000      0.000
REMARK INTER + INTRA:          -8.442
REMARK INTER:                  -7.918
REMARK INTRA:                  -0.524
REMARK UNBOUND:                -0.524
REMARK  5 active torsions:
REMARK  status: ('A' for Active; 'I' for Inactive)
REMARK    1  A    between atoms: C_5  and  C_8 
REMARK    2  A    between atoms: N_9  and  C_26 
REMARK    3  A    between atoms: C_15  and  C_17 
REMARK    4  A    between atoms: C_26  and  C_27 
REMARK    5  A    between atoms: C_27  and  N_28 
ROOT
ATOM      1  C   UNK d   1       1.896 -19.481 -38.169  0.00  0.00     0.161 C 
ATOM      2  N   UNK d   1       3.254 -19.685 -37.760  0.00  0.00    -0.331 N 
ATOM      3  C   UNK d   1       3.396 -18.808 -36.603  0.00  0.00     0.295 C 
ATOM      4  O   UNK d   1       4.206 -18.955 -35.662  0.00  0.00    -0.264 OA
ATOM      5  C   UNK d   1       2.428 -17.737 -36.745  0.00  0.00     0.251 C 
ATOM      6  O   UNK d   1       2.201 -16.758 -35.973  0.00  0.00    -0.282 OA
ATOM      7  C   UNK d   1       1.725 -18.010 -38.003  0.00  0.00     0.064 C 
ATOM      8  C   UNK d   1       1.087 -17.135 -38.730  0.00  0.00     0.153 C 
ATOM      9  O   UNK d   1       0.421 -17.582 -39.878  0.00  0.00    -0.188 OA
ENDROOT
BRANCH   1  10
ATOM     10  C   UNK d   1       1.463 -20.007 -39.440  0.00  0.00    -0.030 A 
ATOM     11  C   UNK d   1       0.193 -20.607 -39.504  0.00  0.00     0.011 A 
ATOM     12  C   UNK d   1      -0.332 -21.125 -40.661  0.00  0.00     0.019 A 
ATOM     13  C   UNK d   1       0.380 -21.078 -41.833  0.00  0.00     0.011 A 
ATOM     14 Br   UNK d   1      -0.320 -21.792 -43.467  0.00  0.00    -0.051 Br
ATOM     15  C   UNK d   1       1.624 -20.493 -41.778  0.00  0.00     0.019 A 
ATOM     16  C   UNK d   1       2.151 -19.971 -40.613  0.00  0.00     0.011 A 
ENDBRANCH   1  10
BRANCH   8  17
ATOM     17  C   UNK d   1       1.059 -15.702 -38.374  0.00  0.00     0.114 A 
ATOM     18  O   UNK d   1       0.133 -15.113 -37.625  0.00  0.00    -0.307 OA
ATOM     19  C   UNK d   1       0.372 -13.835 -37.484  0.00  0.00     0.086 A 
ATOM     20  C   UNK d   1       1.522 -13.499 -38.167  0.00  0.00     0.001 A 
ATOM     21  C   UNK d   1      -0.286 -12.803 -36.808  0.00  0.00     0.038 A 
ATOM     22  C   UNK d   1       1.934 -14.701 -38.720  0.00  0.00     0.054 A 
ATOM     23  C   UNK d   1       1.985 -12.203 -38.169  0.00  0.00     0.014 A 
ATOM     24  C   UNK d   1       1.344 -11.179 -37.506  0.00  0.00     0.001 A 
ATOM     25  C   UNK d   1       0.190 -11.510 -36.820  0.00  0.00     0.003 A 
ENDBRANCH   8  17
BRANCH   2  26
ATOM     26  C   UNK d   1       4.310 -20.558 -38.224  0.00  0.00     0.155 C 
BRANCH  26  27
ATOM     27  C   UNK d   1       5.566 -19.947 -38.684  0.00  0.00     0.254 C 
BRANCH  27  28
ATOM     28  N   UNK d   1       5.967 -20.203 -40.042  0.00  0.00    -0.077 N 
ATOM     29  C   UNK d   1       5.684 -21.547 -40.458  0.00  0.00     0.269 C 
ATOM     30  C   UNK d   1       5.591 -19.188 -40.986  0.00  0.00     0.269 C 
ATOM     31  H   UNK d   1       7.043 -20.160 -40.000  0.00  0.00     0.279 HD
ENDBRANCH  27  28
ENDBRANCH  26  27
ENDBRANCH   2  26
TORSDOF 5
ENDMDL
