MODEL 1
REMARK VINA RESULT:    -6.382      0.000      0.000
REMARK INTER + INTRA:          -8.452
REMARK INTER:                  -7.501
REMARK INTRA:                  -0.951
REMARK UNBOUND:                -0.951
REMARK  3 active torsions:
REMARK  status: ('A' for Active; 'I' for Inactive)
REMARK    1  A    between atoms: C_4  and  C_8 
REMARK    2  A    between atoms: C_16  and  C_17 
REMARK    3  A    between atoms: C_17  and  N_18 
ROOT
ATOM      1  C   UNK d   1       1.972 -16.960 -35.979  0.00  0.00     0.053 C 
ATOM      2  C   UNK d   1       2.362 -17.935 -36.803  0.00  0.00     0.127 A 
ATOM      3  O   UNK d   1       1.761 -18.313 -38.003  0.00  0.00    -0.305 OA
ATOM      4  C   UNK d   1       2.444 -19.348 -38.580  0.00  0.00     0.101 A 
ATOM      5  C   UNK d   1       3.530 -19.709 -37.790  0.00  0.00     0.051 A 
ATOM      6  C   UNK d   1       4.343 -20.743 -38.226  0.00  0.00     0.021 A 
ATOM      7  C   UNK d   1       4.071 -21.386 -39.412  0.00  0.00     0.041 A 
ATOM      8  C   UNK d   1       2.970 -20.996 -40.179  0.00  0.00     0.118 A 
ATOM      9  C   UNK d   1       2.149 -19.978 -39.771  0.00  0.00     0.039 A 
ATOM     10  O   UNK d   1       2.780 -21.705 -41.355  0.00  0.00    -0.191 OA
ATOM     11  C   UNK d   1       3.514 -18.813 -36.621  0.00  0.00     0.218 A 
ATOM     12  O   UNK d   1       4.349 -18.847 -35.680  0.00  0.00    -0.284 OA
ENDROOT
BRANCH   9  13
ATOM     13  C   UNK d   1       0.964 -19.662 -40.570  0.00  0.00     0.279 C 
BRANCH  13  14
ATOM     14  N   UNK d   1      -0.101 -20.596 -40.518  0.00  0.00    -0.064 N 
ATOM     15  C   UNK d   1      -1.137 -20.159 -41.440  0.00  0.00     0.265 C 
ATOM     16  C   UNK d   1      -2.535 -20.363 -40.967  0.00  0.00     0.299 C 
ATOM     17  N   UNK d   1      -2.808 -19.897 -39.652  0.00  0.00     0.087 N 
ATOM     18  C   UNK d   1      -1.613 -19.627 -38.923  0.00  0.00     0.299 C 
ATOM     19  C   UNK d   1      -3.668 -20.838 -38.967  0.00  0.00     0.310 C 
ATOM     20  C   UNK d   1      -0.611 -20.704 -39.172  0.00  0.00     0.265 C 
ATOM     21  H   UNK d   1       0.203 -21.584 -40.773  0.00  0.00     0.280 HD
ENDBRANCH  13  14
ENDBRANCH   9  13
BRANCH   1  22
ATOM     22  C   UNK d   1       0.810 -16.148 -36.278  0.00  0.00    -0.032 A 
ATOM     23  C   UNK d   1      -0.436 -16.717 -36.424  0.00  0.00     0.030 A 
ATOM     24  C   UNK d   1      -1.542 -15.926 -36.724  0.00  0.00     0.011 A 
ATOM     25 Br   UNK d   1      -3.268 -16.717 -36.937  0.00  0.00    -0.051 Br
ATOM     26  C   UNK d   1      -1.389 -14.557 -36.877  0.00  0.00     0.019 A 
ATOM     27  C   UNK d   1      -0.128 -14.027 -36.725  0.00  0.00     0.002 A 
ATOM     28  C   UNK d   1       0.975 -14.792 -36.427  0.00  0.00     0.011 A 
ENDBRANCH   1  22
TORSDOF 3
ENDMDL
