/Users/jonathanwahrer/Desktop/Msc/3_Semester/Drug_Design_Praktikum/waehrer_HTS_screening/HTS_experiment/out/docking_results/vina_output/6y4q/1337_docked.pdbqt
 OpenBabel03232218203D

 32 35  0  0  1  0  0  0  0  0999 V2000
   -2.2350  -13.1430  -37.1080 C   0  0  2  0  0  3  0  0  0  0  0  0
   -1.1570  -12.9730  -37.8930 O   0  0  0  0  0  0  0  0  0  0  0  0
   -0.3340  -11.9180  -37.6510 C   0  0  2  0  0  3  0  0  0  0  0  0
    0.8670  -12.1480  -38.3370 O   0  0  0  0  0  0  0  0  0  0  0  0
    1.6940  -12.8540  -37.4970 C   0  0  0  0  0  0  0  0  0  0  0  0
    1.1260  -12.8870  -36.2390 O   0  0  0  0  0  0  0  0  0  0  0  0
    0.1650  -11.8500  -36.2260 C   0  0  2  0  0  3  0  0  0  0  0  0
   -0.9080  -12.0890  -35.2360 C   0  0  1  0  0  3  0  0  0  0  0  0
   -1.2360  -10.9060  -34.5350 O   0  0  0  0  0  0  0  0  0  0  0  0
   -2.6030  -10.8520  -34.4370 C   0  0  0  0  0  0  0  0  0  0  0  0
   -3.0530  -11.4910  -35.5620 O   0  0  0  0  0  0  0  0  0  0  0  0
   -2.1950  -12.5880  -35.7340 C   0  0  1  0  0  3  0  0  0  0  0  0
   -2.9900   -9.3670  -34.4430 C   0  0  0  0  0  1  0  0  0  0  0  0
   -3.1370  -11.4190  -33.1480 C   0  0  0  0  0  1  0  0  0  0  0  0
    3.0590  -12.1810  -37.3420 C   0  0  0  0  0  1  0  0  0  0  0  0
    1.9690  -14.2620  -37.9990 C   0  0  0  0  0  1  0  0  0  0  0  0
   -2.5920  -14.5860  -37.0900 C   0  0  0  0  0  0  0  0  0  0  0  0
   -1.6000  -15.5570  -36.8050 N   0  0  0  0  0  0  0  0  0  0  0  0
   -0.6300  -15.2260  -36.6130 H   0  0  0  0  0  0  0  0  0  0  0  0
   -3.7620  -14.9930  -37.3210 O   0  0  0  0  0  0  0  0  0  0  0  0
   -1.8560  -16.9660  -36.7670 C   0  0  0  0  0  2  0  0  0  0  0  0
   -0.6960  -17.7340  -37.2870 C   0  0  0  0  0  0  0  0  0  0  0  0
    0.6330  -17.3020  -37.1270 N   0  0  0  0  0  0  0  0  0  0  0  0
    0.7470  -16.3750  -36.6010 H   0  0  0  0  0  0  0  0  0  0  0  0
   -0.9560  -18.7990  -37.8820 O   0  0  0  0  0  0  0  0  0  0  0  0
    1.8070  -17.9130  -37.5570 C   0  0  0  0  0  0  0  0  0  0  0  0
    2.7710  -18.2690  -36.6240 C   0  0  0  0  0  3  0  0  0  0  0  0
    3.9620  -18.8760  -36.9480 C   0  0  0  0  0  3  0  0  0  0  0  0
    4.2430  -19.1600  -38.2660 C   0  0  0  0  0  0  0  0  0  0  0  0
    5.9090  -20.0050  -38.6910 Br  0  0  0  0  0  0  0  0  0  0  0  0
    3.3280  -18.8280  -39.2140 C   0  0  0  0  0  3  0  0  0  0  0  0
    2.1180  -18.2090  -38.8640 C   0  0  0  0  0  3  0  0  0  0  0  0
  1 17  1  1  0  0  0
  1 12  1  0  0  0  0
  2  3  1  0  0  0  0
  2  1  1  0  0  0  0
  3  4  1  6  0  0  0
  3  7  1  0  0  0  0
  4  5  1  0  0  0  0
  5 15  1  0  0  0  0
  5  6  1  0  0  0  0
  7  6  1  6  0  0  0
  7  8  1  0  0  0  0
  8  9  1  6  0  0  0
  9 10  1  0  0  0  0
 10 14  1  0  0  0  0
 11 10  1  0  0  0  0
 12 11  1  6  0  0  0
 12  8  1  0  0  0  0
 13 10  1  0  0  0  0
 16  5  1  0  0  0  0
 17 18  1  0  0  0  0
 18 21  1  0  0  0  0
 18 19  1  0  0  0  0
 20 17  2  0  0  0  0
 22 23  1  0  0  0  0
 22 21  1  0  0  0  0
 23 24  1  0  0  0  0
 25 22  2  0  0  0  0
 26 23  1  0  0  0  0
 26 27  1  0  0  0  0
 28 27  2  0  0  0  0
 29 28  1  0  0  0  0
 30 29  1  0  0  0  0
 31 32  1  0  0  0  0
 31 29  2  0  0  0  0
 32 26  2  0  0  0  0
M  END
>  <Pose>
1

>  <Score>
-6.532

$$$$
