MODEL 1
REMARK VINA RESULT:    -7.384      0.000      0.000
REMARK INTER + INTRA:          -9.833
REMARK INTER:                  -9.542
REMARK INTRA:                  -0.290
REMARK UNBOUND:                -0.290
REMARK  5 active torsions:
REMARK  status: ('A' for Active; 'I' for Inactive)
REMARK    1  A    between atoms: C_5  and  C_8 
REMARK    2  A    between atoms: N_11  and  C_13 
REMARK    3  A    between atoms: C_13  and  C_14 
REMARK       I    between atoms: C_14  and  N_16 
REMARK    4  A    between atoms: N_16  and  C_17 
REMARK    5  A    between atoms: C_20  and  C_23 
ROOT
ATOM      1  C   UNK d   1       0.942 -17.583 -37.169  0.00  0.00     0.061 A 
ATOM      2  N   UNK d   1      -0.379 -17.815 -36.983  0.00  0.00    -0.335 N 
ATOM      3  C   UNK d   1      -0.980 -16.649 -36.669  0.00  0.00     0.086 A 
ATOM      4  N   UNK d   1      -0.075 -15.647 -36.644  0.00  0.00    -0.336 N 
ATOM      5  C   UNK d   1       1.104 -16.232 -36.954  0.00  0.00     0.123 A 
ATOM      6  C   UNK d   1      -2.433 -16.875 -36.461  0.00  0.00     0.078 A 
ATOM      7  C   UNK d   1      -2.650 -18.342 -36.594  0.00  0.00     0.028 A 
ATOM      8  C   UNK d   1      -1.338 -18.897 -37.011  0.00  0.00     0.131 A 
ENDROOT
BRANCH   4   9
ATOM      9  C   UNK d   1      -0.291 -14.244 -36.355  0.00  0.00     0.232 C 
BRANCH   9  10
ATOM     10  C   UNK d   1       0.552 -13.405 -37.254  0.00  0.00     0.240 C 
ATOM     11  O   UNK d   1       0.009 -12.877 -38.226  0.00  0.00    -0.271 OA
ATOM     12  N   UNK d   1       1.905 -13.269 -36.940  0.00  0.00    -0.326 N 
ATOM     13  H   UNK d   1       2.326 -13.755 -36.079  0.00  0.00     0.169 HD
BRANCH  12  14
ATOM     14  C   UNK d   1       2.836 -12.501 -37.688  0.00  0.00     0.034 A 
ATOM     15  C   UNK d   1       3.053 -12.828 -39.033  0.00  0.00     0.030 A 
ATOM     16  C   UNK d   1       3.950 -12.126 -39.773  0.00  0.00     0.009 A 
ATOM     17  C   UNK d   1       4.669 -11.076 -39.226  0.00  0.00    -0.058 A 
ATOM     18  C   UNK d   1       4.451 -10.766 -37.914  0.00  0.00     0.009 A 
ATOM     19  C   UNK d   1       3.533 -11.471 -37.125  0.00  0.00     0.030 A 
BRANCH  17  20
ATOM     20  C   UNK d   1       5.644 -10.323 -40.054  0.00  0.00     0.034 C 
ATOM     21  C   UNK d   1       5.936 -11.148 -41.312  0.00  0.00     0.010 C 
ENDBRANCH  17  20
ENDBRANCH  12  14
ENDBRANCH   9  10
ENDBRANCH   4   9
BRANCH   1  22
ATOM     22  C   UNK d   1       2.016 -18.511 -37.521  0.00  0.00    -0.008 A 
ATOM     23  C   UNK d   1       1.824 -19.490 -38.476  0.00  0.00     0.015 A 
ATOM     24  C   UNK d   1       2.823 -20.381 -38.825  0.00  0.00     0.024 A 
ATOM     25  C   UNK d   1       4.065 -20.329 -38.231  0.00  0.00     0.034 A 
ATOM     26 Cl   UNK d   1       5.340 -21.458 -38.672  0.00  0.00    -0.084 Cl
ATOM     27  C   UNK d   1       4.271 -19.358 -37.275  0.00  0.00     0.024 A 
ATOM     28  C   UNK d   1       3.258 -18.458 -36.924  0.00  0.00     0.015 A 
ENDBRANCH   1  22
TORSDOF 5
ENDMDL
