/Users/jonathanwahrer/Desktop/Msc/3_Semester/Drug_Design_Praktikum/waehrer_HTS_screening/HTS_experiment/out/docking_results/vina_output/6y4q/1341_docked.pdbqt
 OpenBabel03232218203D

 28 31  0  0  0  0  0  0  0  0999 V2000
    0.9420  -17.5830  -37.1690 C   0  0  0  0  0  0  0  0  0  0  0  0
   -0.3790  -17.8150  -36.9830 N   0  0  0  0  0  0  0  0  0  0  0  0
   -0.9800  -16.6490  -36.6690 C   0  0  0  0  0  0  0  0  0  0  0  0
   -0.0750  -15.6470  -36.6440 N   0  0  0  0  0  0  0  0  0  0  0  0
    1.1040  -16.2320  -36.9540 C   0  0  0  0  0  3  0  0  0  0  0  0
   -2.4330  -16.8750  -36.4610 C   0  0  0  0  0  3  0  0  0  0  0  0
   -2.6500  -18.3420  -36.5940 C   0  0  0  0  0  3  0  0  0  0  0  0
   -1.3380  -18.8970  -37.0110 C   0  0  0  0  0  3  0  0  0  0  0  0
   -0.2910  -14.2440  -36.3550 C   0  0  0  0  0  2  0  0  0  0  0  0
    0.5520  -13.4050  -37.2540 C   0  0  0  0  0  0  0  0  0  0  0  0
    0.0090  -12.8770  -38.2260 O   0  0  0  0  0  0  0  0  0  0  0  0
    1.9050  -13.2690  -36.9400 N   0  0  0  0  0  0  0  0  0  0  0  0
    2.3260  -13.7550  -36.0790 H   0  0  0  0  0  0  0  0  0  0  0  0
    2.8360  -12.5010  -37.6880 C   0  0  0  0  0  0  0  0  0  0  0  0
    3.0530  -12.8280  -39.0330 C   0  0  0  0  0  3  0  0  0  0  0  0
    3.9500  -12.1260  -39.7730 C   0  0  0  0  0  3  0  0  0  0  0  0
    4.6690  -11.0760  -39.2260 C   0  0  0  0  0  0  0  0  0  0  0  0
    4.4510  -10.7660  -37.9140 C   0  0  0  0  0  3  0  0  0  0  0  0
    3.5330  -11.4710  -37.1250 C   0  0  0  0  0  3  0  0  0  0  0  0
    5.6440  -10.3230  -40.0540 C   0  0  0  0  0  2  0  0  0  0  0  0
    5.9360  -11.1480  -41.3120 C   0  0  0  0  0  1  0  0  0  0  0  0
    2.0160  -18.5110  -37.5210 C   0  0  0  0  0  0  0  0  0  0  0  0
    1.8240  -19.4900  -38.4760 C   0  0  0  0  0  3  0  0  0  0  0  0
    2.8230  -20.3810  -38.8250 C   0  0  0  0  0  3  0  0  0  0  0  0
    4.0650  -20.3290  -38.2310 C   0  0  0  0  0  0  0  0  0  0  0  0
    5.3400  -21.4580  -38.6720 Cl  0  0  0  0  0  0  0  0  0  0  0  0
    4.2710  -19.3580  -37.2750 C   0  0  0  0  0  3  0  0  0  0  0  0
    3.2580  -18.4580  -36.9240 C   0  0  0  0  0  3  0  0  0  0  0  0
  1  2  1  0  0  0  0
  1  5  2  0  0  0  0
  2  3  1  0  0  0  0
  3  4  1  0  0  0  0
  3  6  2  0  0  0  0
  4  9  1  0  0  0  0
  5  4  1  0  0  0  0
  7  6  1  0  0  0  0
  8  2  1  0  0  0  0
  8  7  2  0  0  0  0
 10 12  1  0  0  0  0
 10  9  1  0  0  0  0
 11 10  2  0  0  0  0
 12 13  1  0  0  0  0
 14 19  1  0  0  0  0
 14 12  1  0  0  0  0
 15 14  2  0  0  0  0
 16 17  2  0  0  0  0
 16 15  1  0  0  0  0
 17 18  1  0  0  0  0
 18 19  2  0  0  0  0
 20 17  1  0  0  0  0
 21 20  1  0  0  0  0
 22  1  1  0  0  0  0
 22 28  1  0  0  0  0
 23 22  2  0  0  0  0
 24 23  1  0  0  0  0
 24 25  2  0  0  0  0
 25 27  1  0  0  0  0
 26 25  1  0  0  0  0
 27 28  2  0  0  0  0
M  END
>  <Pose>
1

>  <Score>
-7.384

$$$$
