MODEL 1
REMARK VINA RESULT:    -6.026      0.000      0.000
REMARK INTER + INTRA:         -11.247
REMARK INTER:                  -9.372
REMARK INTRA:                  -1.875
REMARK UNBOUND:                -1.875
REMARK  12 active torsions:
REMARK  status: ('A' for Active; 'I' for Inactive)
REMARK    1  A    between atoms: C_3  and  C_12 
REMARK    2  A    between atoms: C_5  and  O_10 
REMARK    3  A    between atoms: C_6  and  O_8 
REMARK    4  A    between atoms: N_13  and  N_14 
REMARK    5  A    between atoms: N_14  and  C_15 
REMARK    6  A    between atoms: N_16  and  C_26 
REMARK    7  A    between atoms: C_19  and  N_25 
REMARK    8  A    between atoms: C_21  and  O_24 
REMARK    9  A    between atoms: C_28  and  C_33 
REMARK   10  A    between atoms: C_29  and  O_32 
REMARK   11  A    between atoms: C_30  and  O_31 
REMARK   12  A    between atoms: C_33  and  O_34 
ROOT
ATOM      1  C   UNK d   1       1.812 -17.839 -37.221  0.00  0.00     0.727 A 
ATOM      2  N   UNK d   1       1.467 -18.818 -38.096  0.00  0.00    -0.130 N 
ATOM      3  C   UNK d   1       2.579 -19.532 -38.410  0.00  0.00     0.201 A 
ATOM      4  N   UNK d   1       2.820 -20.582 -39.204  0.00  0.00    -0.042 NA
ATOM      5  C   UNK d   1       4.050 -21.110 -39.339  0.00  0.00     0.724 A 
ATOM      6  N   UNK d   1       5.075 -20.562 -38.651  0.00  0.00    -0.036 NA
ATOM      7  C   UNK d   1       4.911 -19.519 -37.846  0.00  0.00     0.215 A 
ATOM      8  C   UNK d   1       3.646 -18.982 -37.711  0.00  0.00     0.176 A 
ATOM      9  N   UNK d   1       3.139 -17.977 -37.017  0.00  0.00    -0.055 NA
ENDROOT
BRANCH   1  10
ATOM     10  N   UNK d   1       0.935 -16.877 -36.648  0.00  0.00    -0.107 N 
ATOM     11  H   UNK d   1       0.246 -17.176 -35.941  0.00  0.00     0.208 HD
BRANCH  10  12
ATOM     12  N   UNK d   1       1.059 -15.543 -37.084  0.00  0.00    -0.172 NA
ATOM     13  C   UNK d   1       1.253 -14.562 -36.304  0.00  0.00     0.152 C 
BRANCH  13  14
ATOM     14  C   UNK d   1       1.385 -13.171 -36.725  0.00  0.00     0.003 A 
ATOM     15  C   UNK d   1       0.289 -12.337 -36.774  0.00  0.00     0.025 A 
ATOM     16 Br   UNK d   1      -1.409 -13.033 -36.278  0.00  0.00    -0.050 Br
ATOM     17  C   UNK d   1       0.408 -11.004 -37.177  0.00  0.00     0.059 A 
ATOM     18  C   UNK d   1       1.628 -10.475 -37.542  0.00  0.00     0.102 A 
ATOM     19  C   UNK d   1       2.724 -11.310 -37.494  0.00  0.00     0.102 A 
ATOM     20  C   UNK d   1       2.595 -12.624 -37.094  0.00  0.00     0.054 A 
BRANCH  18  21
ATOM     21  O   UNK d   1       1.764  -9.147 -37.947  0.00  0.00    -0.353 OA
ATOM     22  C   UNK d   1       1.489  -8.707 -39.243  0.00  0.00     0.210 C 
ENDBRANCH  18  21
BRANCH  19  23
ATOM     23  O   UNK d   1       3.950 -10.765 -37.863  0.00  0.00    -0.353 OA
ATOM     24  C   UNK d   1       4.586 -11.001 -39.079  0.00  0.00     0.210 C 
ENDBRANCH  19  23
ENDBRANCH  13  14
ENDBRANCH  10  12
ENDBRANCH   1  10
BRANCH   2  25
ATOM     25  C   UNK d   1       0.150 -19.055 -38.601  0.00  0.00     0.279 C 
ATOM     26  O   UNK d   1      -0.392 -17.980 -39.292  0.00  0.00    -0.353 OA
ATOM     27  C   UNK d   1      -1.752 -18.100 -39.286  0.00  0.00     0.179 C 
ATOM     28  C   UNK d   1      -2.165 -19.143 -38.305  0.00  0.00     0.182 C 
ATOM     29  C   UNK d   1      -0.868 -19.378 -37.527  0.00  0.00     0.199 C 
BRANCH  27  30
ATOM     30  C   UNK d   1      -2.348 -16.767 -38.827  0.00  0.00     0.198 C 
BRANCH  30  31
ATOM     31  O   UNK d   1      -1.322 -15.859 -38.542  0.00  0.00    -0.398 OA
ATOM     32  H   UNK d   1      -0.458 -16.324 -38.398  0.00  0.00     0.209 HD
ENDBRANCH  30  31
ENDBRANCH  27  30
BRANCH  28  33
ATOM     33  O   UNK d   1      -2.425 -20.360 -38.966  0.00  0.00    -0.390 OA
ATOM     34  H   UNK d   1      -3.378 -20.592 -38.931  0.00  0.00     0.210 HD
ENDBRANCH  28  33
BRANCH  29  35
ATOM     35  O   UNK d   1      -0.780 -20.705 -37.109  0.00  0.00    -0.388 OA
ATOM     36  H   UNK d   1      -0.932 -20.763 -36.130  0.00  0.00     0.210 HD
ENDBRANCH  29  35
ENDBRANCH   2  25
BRANCH   7  37
ATOM     37  O   UNK d   1       5.952 -18.930 -37.121  0.00  0.00    -0.343 OA
ATOM     38  H   UNK d   1       5.682 -18.426 -36.285  0.00  0.00     0.219 HD
ENDBRANCH   7  37
BRANCH   5  39
ATOM     39  N   UNK d   1       4.290 -22.238 -40.194  0.00  0.00    -0.231 N 
ATOM     40  H   UNK d   1       4.069 -22.263 -41.195  0.00  0.00     0.174 HD
ATOM     41  H   UNK d   1       4.718 -23.075 -39.746  0.00  0.00     0.174 HD
ENDBRANCH   5  39
TORSDOF 12
ENDMDL
