MODEL 1
REMARK VINA RESULT:    -5.567      0.000      0.000
REMARK INTER + INTRA:          -6.292
REMARK INTER:                  -6.056
REMARK INTRA:                  -0.236
REMARK UNBOUND:                -0.236
REMARK  2 active torsions:
REMARK  status: ('A' for Active; 'I' for Inactive)
REMARK    1  A    between atoms: C_3  and  C_8 
REMARK    2  A    between atoms: C_12  and  N_16 
ROOT
ATOM      1  C   UNK d   1       1.616 -19.961 -38.910  0.00  0.00     0.084 A 
ATOM      2  C   UNK d   1       0.848 -19.095 -38.129  0.00  0.00     0.166 A 
ATOM      3  C   UNK d   1       0.607 -17.629 -38.029  0.00  0.00     0.295 C 
ATOM      4  N   UNK d   1      -0.611 -17.657 -38.878  0.00  0.00    -0.209 NA
ATOM      5  C   UNK d   1      -0.396 -18.485 -39.851  0.00  0.00     0.124 C 
ATOM      6  C   UNK d   1       0.926 -19.003 -39.684  0.00  0.00     0.146 A 
ATOM      7  C   UNK d   1       1.874 -18.004 -40.264  0.00  0.00     0.080 C 
ATOM      8  N   UNK d   1       2.636 -17.233 -40.737  0.00  0.00    -0.196 NA
ATOM      9  O   UNK d   1       0.237 -17.339 -36.711  0.00  0.00    -0.333 OA
ATOM     10  C   UNK d   1       1.033 -16.292 -36.289  0.00  0.00     0.199 C 
ATOM     11  C   UNK d   1       1.404 -15.618 -37.600  0.00  0.00     0.199 C 
ATOM     12  O   UNK d   1       1.558 -16.771 -38.409  0.00  0.00    -0.333 OA
ATOM     13  C   UNK d   1      -0.397 -19.757 -37.598  0.00  0.00     0.080 C 
ATOM     14  N   UNK d   1      -1.369 -20.293 -37.193  0.00  0.00    -0.196 NA
ENDROOT
BRANCH   1  15
ATOM     15  C   UNK d   1       3.089 -19.921 -38.716  0.00  0.00    -0.032 A 
ATOM     16  C   UNK d   1       3.955 -20.546 -39.576  0.00  0.00     0.017 A 
ATOM     17 Br   UNK d   1       3.336 -21.507 -41.105  0.00  0.00    -0.051 Br
ATOM     18  C   UNK d   1       5.318 -20.467 -39.321  0.00  0.00     0.019 A 
ATOM     19  C   UNK d   1       5.819 -19.768 -38.217  0.00  0.00     0.001 A 
ATOM     20  C   UNK d   1       4.933 -19.149 -37.368  0.00  0.00     0.001 A 
ATOM     21  C   UNK d   1       3.572 -19.232 -37.629  0.00  0.00     0.009 A 
ENDBRANCH   1  15
BRANCH   5  22
ATOM     22  N   UNK d   1      -1.333 -18.813 -40.902  0.00  0.00    -0.386 N 
ATOM     23  H   UNK d   1      -1.819 -19.730 -40.921  0.00  0.00     0.157 HD
ATOM     24  H   UNK d   1      -1.538 -18.134 -41.659  0.00  0.00     0.157 HD
ENDBRANCH   5  22
TORSDOF 2
ENDMDL
