MODEL 1
REMARK VINA RESULT:    -6.205      0.000      0.000
REMARK INTER + INTRA:          -7.278
REMARK INTER:                  -8.381
REMARK INTRA:                   1.103
REMARK UNBOUND:                 1.103
REMARK  6 active torsions:
REMARK  status: ('A' for Active; 'I' for Inactive)
REMARK    1  A    between atoms: C_5  and  C_8 
REMARK    2  A    between atoms: C_8  and  C_10 
REMARK    3  A    between atoms: C_25  and  C_31 
REMARK    4  A    between atoms: C_26  and  C_27 
REMARK    5  A    between atoms: C_27  and  O_29 
REMARK    6  A    between atoms: C_31  and  O_33 
ROOT
ATOM      1  C   UNK d   1       1.720 -19.172 -38.066  0.00  0.00     0.162 C 
ATOM      2  N   UNK d   1       1.138 -19.960 -39.121  0.00  0.00    -0.339 N 
ATOM      3  C   UNK d   1       2.162 -19.828 -40.183  0.00  0.00     0.203 A 
ATOM      4  N   UNK d   1       1.784 -20.706 -41.222  0.00  0.00    -0.347 N 
ATOM      5  C   UNK d   1       0.508 -21.257 -40.884  0.00  0.00     0.143 A 
ATOM      6  C   UNK d   1       0.142 -20.794 -39.619  0.00  0.00     0.146 A 
ATOM      7  C   UNK d   1      -1.065 -21.200 -39.089  0.00  0.00     0.281 A 
ATOM      8  O   UNK d   1      -1.373 -20.769 -37.948  0.00  0.00    -0.265 OA
ATOM      9  N   UNK d   1      -1.853 -22.022 -39.790  0.00  0.00    -0.269 N 
ATOM     10  C   UNK d   1      -1.481 -22.446 -40.986  0.00  0.00     0.332 A 
ATOM     11  O   UNK d   1      -2.253 -23.220 -41.615  0.00  0.00    -0.246 OA
ATOM     12  N   UNK d   1      -0.296 -22.078 -41.566  0.00  0.00    -0.287 N 
ATOM     13  C   UNK d   1      -0.009 -22.609 -42.879  0.00  0.00     0.163 C 
ATOM     14  C   UNK d   1      -3.127 -22.429 -39.188  0.00  0.00     0.164 C 
ATOM     15  C   UNK d   1       2.492 -21.003 -42.441  0.00  0.00     0.153 C 
ATOM     16  C   UNK d   1       3.445 -19.979 -39.479  0.00  0.00     0.144 C 
ATOM     17  C   UNK d   1       3.083 -19.879 -37.991  0.00  0.00     0.132 C 
ENDROOT
BRANCH   1  18
ATOM     18  C   UNK d   1       1.918 -17.796 -38.460  0.00  0.00     0.118 C 
ATOM     19  O   UNK d   1       2.547 -17.662 -39.594  0.00  0.00    -0.194 OA
BRANCH  18  20
ATOM     20  C   UNK d   1       1.540 -16.560 -37.813  0.00  0.00    -0.002 A 
ATOM     21  C   UNK d   1       1.006 -16.510 -36.547  0.00  0.00     0.015 A 
ATOM     22  C   UNK d   1       0.644 -15.297 -36.014  0.00  0.00     0.020 A 
ATOM     23  C   UNK d   1       0.803 -14.114 -36.719  0.00  0.00     0.011 A 
ATOM     24 Br   UNK d   1       0.291 -12.446 -35.954  0.00  0.00    -0.051 Br
ATOM     25  C   UNK d   1       1.341 -14.171 -37.992  0.00  0.00     0.020 A 
ATOM     26  C   UNK d   1       1.708 -15.377 -38.538  0.00  0.00     0.015 A 
ENDBRANCH  18  20
ENDBRANCH   1  18
BRANCH  17  27
ATOM     27  C   UNK d   1       4.080 -19.125 -37.237  0.00  0.00     0.266 C 
ATOM     28  O   UNK d   1       3.872 -18.846 -36.010  0.00  0.00    -0.265 OA
BRANCH  27  29
ATOM     29  O   UNK d   1       5.250 -18.698 -37.804  0.00  0.00    -0.326 OA
ATOM     30  C   UNK d   1       6.516 -19.303 -37.528  0.00  0.00     0.213 C 
ENDBRANCH  27  29
ENDBRANCH  17  27
BRANCH  16  31
ATOM     31  C   UNK d   1       4.262 -21.156 -39.743  0.00  0.00     0.267 C 
ATOM     32  O   UNK d   1       4.094 -22.202 -39.062  0.00  0.00    -0.265 OA
BRANCH  31  33
ATOM     33  O   UNK d   1       5.225 -21.168 -40.728  0.00  0.00    -0.326 OA
ATOM     34  C   UNK d   1       5.831 -19.976 -41.179  0.00  0.00     0.213 C 
ENDBRANCH  31  33
ENDBRANCH  16  31
TORSDOF 6
ENDMDL
