/Users/jonathanwahrer/Desktop/Msc/3_Semester/Drug_Design_Praktikum/waehrer_HTS_screening/HTS_experiment/out/docking_results/vina_output/6y4q/1381_docked.pdbqt
 OpenBabel03232218223D

 31 34  0  0  0  0  0  0  0  0999 V2000
    0.8310  -13.9890  -36.8090 C   0  0  0  0  0  0  0  0  0  0  0  0
   -0.1180  -13.3970  -36.3110 O   0  0  0  0  0  0  0  0  0  0  0  0
    1.2620  -15.0620  -35.9820 O   0  0  0  0  0  0  0  0  0  0  0  0
    0.4460  -16.1990  -35.9100 C   0  0  0  0  0  2  0  0  0  0  0  0
    1.0600  -17.2380  -36.7620 C   0  0  0  0  0  0  0  0  0  0  0  0
    2.3470  -17.5770  -36.5800 N   0  0  0  0  0  0  0  0  0  0  0  0
    2.9570  -18.5140  -37.3250 C   0  0  0  0  0  0  0  0  0  0  0  0
    2.2900  -19.1530  -38.2920 N   0  0  0  0  0  0  0  0  0  0  0  0
    4.2710  -18.8320  -37.1100 C   0  0  0  0  0  3  0  0  0  0  0  0
    2.9000  -20.1000  -39.0460 C   0  0  0  0  0  3  0  0  0  0  0  0
    0.9940  -18.8740  -38.5410 C   0  0  0  0  0  0  0  0  0  0  0  0
    4.2270  -20.4350  -38.8440 C   0  0  0  0  0  0  0  0  0  0  0  0
    5.0730  -21.7810  -39.9270 Br  0  0  0  0  0  0  0  0  0  0  0  0
    4.9280  -19.7880  -37.8560 C   0  0  0  0  0  3  0  0  0  0  0  0
    0.3740  -17.8930  -37.7540 C   0  0  0  0  0  3  0  0  0  0  0  0
    0.3370  -19.4550  -39.4410 O   0  0  0  0  0  0  0  0  0  0  0  0
    1.5270  -13.7500  -38.0580 C   0  0  0  0  0  0  0  0  0  0  0  0
    1.1860  -14.4420  -39.1860 N   0  0  0  0  0  0  0  0  0  0  0  0
    1.8050  -14.2420  -40.3360 N   0  0  0  0  0  0  0  0  0  0  0  0
    2.8000  -13.3470  -40.4500 C   0  0  0  0  0  0  0  0  0  0  0  0
    3.3910  -13.1630  -41.5670 O   0  0  0  0  0  0  0  0  0  0  0  0
    3.2050  -12.6100  -39.3630 C   0  0  0  0  0  0  0  0  0  0  0  0
    2.5340  -12.8400  -38.1590 C   0  0  0  0  0  0  0  0  0  0  0  0
    4.2220  -11.7030  -39.5020 C   0  0  0  0  0  3  0  0  0  0  0  0
    2.9700  -12.0820  -37.1000 C   0  0  0  0  0  3  0  0  0  0  0  0
    4.0020  -11.1580  -37.2280 C   0  0  0  0  0  3  0  0  0  0  0  0
    4.6410  -10.9570  -38.4290 C   0  0  0  0  0  3  0  0  0  0  0  0
    1.4340  -14.9820  -41.5250 C   0  0  0  0  0  2  0  0  0  0  0  0
    1.5770  -16.4700  -41.3440 C   0  0  0  0  0  2  0  0  0  0  0  0
    2.7660  -16.8220  -40.7320 O   0  0  0  0  0  0  0  0  0  0  0  0
    2.7070  -17.7770  -40.4940 H   0  0  0  0  0  0  0  0  0  0  0  0
  1  2  2  0  0  0  0
  1  3  1  0  0  0  0
  3  4  1  0  0  0  0
  5  6  1  0  0  0  0
  5  4  1  0  0  0  0
  7  9  1  0  0  0  0
  7  6  2  0  0  0  0
  8  7  1  0  0  0  0
 10 12  2  0  0  0  0
 10  8  1  0  0  0  0
 11  8  1  0  0  0  0
 11 15  1  0  0  0  0
 12 14  1  0  0  0  0
 13 12  1  0  0  0  0
 14  9  2  0  0  0  0
 15  5  2  0  0  0  0
 16 11  2  0  0  0  0
 17  1  1  0  0  0  0
 18 17  2  0  0  0  0
 19 18  1  0  0  0  0
 20 19  1  0  0  0  0
 20 22  1  0  0  0  0
 21 20  2  0  0  0  0
 22 23  1  0  0  0  0
 23 17  1  0  0  0  0
 23 25  2  0  0  0  0
 24 22  2  0  0  0  0
 24 27  1  0  0  0  0
 26 25  1  0  0  0  0
 27 26  2  0  0  0  0
 28 29  1  0  0  0  0
 28 19  1  0  0  0  0
 29 30  1  0  0  0  0
 30 31  1  0  0  0  0
M  END
>  <Pose>
1

>  <Score>
-6.586

$$$$
