MODEL 1
REMARK VINA RESULT:    -6.586      0.000      0.000
REMARK INTER + INTRA:         -10.746
REMARK INTER:                  -9.089
REMARK INTRA:                  -1.658
REMARK UNBOUND:                -1.658
REMARK  7 active torsions:
REMARK  status: ('A' for Active; 'I' for Inactive)
REMARK    1  A    between atoms: C_7  and  C_11 
REMARK    2  A    between atoms: C_11  and  O_12 
REMARK    3  A    between atoms: O_12  and  C_13 
REMARK    4  A    between atoms: C_13  and  C_15 
REMARK    5  A    between atoms: N_17  and  C_26 
REMARK    6  A    between atoms: C_26  and  C_27 
REMARK    7  A    between atoms: C_27  and  O_28 
ROOT
ATOM      1  C   UNK d   1       0.831 -13.989 -36.809  0.00  0.00     0.315 C 
ATOM      2  O   UNK d   1      -0.118 -13.397 -36.311  0.00  0.00    -0.257 OA
ENDROOT
BRANCH   1   3
ATOM      3  O   UNK d   1       1.262 -15.062 -35.982  0.00  0.00    -0.310 OA
BRANCH   3   4
ATOM      4  C   UNK d   1       0.446 -16.199 -35.910  0.00  0.00     0.238 C 
BRANCH   4   5
ATOM      5  C   UNK d   1       1.060 -17.238 -36.762  0.00  0.00     0.066 A 
ATOM      6  N   UNK d   1       2.347 -17.577 -36.580  0.00  0.00    -0.233 NA
ATOM      7  C   UNK d   1       2.957 -18.514 -37.325  0.00  0.00     0.137 A 
ATOM      8  N   UNK d   1       2.290 -19.153 -38.292  0.00  0.00    -0.272 N 
ATOM      9  C   UNK d   1       4.271 -18.832 -37.110  0.00  0.00     0.052 A 
ATOM     10  C   UNK d   1       2.900 -20.100 -39.046  0.00  0.00     0.121 A 
ATOM     11  C   UNK d   1       0.994 -18.874 -38.541  0.00  0.00     0.255 A 
ATOM     12  C   UNK d   1       4.227 -20.435 -38.844  0.00  0.00     0.027 A 
ATOM     13 Br   UNK d   1       5.073 -21.781 -39.927  0.00  0.00    -0.050 Br
ATOM     14  C   UNK d   1       4.928 -19.788 -37.856  0.00  0.00     0.024 A 
ATOM     15  C   UNK d   1       0.374 -17.893 -37.754  0.00  0.00     0.104 A 
ATOM     16  O   UNK d   1       0.337 -19.455 -39.441  0.00  0.00    -0.268 OA
ENDBRANCH   4   5
ENDBRANCH   3   4
ENDBRANCH   1   3
BRANCH   1  17
ATOM     17  C   UNK d   1       1.527 -13.750 -38.058  0.00  0.00     0.163 A 
ATOM     18  N   UNK d   1       1.186 -14.442 -39.186  0.00  0.00    -0.163 NA
ATOM     19  N   UNK d   1       1.805 -14.242 -40.336  0.00  0.00    -0.231 N 
ATOM     20  C   UNK d   1       2.800 -13.347 -40.450  0.00  0.00     0.274 A 
ATOM     21  O   UNK d   1       3.391 -13.163 -41.567  0.00  0.00    -0.266 OA
ATOM     22  C   UNK d   1       3.205 -12.610 -39.363  0.00  0.00     0.046 A 
ATOM     23  C   UNK d   1       2.534 -12.840 -38.159  0.00  0.00     0.016 A 
ATOM     24  C   UNK d   1       4.222 -11.703 -39.502  0.00  0.00     0.018 A 
ATOM     25  C   UNK d   1       2.970 -12.082 -37.100  0.00  0.00     0.015 A 
ATOM     26  C   UNK d   1       4.002 -11.158 -37.228  0.00  0.00     0.001 A 
ATOM     27  C   UNK d   1       4.641 -10.957 -38.429  0.00  0.00     0.001 A 
BRANCH  19  28
ATOM     28  C   UNK d   1       1.434 -14.982 -41.525  0.00  0.00     0.180 C 
BRANCH  28  29
ATOM     29  C   UNK d   1       1.577 -16.470 -41.344  0.00  0.00     0.186 C 
BRANCH  29  30
ATOM     30  O   UNK d   1       2.766 -16.822 -40.732  0.00  0.00    -0.399 OA
ATOM     31  H   UNK d   1       2.707 -17.777 -40.494  0.00  0.00     0.209 HD
ENDBRANCH  29  30
ENDBRANCH  28  29
ENDBRANCH  19  28
ENDBRANCH   1  17
TORSDOF 7
ENDMDL
