MODEL 1
REMARK VINA RESULT:    -6.776      0.000      0.000
REMARK INTER + INTRA:          -9.296
REMARK INTER:                  -8.558
REMARK INTRA:                  -0.738
REMARK UNBOUND:                -0.738
REMARK  5 active torsions:
REMARK  status: ('A' for Active; 'I' for Inactive)
REMARK    1  A    between atoms: C_6  and  C_12 
REMARK    2  A    between atoms: C_12  and  C_13 
REMARK    3  A    between atoms: C_13  and  C_14 
REMARK       I    between atoms: C_14  and  N_16 
REMARK    4  A    between atoms: C_18  and  N_24 
REMARK    5  A    between atoms: C_19  and  O_22 
ROOT
ATOM      1  C   UNK d   1      -1.330 -19.558 -37.585  0.00  0.00     0.220 C 
ATOM      2  O   UNK d   1      -1.354 -20.707 -37.089  0.00  0.00    -0.273 OA
ATOM      3  N   UNK d   1      -0.407 -19.283 -38.660  0.00  0.00    -0.350 N 
ATOM      4  C   UNK d   1       0.453 -20.337 -39.125  0.00  0.00     0.154 C 
ATOM      5  C   UNK d   1       1.870 -19.958 -38.748  0.00  0.00     0.146 C 
ATOM      6  C   UNK d   1       2.117 -18.493 -38.754  0.00  0.00     0.078 C 
ATOM      7  C   UNK d   1       1.154 -17.682 -39.540  0.00  0.00     0.059 C 
ATOM      8  C   UNK d   1      -0.286 -18.006 -39.309  0.00  0.00     0.129 C 
ATOM      9  C   UNK d   1       3.508 -18.269 -39.363  0.00  0.00     0.048 C 
ENDROOT
BRANCH   1  10
ATOM     10  C   UNK d   1      -2.205 -18.477 -37.115  0.00  0.00     0.110 C 
BRANCH  10  11
ATOM     11  C   UNK d   1      -1.746 -17.661 -35.983  0.00  0.00     0.088 C 
BRANCH  11  12
ATOM     12  C   UNK d   1      -1.038 -16.395 -36.301  0.00  0.00     0.107 A 
ATOM     13  N   UNK d   1       0.308 -16.183 -36.092  0.00  0.00    -0.233 NA
ATOM     14  C   UNK d   1       0.615 -14.921 -36.428  0.00  0.00     0.087 A 
ATOM     15  C   UNK d   1       1.791 -14.189 -36.418  0.00  0.00     0.057 A 
ATOM     16  C   UNK d   1      -0.530 -14.294 -36.860  0.00  0.00     0.064 A 
ATOM     17  C   UNK d   1       1.812 -12.877 -36.829  0.00  0.00     0.036 A 
ATOM     18 Cl   UNK d   1       3.341 -11.985 -36.797  0.00  0.00    -0.084 Cl
ATOM     19  C   UNK d   1       0.653 -12.263 -37.262  0.00  0.00     0.026 A 
ATOM     20  C   UNK d   1      -0.520 -12.979 -37.275  0.00  0.00     0.034 A 
ATOM     21  N   UNK d   1      -1.508 -15.241 -36.761  0.00  0.00    -0.338 N 
ATOM     22  C   UNK d   1      -2.884 -14.916 -37.096  0.00  0.00     0.158 C 
ENDBRANCH  11  12
ENDBRANCH  10  11
ENDBRANCH   1  10
BRANCH   5  23
ATOM     23  N   UNK d   1       2.767 -20.701 -39.599  0.00  0.00    -0.300 N 
ATOM     24  C   UNK d   1       2.517 -20.809 -40.919  0.00  0.00     0.102 A 
ATOM     25  C   UNK d   1       3.345 -21.508 -41.768  0.00  0.00     0.092 A 
ATOM     26  C   UNK d   1       4.463 -22.112 -41.242  0.00  0.00     0.250 A 
ATOM     27  O   UNK d   1       5.270 -22.774 -41.975  0.00  0.00    -0.268 OA
ATOM     28  N   UNK d   1       4.687 -21.989 -39.924  0.00  0.00    -0.275 N 
ATOM     29  C   UNK d   1       3.869 -21.306 -39.122  0.00  0.00     0.329 A 
ATOM     30  H   UNK d   1       5.539 -22.441 -39.476  0.00  0.00     0.173 HD
ATOM     31  O   UNK d   1       4.125 -21.220 -37.887  0.00  0.00    -0.246 OA
ENDBRANCH   5  23
BRANCH   6  32
ATOM     32  O   UNK d   1       2.189 -17.947 -37.463  0.00  0.00    -0.388 OA
ATOM     33  H   UNK d   1       2.950 -17.287 -37.450  0.00  0.00     0.210 HD
ENDBRANCH   6  32
TORSDOF 5
ENDMDL
