/Users/jonathanwahrer/Desktop/Msc/3_Semester/Drug_Design_Praktikum/waehrer_HTS_screening/HTS_experiment/out/docking_results/vina_output/6y4q/1404_docked.pdbqt
 OpenBabel03232218233D

 26 29  0  0  1  0  0  0  0  0999 V2000
    1.6750  -12.7210  -39.3130 Br  0  0  0  0  0  0  0  0  0  0  0  0
    1.6320  -14.5280  -38.7030 C   0  0  0  0  0  0  0  0  0  0  0  0
    1.6040  -15.5850  -39.5930 C   0  0  0  0  0  3  0  0  0  0  0  0
    1.5720  -16.9070  -39.2020 C   0  0  0  0  0  0  0  0  0  0  0  0
    1.5690  -17.1340  -37.8230 C   0  0  0  0  0  0  0  0  0  0  0  0
    1.5970  -16.0840  -36.9380 C   0  0  0  0  0  3  0  0  0  0  0  0
    1.6290  -14.7660  -37.3440 C   0  0  0  0  0  0  0  0  0  0  0  0
    1.6580  -13.6650  -36.3390 C   0  0  0  0  0  1  0  0  0  0  0  0
    1.5390  -18.4750  -37.4670 O   0  0  0  0  0  0  0  0  0  0  0  0
    1.2990  -19.5370  -38.3720 C   0  0  0  0  0  2  0  0  0  0  0  0
    2.0960  -19.3130  -39.6990 C   0  0  2  0  0  0  0  0  0  0  0  0
    1.5240  -18.0180  -40.1420 C   0  0  0  0  0  0  0  0  0  0  0  0
    0.9960  -17.7660  -41.2390 O   0  0  0  0  0  0  0  0  0  0  0  0
    2.0150  -20.3570  -40.5680 N   0  0  0  0  0  0  0  0  0  0  0  0
    2.8490  -20.5230  -41.6810 C   0  0  0  0  0  2  0  0  0  0  0  0
    2.1250  -20.0970  -42.9400 C   0  0  0  0  0  2  0  0  0  0  0  0
    1.0760  -21.0320  -43.1070 O   0  0  0  0  0  0  0  0  0  0  0  0
    0.1530  -20.6970  -42.1010 C   0  0  0  0  0  2  0  0  0  0  0  0
    0.7960  -21.0130  -40.7490 C   0  0  0  0  0  2  0  0  0  0  0  0
    3.4900  -19.1120  -39.2200 C   0  0  0  0  0  2  0  0  0  0  0  0
    3.9900  -19.9770  -38.1990 N   0  0  0  0  0  0  0  0  0  0  0  0
    4.5390  -21.2240  -38.5780 C   0  0  0  0  0  2  0  0  0  0  0  0
    5.9430  -21.0380  -39.1730 C   0  0  0  0  0  2  0  0  0  0  0  0
    6.7380  -20.5800  -38.1170 O   0  0  0  0  0  0  0  0  0  0  0  0
    6.3200  -19.2750  -37.8330 C   0  0  0  0  0  2  0  0  0  0  0  0
    4.9050  -19.2170  -37.3460 C   0  0  0  0  0  2  0  0  0  0  0  0
  1  2  1  0  0  0  0
  2  7  1  0  0  0  0
  3  4  1  0  0  0  0
  3  2  2  0  0  0  0
  4  5  2  0  0  0  0
  5  9  1  0  0  0  0
  5  6  1  0  0  0  0
  7  6  2  0  0  0  0
  7  8  1  0  0  0  0
 10  9  1  0  0  0  0
 11 20  1  1  0  0  0
 11 10  1  0  0  0  0
 12 11  1  0  0  0  0
 12  4  1  0  0  0  0
 13 12  2  0  0  0  0
 14 11  1  0  0  0  0
 15 14  1  0  0  0  0
 16 15  1  0  0  0  0
 17 16  1  0  0  0  0
 17 18  1  0  0  0  0
 18 19  1  0  0  0  0
 19 14  1  0  0  0  0
 20 21  1  0  0  0  0
 21 26  1  0  0  0  0
 22 21  1  0  0  0  0
 23 22  1  0  0  0  0
 23 24  1  0  0  0  0
 24 25  1  0  0  0  0
 25 26  1  0  0  0  0
M  END
>  <Pose>
1

>  <Score>
-5.862

$$$$
