MODEL 1
REMARK VINA RESULT:    -5.862      0.000      0.000
REMARK INTER + INTRA:          -6.995
REMARK INTER:                  -6.890
REMARK INTRA:                  -0.105
REMARK UNBOUND:                -0.105
REMARK  3 active torsions:
REMARK  status: ('A' for Active; 'I' for Inactive)
REMARK    1  A    between atoms: C_11  and  N_14 
REMARK    2  A    between atoms: C_11  and  C_20 
REMARK    3  A    between atoms: C_20  and  N_21 
ROOT
ATOM      1 Br   UNK d   1       1.675 -12.721 -39.313  0.00  0.00    -0.051 Br
ATOM      2  C   UNK d   1       1.632 -14.528 -38.703  0.00  0.00     0.018 A 
ATOM      3  C   UNK d   1       1.604 -15.585 -39.593  0.00  0.00     0.037 A 
ATOM      4  C   UNK d   1       1.572 -16.907 -39.202  0.00  0.00     0.047 A 
ATOM      5  C   UNK d   1       1.569 -17.134 -37.823  0.00  0.00     0.083 A 
ATOM      6  C   UNK d   1       1.597 -16.084 -36.938  0.00  0.00     0.045 A 
ATOM      7  C   UNK d   1       1.629 -14.766 -37.344  0.00  0.00    -0.042 A 
ATOM      8  C   UNK d   1       1.658 -13.665 -36.339  0.00  0.00     0.049 C 
ATOM      9  O   UNK d   1       1.539 -18.475 -37.467  0.00  0.00    -0.347 OA
ATOM     10  C   UNK d   1       1.299 -19.537 -38.372  0.00  0.00     0.216 C 
ATOM     11  C   UNK d   1       2.096 -19.313 -39.699  0.00  0.00     0.142 C 
ATOM     12  C   UNK d   1       1.524 -18.018 -40.142  0.00  0.00     0.194 C 
ATOM     13  O   UNK d   1       0.996 -17.766 -41.239  0.00  0.00    -0.289 OA
ENDROOT
BRANCH  11  14
ATOM     14  N   UNK d   1       2.015 -20.357 -40.568  0.00  0.00    -0.390 N 
ATOM     15  C   UNK d   1       2.849 -20.523 -41.681  0.00  0.00     0.144 C 
ATOM     16  C   UNK d   1       2.125 -20.097 -42.940  0.00  0.00     0.187 C 
ATOM     17  O   UNK d   1       1.076 -21.032 -43.107  0.00  0.00    -0.388 OA
ATOM     18  C   UNK d   1       0.153 -20.697 -42.101  0.00  0.00     0.187 C 
ATOM     19  C   UNK d   1       0.796 -21.013 -40.749  0.00  0.00     0.144 C 
ENDBRANCH  11  14
BRANCH  11  20
ATOM     20  C   UNK d   1       3.490 -19.112 -39.220  0.00  0.00     0.314 C 
BRANCH  20  21
ATOM     21  N   UNK d   1       3.990 -19.977 -38.199  0.00  0.00     0.095 N 
ATOM     22  C   UNK d   1       4.539 -21.224 -38.578  0.00  0.00     0.298 C 
ATOM     23  C   UNK d   1       5.943 -21.038 -39.173  0.00  0.00     0.198 C 
ATOM     24  O   UNK d   1       6.738 -20.580 -38.117  0.00  0.00    -0.388 OA
ATOM     25  C   UNK d   1       6.320 -19.275 -37.833  0.00  0.00     0.198 C 
ATOM     26  C   UNK d   1       4.905 -19.217 -37.346  0.00  0.00     0.298 C 
ENDBRANCH  20  21
ENDBRANCH  11  20
TORSDOF 3
ENDMDL
