MODEL 1
REMARK VINA RESULT:    -5.968      0.000      0.000
REMARK INTER + INTRA:          -6.143
REMARK INTER:                  -6.143
REMARK INTRA:                   0.000
REMARK UNBOUND:                 0.000
REMARK  1 active torsions:
REMARK  status: ('A' for Active; 'I' for Inactive)
REMARK    1  A    between atoms: C_19  and  N_23 
ROOT
ATOM      1 Br   UNK d   1       2.755 -12.258 -37.658  0.00  0.00    -0.051 Br
ATOM      2  C   UNK d   1       1.757 -13.881 -37.366  0.00  0.00     0.011 A 
ATOM      3  C   UNK d   1       2.020 -15.012 -38.092  0.00  0.00     0.030 A 
ATOM      4  C   UNK d   1       1.293 -16.162 -37.864  0.00  0.00    -0.002 A 
ATOM      5  C   UNK d   1       0.320 -16.119 -36.902  0.00  0.00     0.045 A 
ATOM      6  C   UNK d   1       0.052 -14.954 -36.156  0.00  0.00     0.031 A 
ATOM      7  C   UNK d   1       0.784 -13.821 -36.395  0.00  0.00     0.021 A 
ATOM      8  N   UNK d   1      -0.340 -17.376 -36.784  0.00  0.00    -0.320 N 
ATOM      9  C   UNK d   1       0.237 -18.254 -37.711  0.00  0.00     0.247 A 
ATOM     10  O   UNK d   1      -0.106 -19.463 -37.882  0.00  0.00    -0.271 OA
ATOM     11  C   UNK d   1       1.320 -17.521 -38.457  0.00  0.00     0.145 A 
ATOM     12  C   UNK d   1       2.556 -18.243 -38.178  0.00  0.00     0.049 A 
ATOM     13  C   UNK d   1       3.252 -18.861 -39.170  0.00  0.00     0.200 A 
ATOM     14  N   UNK d   1       4.343 -19.435 -38.582  0.00  0.00    -0.148 NA
ATOM     15  N   UNK d   1       4.340 -19.196 -37.287  0.00  0.00    -0.280 N 
ATOM     16  C   UNK d   1       3.264 -18.469 -36.994  0.00  0.00     0.036 A 
ATOM     17  C   UNK d   1       2.810 -17.942 -35.669  0.00  0.00     0.070 C 
ATOM     18  O   UNK d   1       2.840 -18.848 -40.507  0.00  0.00    -0.272 OA
ATOM     19  C   UNK d   1       1.660 -18.159 -40.769  0.00  0.00     0.162 A 
ATOM     20  C   UNK d   1       0.948 -17.546 -39.860  0.00  0.00     0.100 A 
ATOM     21  C   UNK d   1      -0.275 -16.865 -40.320  0.00  0.00     0.101 C 
ATOM     22  N   UNK d   1      -1.249 -16.319 -40.662  0.00  0.00    -0.191 NA
ATOM     23  C   UNK d   1      -1.435 -17.707 -35.860  0.00  0.00     0.159 C 
ATOM     24  H   UNK d   1       5.040 -19.501 -36.563  0.00  0.00     0.189 HD
ENDROOT
BRANCH  19  25
ATOM     25  N   UNK d   1       1.181 -18.110 -42.143  0.00  0.00    -0.379 N 
ATOM     26  H   UNK d   1       0.410 -18.773 -42.357  0.00  0.00     0.158 HD
ATOM     27  H   UNK d   1       1.561 -17.482 -42.848  0.00  0.00     0.158 HD
ENDBRANCH  19  25
TORSDOF 1
ENDMDL
