MODEL 1
REMARK VINA RESULT:    -7.461      0.000      0.000
REMARK INTER + INTRA:          -9.420
REMARK INTER:                  -8.769
REMARK INTRA:                  -0.650
REMARK UNBOUND:                -0.650
REMARK  3 active torsions:
REMARK  status: ('A' for Active; 'I' for Inactive)
REMARK    1  A    between atoms: N_9  and  C_11 
REMARK    2  A    between atoms: C_11  and  C_12 
REMARK    3  A    between atoms: C_12  and  C_14 
ROOT
ATOM      1  C   UNK d   1       0.702 -16.539 -36.098  0.00  0.00     0.211 C 
ENDROOT
BRANCH   1   2
ATOM      2  N   UNK d   1       1.453 -17.525 -36.858  0.00  0.00    -0.355 N 
ATOM      3  C   UNK d   1       2.749 -17.798 -36.629  0.00  0.00     0.127 A 
ATOM      4  C   UNK d   1       3.429 -18.750 -37.382  0.00  0.00     0.126 A 
ATOM      5  C   UNK d   1       2.794 -19.443 -38.387  0.00  0.00     0.104 A 
ATOM      6  N   UNK d   1       4.700 -19.229 -37.384  0.00  0.00    -0.128 NA
ATOM      7  C   UNK d   1       1.489 -19.172 -38.623  0.00  0.00     0.057 A 
ATOM      8  N   UNK d   1       3.649 -20.305 -38.973  0.00  0.00    -0.252 N 
ATOM      9 Br   UNK d   1       0.595 -20.112 -40.002  0.00  0.00    -0.047 Br
ATOM     10  C   UNK d   1       0.841 -18.212 -37.847  0.00  0.00     0.112 A 
ATOM     11  N   UNK d   1       4.794 -20.132 -38.320  0.00  0.00    -0.065 NA
ATOM     12  C   UNK d   1       3.478 -21.223 -40.035  0.00  0.00     0.182 C 
ENDBRANCH   1   2
BRANCH   1  13
ATOM     13  C   UNK d   1       0.358 -15.336 -36.851  0.00  0.00     0.177 C 
ATOM     14  O   UNK d   1      -0.869 -15.013 -36.865  0.00  0.00    -0.291 OA
BRANCH  13  15
ATOM     15  C   UNK d   1       1.285 -14.478 -37.582  0.00  0.00     0.012 A 
ATOM     16  C   UNK d   1       1.937 -13.483 -36.910  0.00  0.00     0.027 A 
ATOM     17  C   UNK d   1       2.808 -12.658 -37.572  0.00  0.00    -0.025 A 
ATOM     18  C   UNK d   1       3.061 -12.793 -38.925  0.00  0.00    -0.026 A 
ATOM     19  C   UNK d   1       3.458 -11.658 -36.871  0.00  0.00     0.012 A 
ATOM     20  C   UNK d   1       2.380 -13.816 -39.581  0.00  0.00     0.013 A 
ATOM     21  C   UNK d   1       3.934 -11.976 -39.613  0.00  0.00     0.012 A 
ATOM     22  C   UNK d   1       1.510 -14.642 -38.923  0.00  0.00     0.016 A 
ATOM     23  C   UNK d   1       4.573 -10.983 -38.902  0.00  0.00     0.001 A 
ATOM     24  C   UNK d   1       4.328 -10.839 -37.552  0.00  0.00     0.001 A 
ENDBRANCH  13  15
ENDBRANCH   1  13
TORSDOF 3
ENDMDL
