/Users/jonathanwahrer/Desktop/Msc/3_Semester/Drug_Design_Praktikum/waehrer_HTS_screening/HTS_experiment/out/docking_results/vina_output/6y4q/1413_docked.pdbqt
 OpenBabel03232218233D

 24 27  0  0  0  0  0  0  0  0999 V2000
    0.7020  -16.5390  -36.0980 C   0  0  0  0  0  2  0  0  0  0  0  0
    1.4530  -17.5250  -36.8580 N   0  0  0  0  0  0  0  0  0  0  0  0
    2.7490  -17.7980  -36.6290 C   0  0  0  0  0  2  0  0  0  0  0  0
    3.4290  -18.7500  -37.3820 C   0  0  0  0  0  0  0  0  0  0  0  0
    2.7940  -19.4430  -38.3870 C   0  0  0  0  0  0  0  0  0  0  0  0
    4.7000  -19.2290  -37.3840 N   0  0  0  0  0  0  0  0  0  0  0  0
    1.4890  -19.1720  -38.6230 C   0  0  0  0  0  0  0  0  0  0  0  0
    3.6490  -20.3050  -38.9730 N   0  0  0  0  0  0  0  0  0  0  0  0
    0.5950  -20.1120  -40.0020 Br  0  0  0  0  0  0  0  0  0  0  0  0
    0.8410  -18.2120  -37.8470 C   0  0  0  0  0  3  0  0  0  0  0  0
    4.7940  -20.1320  -38.3200 N   0  0  0  0  0  0  0  0  0  0  0  0
    3.4780  -21.2230  -40.0350 C   0  0  0  0  0  1  0  0  0  0  0  0
    0.3580  -15.3360  -36.8510 C   0  0  0  0  0  0  0  0  0  0  0  0
   -0.8690  -15.0130  -36.8650 O   0  0  0  0  0  0  0  0  0  0  0  0
    1.2850  -14.4780  -37.5820 C   0  0  0  0  0  0  0  0  0  0  0  0
    1.9370  -13.4830  -36.9100 C   0  0  0  0  0  3  0  0  0  0  0  0
    2.8080  -12.6580  -37.5720 C   0  0  0  0  0  0  0  0  0  0  0  0
    3.0610  -12.7930  -38.9250 C   0  0  0  0  0  0  0  0  0  0  0  0
    3.4580  -11.6580  -36.8710 C   0  0  0  0  0  3  0  0  0  0  0  0
    2.3800  -13.8160  -39.5810 C   0  0  0  0  0  3  0  0  0  0  0  0
    3.9340  -11.9760  -39.6130 C   0  0  0  0  0  3  0  0  0  0  0  0
    1.5100  -14.6420  -38.9230 C   0  0  0  0  0  3  0  0  0  0  0  0
    4.5730  -10.9830  -38.9020 C   0  0  0  0  0  3  0  0  0  0  0  0
    4.3280  -10.8390  -37.5520 C   0  0  0  0  0  3  0  0  0  0  0  0
  2  3  1  0  0  0  0
  2  1  1  0  0  0  0
  4  3  1  0  0  0  0
  5  4  2  0  0  0  0
  6  4  1  0  0  0  0
  7  5  1  0  0  0  0
  7 10  2  0  0  0  0
  8  5  1  0  0  0  0
  8 11  1  0  0  0  0
  9  7  1  0  0  0  0
 10  2  1  0  0  0  0
 11  6  2  0  0  0  0
 12  8  1  0  0  0  0
 13  1  1  0  0  0  0
 14 13  2  0  0  0  0
 15 16  1  0  0  0  0
 15 13  1  0  0  0  0
 17 16  2  0  0  0  0
 17 19  1  0  0  0  0
 18 17  1  0  0  0  0
 20 18  2  0  0  0  0
 20 22  1  0  0  0  0
 21 18  1  0  0  0  0
 21 23  2  0  0  0  0
 22 15  2  0  0  0  0
 23 24  1  0  0  0  0
 24 19  2  0  0  0  0
M  END
>  <Pose>
1

>  <Score>
-7.461

$$$$
