MODEL 1
REMARK VINA RESULT:    -6.712      0.000      0.000
REMARK INTER + INTRA:          -9.820
REMARK INTER:                  -9.066
REMARK INTRA:                  -0.754
REMARK UNBOUND:                -0.754
REMARK  6 active torsions:
REMARK  status: ('A' for Active; 'I' for Inactive)
REMARK    1  A    between atoms: C_13  and  C_29 
REMARK    2  A    between atoms: C_15  and  C_16 
REMARK       I    between atoms: C_16  and  N_18 
REMARK    3  A    between atoms: N_18  and  C_19 
REMARK    4  A    between atoms: C_20  and  O_27 
REMARK    5  A    between atoms: C_23  and  O_25 
REMARK    6  A    between atoms: C_29  and  C_30 
REMARK       I    between atoms: C_30  and  N_32 
ROOT
ATOM      1 Cl   UNK d   1      -2.052 -15.922 -39.370  0.00  0.00    -0.084 Cl
ATOM      2  C   UNK d   1      -0.727 -16.331 -38.284  0.00  0.00     0.034 A 
ATOM      3  C   UNK d   1       0.231 -17.249 -38.621  0.00  0.00     0.036 A 
ATOM      4  C   UNK d   1       1.246 -17.533 -37.735  0.00  0.00     0.019 A 
ATOM      5  C   UNK d   1       1.259 -16.877 -36.532  0.00  0.00     0.044 A 
ATOM      6  C   UNK d   1       0.279 -15.940 -36.191  0.00  0.00     0.032 A 
ATOM      7  C   UNK d   1      -0.722 -15.667 -37.077  0.00  0.00     0.026 A 
ATOM      8  N   UNK d   1       2.366 -17.254 -35.722  0.00  0.00    -0.324 N 
ATOM      9  C   UNK d   1       3.086 -18.200 -36.463  0.00  0.00     0.267 A 
ATOM     10  O   UNK d   1       4.156 -18.730 -36.018  0.00  0.00    -0.270 OA
ATOM     11  C   UNK d   1       2.418 -18.440 -37.750  0.00  0.00     0.278 A 
ATOM     12  N   UNK d   1       3.346 -18.112 -38.796  0.00  0.00     0.113 N 
ATOM     13  C   UNK d   1       3.723 -19.313 -39.474  0.00  0.00     0.232 C 
ATOM     14  C   UNK d   1       3.257 -20.462 -38.640  0.00  0.00     0.053 C 
ATOM     15  C   UNK d   1       2.097 -19.864 -37.893  0.00  0.00     0.133 C 
ATOM     16  H   UNK d   1       2.603 -16.898 -34.759  0.00  0.00     0.169 HD
ATOM     17  H   UNK d   1       2.964 -17.371 -39.421  0.00  0.00     0.318 HD
ENDROOT
BRANCH  15  18
ATOM     18  C   UNK d   1       0.786 -20.187 -38.513  0.00  0.00     0.229 C 
ATOM     19  O   UNK d   1       0.724 -20.071 -39.761  0.00  0.00    -0.273 OA
ATOM     20  N   UNK d   1      -0.338 -20.598 -37.787  0.00  0.00    -0.324 N 
ATOM     21  H   UNK d   1      -0.177 -20.675 -36.736  0.00  0.00     0.169 HD
BRANCH  20  22
ATOM     22  C   UNK d   1      -1.613 -20.921 -38.254  0.00  0.00     0.071 A 
ATOM     23  C   UNK d   1      -2.667 -20.056 -38.001  0.00  0.00     0.095 A 
ATOM     24  C   UNK d   1      -3.953 -20.311 -38.433  0.00  0.00     0.042 A 
ATOM     25  C   UNK d   1      -4.251 -21.448 -39.142  0.00  0.00     0.039 A 
ATOM     26  C   UNK d   1      -3.233 -22.320 -39.406  0.00  0.00     0.070 A 
ATOM     27  C   UNK d   1      -1.940 -22.049 -38.964  0.00  0.00     0.069 A 
BRANCH  23  28
ATOM     28  O   UNK d   1      -2.447 -18.888 -37.292  0.00  0.00    -0.354 OA
ATOM     29  C   UNK d   1      -3.343 -18.352 -36.368  0.00  0.00     0.210 C 
ENDBRANCH  23  28
BRANCH  26  30
ATOM     30  O   UNK d   1      -3.491 -23.477 -40.118  0.00  0.00    -0.356 OA
ATOM     31  C   UNK d   1      -2.645 -24.611 -40.068  0.00  0.00     0.210 C 
ENDBRANCH  26  30
ENDBRANCH  20  22
ENDBRANCH  15  18
BRANCH  13  32
ATOM     32  C   UNK d   1       5.219 -19.366 -39.736  0.00  0.00     0.138 C 
BRANCH  32  33
ATOM     33  C   UNK d   1       5.958 -19.933 -38.598  0.00  0.00     0.217 C 
ATOM     34  O   UNK d   1       6.071 -21.163 -38.474  0.00  0.00    -0.274 OA
ATOM     35  N   UNK d   1       6.538 -19.076 -37.645  0.00  0.00    -0.370 N 
ATOM     36  H   UNK d   1       7.526 -19.251 -37.363  0.00  0.00     0.159 HD
ATOM     37  H   UNK d   1       6.044 -18.267 -37.195  0.00  0.00     0.159 HD
ENDBRANCH  32  33
ENDBRANCH  13  32
TORSDOF 6
ENDMDL
