/Users/jonathanwahrer/Desktop/Msc/3_Semester/Drug_Design_Praktikum/waehrer_HTS_screening/HTS_experiment/out/docking_results/vina_output/6y4q/1432_docked.pdbqt
 OpenBabel03232218243D

 21 24  0  0  0  0  0  0  0  0999 V2000
    1.1310  -17.2880  -36.8270 C   0  0  0  0  0  0  0  0  0  0  0  0
    0.6810  -17.9920  -37.8790 N   0  0  0  0  0  0  0  0  0  0  0  0
    1.6740  -18.7150  -38.4230 N   0  0  0  0  0  0  0  0  0  0  0  0
    2.7810  -18.4670  -37.7020 C   0  0  0  0  0  0  0  0  0  0  0  0
    2.4420  -17.5980  -36.7320 N   0  0  0  0  0  0  0  0  0  0  0  0
    3.9480  -19.1070  -38.0760 C   0  0  0  0  0  0  0  0  0  0  0  0
    4.0000  -19.9750  -39.1500 C   0  0  0  0  0  0  0  0  0  0  0  0
    5.2510  -20.4600  -39.2990 N   0  0  0  0  0  0  0  0  0  0  0  0
    5.9690  -19.9080  -38.3390 N   0  0  0  0  0  0  0  0  0  0  0  0
    5.2290  -19.0840  -37.5750 C   0  0  0  0  0  3  0  0  0  0  0  0
    5.6900  -21.4040  -40.3250 C   0  0  0  0  0  1  0  0  0  0  0  0
    2.8550  -20.1760  -39.8250 N   0  0  0  0  0  0  0  0  0  0  0  0
    1.7150  -19.5600  -39.4710 C   0  0  0  0  0  3  0  0  0  0  0  0
    0.3780  -16.3610  -35.9380 C   0  0  0  0  0  2  0  0  0  0  0  0
    0.6620  -14.9690  -36.2490 N   0  0  0  0  0  0  0  0  0  0  0  0
   -0.2130  -13.9430  -36.2330 C   0  0  0  0  0  3  0  0  0  0  0  0
    0.4670  -12.7820  -36.5910 C   0  0  0  0  0  0  0  0  0  0  0  0
   -0.2270  -11.0140  -36.7480 Br  0  0  0  0  0  0  0  0  0  0  0  0
    1.7730  -13.1600  -36.8180 C   0  0  0  0  0  0  0  0  0  0  0  0
    1.8540  -14.4870  -36.6020 N   0  0  0  0  0  0  0  0  0  0  0  0
    2.8410  -12.2170  -37.2250 C   0  0  0  0  0  1  0  0  0  0  0  0
  1  5  1  0  0  0  0
  1 14  1  0  0  0  0
  2  1  2  0  0  0  0
  3  2  1  0  0  0  0
  3  4  1  0  0  0  0
  4  5  2  0  0  0  0
  6  4  1  0  0  0  0
  6 10  1  0  0  0  0
  7  6  2  0  0  0  0
  8  7  1  0  0  0  0
  8  9  1  0  0  0  0
  9 10  2  0  0  0  0
 11  8  1  0  0  0  0
 12 13  2  0  0  0  0
 12  7  1  0  0  0  0
 13  3  1  0  0  0  0
 15 16  1  0  0  0  0
 15 14  1  0  0  0  0
 17 16  2  0  0  0  0
 18 17  1  0  0  0  0
 19 20  2  0  0  0  0
 19 17  1  0  0  0  0
 20 15  1  0  0  0  0
 21 19  1  0  0  0  0
M  END
>  <Pose>
1

>  <Score>
-5.818

$$$$
