MODEL 1
REMARK VINA RESULT:    -5.818      0.000      0.000
REMARK INTER + INTRA:          -6.655
REMARK INTER:                  -6.498
REMARK INTRA:                  -0.158
REMARK UNBOUND:                -0.158
REMARK  2 active torsions:
REMARK  status: ('A' for Active; 'I' for Inactive)
REMARK    1  A    between atoms: N_4  and  C_8 
REMARK    2  A    between atoms: C_8  and  C_9 
ROOT
ATOM      1  C   UNK d   1       1.131 -17.288 -36.827  0.00  0.00     0.168 A 
ATOM      2  N   UNK d   1       0.681 -17.992 -37.879  0.00  0.00    -0.148 NA
ATOM      3  N   UNK d   1       1.674 -18.715 -38.423  0.00  0.00    -0.206 N 
ATOM      4  C   UNK d   1       2.781 -18.467 -37.702  0.00  0.00     0.169 A 
ATOM      5  N   UNK d   1       2.442 -17.598 -36.732  0.00  0.00    -0.209 NA
ATOM      6  C   UNK d   1       3.948 -19.107 -38.076  0.00  0.00     0.079 A 
ATOM      7  C   UNK d   1       4.000 -19.975 -39.150  0.00  0.00     0.162 A 
ATOM      8  N   UNK d   1       5.251 -20.460 -39.299  0.00  0.00    -0.256 N 
ATOM      9  N   UNK d   1       5.969 -19.908 -38.339  0.00  0.00    -0.182 NA
ATOM     10  C   UNK d   1       5.229 -19.084 -37.575  0.00  0.00     0.158 A 
ATOM     11  C   UNK d   1       5.690 -21.404 -40.325  0.00  0.00     0.182 C 
ATOM     12  N   UNK d   1       2.855 -20.176 -39.825  0.00  0.00    -0.222 NA
ATOM     13  C   UNK d   1       1.715 -19.560 -39.471  0.00  0.00     0.239 A 
ENDROOT
BRANCH   1  14
ATOM     14  C   UNK d   1       0.378 -16.361 -35.938  0.00  0.00     0.232 C 
BRANCH  14  15
ATOM     15  N   UNK d   1       0.662 -14.969 -36.249  0.00  0.00    -0.272 N 
ATOM     16  C   UNK d   1      -0.213 -13.943 -36.233  0.00  0.00     0.134 A 
ATOM     17  C   UNK d   1       0.467 -12.782 -36.591  0.00  0.00     0.054 A 
ATOM     18 Br   UNK d   1      -0.227 -11.014 -36.748  0.00  0.00    -0.047 Br
ATOM     19  C   UNK d   1       1.773 -13.160 -36.818  0.00  0.00     0.069 A 
ATOM     20  N   UNK d   1       1.854 -14.487 -36.602  0.00  0.00    -0.176 NA
ATOM     21  C   UNK d   1       2.841 -12.217 -37.225  0.00  0.00     0.074 C 
ENDBRANCH  14  15
ENDBRANCH   1  14
TORSDOF 2
ENDMDL
