MODEL 1
REMARK VINA RESULT:    -5.721      0.000      0.000
REMARK INTER + INTRA:          -7.852
REMARK INTER:                  -6.892
REMARK INTRA:                  -0.960
REMARK UNBOUND:                -0.960
REMARK  4 active torsions:
REMARK  status: ('A' for Active; 'I' for Inactive)
REMARK    1  A    between atoms: C_10  and  O_27 
REMARK    2  A    between atoms: C_11  and  N_14 
REMARK    3  A    between atoms: C_11  and  C_20 
REMARK    4  A    between atoms: C_20  and  N_21 
ROOT
ATOM      1 Br   UNK d   1       3.685 -20.289 -42.832  0.00  0.00    -0.048 Br
ATOM      2  C   UNK d   1       4.019 -20.369 -40.967  0.00  0.00     0.051 A 
ATOM      3  C   UNK d   1       3.170 -19.697 -40.082  0.00  0.00     0.095 A 
ATOM      4  C   UNK d   1       3.374 -19.743 -38.725  0.00  0.00     0.008 A 
ATOM      5  C   UNK d   1       4.446 -20.473 -38.267  0.00  0.00     0.020 A 
ATOM      6  C   UNK d   1       5.308 -21.151 -39.127  0.00  0.00    -0.054 A 
ATOM      7  C   UNK d   1       5.085 -21.098 -40.506  0.00  0.00    -0.036 A 
ATOM      8  C   UNK d   1       5.996 -21.824 -41.434  0.00  0.00     0.050 C 
ATOM      9  C   UNK d   1       6.466 -21.909 -38.584  0.00  0.00     0.049 C 
ATOM     10  C   UNK d   1       2.500 -19.091 -37.708  0.00  0.00     0.197 C 
ATOM     11  C   UNK d   1       1.467 -18.167 -38.276  0.00  0.00     0.236 C 
ATOM     12  C   UNK d   1       1.897 -17.753 -39.672  0.00  0.00     0.222 C 
ATOM     13  O   UNK d   1       2.080 -18.940 -40.488  0.00  0.00    -0.346 OA
ENDROOT
BRANCH  11  14
ATOM     14  N   UNK d   1       1.478 -16.984 -37.443  0.00  0.00     0.109 N 
ATOM     15  C   UNK d   1       0.378 -16.910 -36.539  0.00  0.00     0.299 C 
ATOM     16  C   UNK d   1       0.118 -15.555 -35.945  0.00  0.00     0.198 C 
ATOM     17  O   UNK d   1       0.327 -14.497 -36.788  0.00  0.00    -0.388 OA
ATOM     18  C   UNK d   1       1.653 -14.562 -37.238  0.00  0.00     0.198 C 
ATOM     19  C   UNK d   1       1.651 -15.779 -38.199  0.00  0.00     0.299 C 
ENDBRANCH  11  14
BRANCH  11  20
ATOM     20  C   UNK d   1       0.112 -18.737 -38.457  0.00  0.00     0.319 C 
BRANCH  20  21
ATOM     21  N   UNK d   1      -0.208 -20.071 -38.234  0.00  0.00     0.095 N 
ATOM     22  C   UNK d   1      -1.400 -20.153 -37.323  0.00  0.00     0.298 C 
ATOM     23  C   UNK d   1      -2.547 -19.386 -37.868  0.00  0.00     0.198 C 
ATOM     24  O   UNK d   1      -2.615 -19.339 -39.235  0.00  0.00    -0.388 OA
ATOM     25  C   UNK d   1      -2.005 -20.361 -39.901  0.00  0.00     0.198 C 
ATOM     26  C   UNK d   1      -0.718 -20.867 -39.335  0.00  0.00     0.298 C 
ENDBRANCH  20  21
ENDBRANCH  11  20
BRANCH  10  27
ATOM     27  O   UNK d   1       3.360 -18.377 -36.817  0.00  0.00    -0.388 OA
ATOM     28  H   UNK d   1       4.228 -18.277 -37.280  0.00  0.00     0.210 HD
ENDBRANCH  10  27
TORSDOF 4
ENDMDL
