MODEL 1
REMARK VINA RESULT:    -6.825      0.000      0.000
REMARK INTER + INTRA:          -8.187
REMARK INTER:                  -7.623
REMARK INTRA:                  -0.565
REMARK UNBOUND:                -0.565
REMARK  2 active torsions:
REMARK  status: ('A' for Active; 'I' for Inactive)
REMARK    1  A    between atoms: N_5  and  C_8 
REMARK    2  A    between atoms: C_8  and  C_9 
REMARK       I    between atoms: C_9  and  N_11 
ROOT
ATOM      1  C   UNK d   1       2.511 -18.264 -38.050  0.00  0.00     0.171 C 
ATOM      2  O   UNK d   1       3.120 -17.923 -36.919  0.00  0.00    -0.175 OA
ATOM      3  N   UNK d   1       2.621 -19.607 -38.376  0.00  0.00    -0.361 N 
ATOM      4  C   UNK d   1       2.092 -20.280 -39.508  0.00  0.00     0.127 C 
ATOM      5  C   UNK d   1       3.224 -20.654 -40.466  0.00  0.00     0.061 C 
ATOM      6  C   UNK d   1       4.486 -20.948 -39.672  0.00  0.00     0.118 C 
ATOM      7  N   UNK d   1       5.168 -22.006 -40.399  0.00  0.00    -0.324 N 
ATOM      8  C   UNK d   1       6.030 -21.352 -41.353  0.00  0.00     0.323 C 
ATOM      9  O   UNK d   1       6.541 -21.882 -42.370  0.00  0.00    -0.247 OA
ATOM     10  N   UNK d   1       6.189 -19.988 -40.917  0.00  0.00    -0.277 N 
ATOM     11  C   UNK d   1       5.437 -19.818 -39.722  0.00  0.00     0.254 C 
ATOM     12  O   UNK d   1       5.584 -18.882 -38.902  0.00  0.00    -0.270 OA
ATOM     13  C   UNK d   1       4.198 -21.435 -38.288  0.00  0.00     0.061 C 
ATOM     14  C   UNK d   1       3.387 -20.490 -37.462  0.00  0.00     0.127 C 
ATOM     15  H   UNK d   1       5.064 -23.033 -40.269  0.00  0.00     0.165 HD
ATOM     16  H   UNK d   1       6.750 -19.267 -41.392  0.00  0.00     0.173 HD
ENDROOT
BRANCH   1  17
ATOM     17  C   UNK d   1       1.870 -17.127 -38.679  0.00  0.00     0.216 C 
BRANCH  17  18
ATOM     18  N   UNK d   1       0.714 -16.548 -38.090  0.00  0.00    -0.341 N 
ATOM     19  C   UNK d   1       0.737 -15.367 -37.403  0.00  0.00     0.046 A 
ATOM     20  C   UNK d   1      -0.533 -15.070 -36.980  0.00  0.00     0.010 A 
ATOM     21  C   UNK d   1       1.782 -14.495 -37.097  0.00  0.00     0.030 A 
ATOM     22  C   UNK d   1      -1.345 -16.087 -37.415  0.00  0.00     0.045 A 
ATOM     23  C   UNK d   1      -0.764 -13.910 -36.255  0.00  0.00     0.015 A 
ATOM     24 Br   UNK d   1      -3.225 -16.138 -37.077  0.00  0.00    -0.048 Br
ATOM     25  C   UNK d   1      -0.568 -16.984 -38.094  0.00  0.00     0.027 A 
ATOM     26  C   UNK d   1      -1.039 -18.233 -38.735  0.00  0.00     0.070 C 
ATOM     27  C   UNK d   1       0.273 -13.056 -35.957  0.00  0.00     0.001 A 
ATOM     28  C   UNK d   1       1.546 -13.335 -36.371  0.00  0.00     0.002 A 
ENDBRANCH  17  18
ENDBRANCH   1  17
TORSDOF 2
ENDMDL
