MODEL 1
REMARK VINA RESULT:    -6.280      0.000      0.000
REMARK INTER + INTRA:          -9.055
REMARK INTER:                  -8.116
REMARK INTRA:                  -0.939
REMARK UNBOUND:                -0.939
REMARK  5 active torsions:
REMARK  status: ('A' for Active; 'I' for Inactive)
REMARK    1  A    between atoms: N_3  and  C_14 
REMARK    2  A    between atoms: C_14  and  C_15 
REMARK    3  A    between atoms: C_15  and  C_16 
REMARK    4  A    between atoms: C_16  and  C_17 
REMARK    5  A    between atoms: C_17  and  N_18 
ROOT
ATOM      1  C   UNK d   1       1.082 -16.313 -37.774  0.00  0.00     0.022 C 
ENDROOT
BRANCH   1   2
ATOM      2  C   UNK d   1       0.532 -14.985 -38.278  0.00  0.00     0.132 C 
BRANCH   2   3
ATOM      3  N   UNK d   1       1.525 -14.252 -39.026  0.00  0.00    -0.318 N 
ATOM      4  C   UNK d   1       1.882 -14.387 -40.326  0.00  0.00     0.180 A 
ATOM      5 Br   UNK d   1       1.083 -15.663 -41.501  0.00  0.00    -0.008 Br
ATOM      6  N   UNK d   1       2.853 -13.511 -40.641  0.00  0.00    -0.203 NA
ATOM      7  C   UNK d   1       3.149 -12.782 -39.539  0.00  0.00     0.169 A 
ATOM      8  C   UNK d   1       2.313 -13.261 -38.552  0.00  0.00     0.152 A 
ATOM      9  N   UNK d   1       4.037 -11.785 -39.322  0.00  0.00    -0.286 N 
ATOM     10  C   UNK d   1       2.398 -12.686 -37.295  0.00  0.00     0.280 A 
ATOM     11  N   UNK d   1       3.282 -11.699 -37.088  0.00  0.00    -0.273 N 
ATOM     12  O   UNK d   1       1.633 -13.131 -36.411  0.00  0.00    -0.265 OA
ATOM     13  C   UNK d   1       4.092 -11.253 -38.088  0.00  0.00     0.330 A 
ATOM     14  H   UNK d   1       3.353 -11.259 -36.141  0.00  0.00     0.173 HD
ATOM     15  O   UNK d   1       4.893 -10.322 -37.810  0.00  0.00    -0.246 OA
ATOM     16  C   UNK d   1       4.910 -11.294 -40.372  0.00  0.00     0.163 C 
ENDBRANCH   2   3
ENDBRANCH   1   2
BRANCH   1  17
ATOM     17  C   UNK d   1       0.362 -17.473 -38.409  0.00  0.00     0.022 C 
BRANCH  17  18
ATOM     18  C   UNK d   1       0.645 -18.806 -37.785  0.00  0.00     0.132 C 
BRANCH  18  19
ATOM     19  N   UNK d   1       1.695 -19.472 -38.482  0.00  0.00    -0.318 N 
ATOM     20  C   UNK d   1       2.999 -19.549 -38.226  0.00  0.00     0.152 A 
ATOM     21  C   UNK d   1       3.597 -20.354 -39.188  0.00  0.00     0.169 A 
ATOM     22  C   UNK d   1       3.816 -19.017 -37.263  0.00  0.00     0.280 A 
ATOM     23  N   UNK d   1       2.616 -20.736 -40.001  0.00  0.00    -0.203 NA
ATOM     24  N   UNK d   1       4.912 -20.591 -39.162  0.00  0.00    -0.286 N 
ATOM     25  C   UNK d   1       1.458 -20.213 -39.594  0.00  0.00     0.180 A 
ATOM     26 Br   UNK d   1      -0.212 -20.499 -40.468  0.00  0.00    -0.008 Br
ATOM     27  C   UNK d   1       5.693 -20.056 -38.203  0.00  0.00     0.330 A 
ATOM     28  C   UNK d   1       5.565 -21.433 -40.159  0.00  0.00     0.163 C 
ATOM     29  O   UNK d   1       6.928 -20.284 -38.185  0.00  0.00    -0.246 OA
ATOM     30  N   UNK d   1       5.131 -19.279 -37.272  0.00  0.00    -0.273 N 
ATOM     31  H   UNK d   1       5.709 -18.839 -36.501  0.00  0.00     0.173 HD
ATOM     32  O   UNK d   1       3.309 -18.287 -36.387  0.00  0.00    -0.265 OA
ENDBRANCH  18  19
ENDBRANCH  17  18
ENDBRANCH   1  17
TORSDOF 5
ENDMDL
