MODEL 1
REMARK VINA RESULT:    -6.115      0.000      0.000
REMARK INTER + INTRA:          -9.280
REMARK INTER:                  -8.259
REMARK INTRA:                  -1.021
REMARK UNBOUND:                -1.021
REMARK  6 active torsions:
REMARK  status: ('A' for Active; 'I' for Inactive)
REMARK    1  A    between atoms: N_3  and  C_14 
REMARK    2  A    between atoms: C_14  and  C_15 
REMARK    3  A    between atoms: C_15  and  O_16 
REMARK    4  A    between atoms: O_16  and  C_17 
REMARK    5  A    between atoms: C_17  and  C_18 
REMARK    6  A    between atoms: C_18  and  N_19 
ROOT
ATOM      1  O   UNK d   1       0.702 -16.591 -38.099  0.00  0.00    -0.388 OA
ENDROOT
BRANCH   1   2
ATOM      2  C   UNK d   1       1.459 -15.970 -39.036  0.00  0.00     0.188 C 
BRANCH   2   3
ATOM      3  C   UNK d   1       1.198 -14.588 -39.473  0.00  0.00     0.158 C 
BRANCH   3   4
ATOM      4  N   UNK d   1       1.678 -13.518 -38.666  0.00  0.00    -0.316 N 
ATOM      5  C   UNK d   1       1.283 -13.068 -37.477  0.00  0.00     0.180 A 
ATOM      6 Br   UNK d   1      -0.199 -13.682 -36.436  0.00  0.00    -0.008 Br
ATOM      7  N   UNK d   1       2.052 -12.035 -37.058  0.00  0.00    -0.203 NA
ATOM      8  C   UNK d   1       2.950 -11.831 -38.012  0.00  0.00     0.169 A 
ATOM      9  C   UNK d   1       2.737 -12.742 -39.025  0.00  0.00     0.152 A 
ATOM     10  N   UNK d   1       3.963 -10.930 -38.137  0.00  0.00    -0.286 N 
ATOM     11  C   UNK d   1       3.521 -12.764 -40.161  0.00  0.00     0.280 A 
ATOM     12  N   UNK d   1       4.518 -11.836 -40.227  0.00  0.00    -0.273 N 
ATOM     13  O   UNK d   1       3.341 -13.583 -41.097  0.00  0.00    -0.265 OA
ATOM     14  C   UNK d   1       4.717 -10.954 -39.235  0.00  0.00     0.330 A 
ATOM     15  H   UNK d   1       5.116 -11.843 -41.081  0.00  0.00     0.173 HD
ATOM     16  O   UNK d   1       5.650 -10.104 -39.322  0.00  0.00    -0.246 OA
ATOM     17  C   UNK d   1       4.220  -9.957 -37.095  0.00  0.00     0.163 C 
ENDBRANCH   3   4
ENDBRANCH   2   3
ENDBRANCH   1   2
BRANCH   1  18
ATOM     18  C   UNK d   1       0.042 -17.689 -38.626  0.00  0.00     0.188 C 
BRANCH  18  19
ATOM     19  C   UNK d   1       0.506 -18.927 -37.919  0.00  0.00     0.158 C 
BRANCH  19  20
ATOM     20  N   UNK d   1       1.608 -19.546 -38.585  0.00  0.00    -0.316 N 
ATOM     21  C   UNK d   1       2.896 -19.444 -38.232  0.00  0.00     0.152 A 
ATOM     22  C   UNK d   1       3.629 -20.170 -39.118  0.00  0.00     0.169 A 
ATOM     23  C   UNK d   1       3.528 -18.778 -37.200  0.00  0.00     0.280 A 
ATOM     24  N   UNK d   1       2.771 -20.696 -39.988  0.00  0.00    -0.203 NA
ATOM     25  N   UNK d   1       4.965 -20.239 -38.990  0.00  0.00    -0.286 N 
ATOM     26  C   UNK d   1       1.512 -20.333 -39.691  0.00  0.00     0.180 A 
ATOM     27 Br   UNK d   1      -0.112 -20.776 -40.571  0.00  0.00    -0.008 Br
ATOM     28  C   UNK d   1       5.554 -19.590 -37.988  0.00  0.00     0.330 A 
ATOM     29  C   UNK d   1       5.762 -21.007 -39.924  0.00  0.00     0.163 C 
ATOM     30  O   UNK d   1       6.807 -19.664 -37.880  0.00  0.00    -0.246 OA
ATOM     31  N   UNK d   1       4.857 -18.877 -37.113  0.00  0.00    -0.273 N 
ATOM     32  H   UNK d   1       5.337 -18.375 -36.335  0.00  0.00     0.173 HD
ATOM     33  O   UNK d   1       2.897 -18.084 -36.340  0.00  0.00    -0.265 OA
ENDBRANCH  19  20
ENDBRANCH  18  19
ENDBRANCH   1  18
TORSDOF 6
ENDMDL
