/Users/jonathanwahrer/Desktop/Msc/3_Semester/Drug_Design_Praktikum/waehrer_HTS_screening/HTS_experiment/out/docking_results/vina_output/6y4q/1444_docked.pdbqt
 OpenBabel03232218253D

 33 36  0  0  0  0  0  0  0  0999 V2000
    1.1480  -15.4200  -36.0620 N   0  0  0  0  0  0  0  0  0  0  0  0
    1.6060  -16.4950  -36.7550 C   0  0  0  0  0  0  0  0  0  0  0  0
    2.3680  -17.2510  -35.8950 O   0  0  0  0  0  0  0  0  0  0  0  0
    1.4880  -15.4360  -34.9900 H   0  0  0  0  0  0  0  0  0  0  0  0
    1.5720  -17.1210  -38.0670 C   0  0  0  0  0  2  0  0  0  0  0  0
    1.0840  -18.3980  -38.3650 N   0  0  0  0  0  0  0  0  0  0  0  0
   -0.1920  -18.9250  -37.8130 C   0  0  0  0  0  2  0  0  0  0  0  0
   -0.1420  -20.4120  -38.0920 C   0  0  0  0  0  2  0  0  0  0  0  0
   -0.1480  -20.6240  -39.5830 C   0  0  0  0  0  2  0  0  0  0  0  0
    1.1610  -20.1340  -40.1640 C   0  0  0  0  0  2  0  0  0  0  0  0
    1.8770  -19.2890  -39.1640 C   0  0  0  0  0  0  0  0  0  0  0  0
    3.1880  -19.4450  -38.9670 C   0  0  0  0  0  0  0  0  0  0  0  0
    3.9660  -20.3330  -39.7860 N   0  0  0  0  0  0  0  0  0  0  0  0
    4.0640  -18.9390  -38.0120 N   0  0  0  0  0  0  0  0  0  0  0  0
    5.2940  -20.3530  -39.3200 N   0  0  0  0  0  0  0  0  0  0  0  0
    3.7100  -20.9130  -40.6090 H   0  0  0  0  0  0  0  0  0  0  0  0
    5.3790  -19.4870  -38.2110 C   0  0  0  0  0  0  0  0  0  0  0  0
    6.1030  -20.9000  -39.7040 H   0  0  0  0  0  0  0  0  0  0  0  0
    6.3670  -19.2040  -37.4960 O   0  0  0  0  0  0  0  0  0  0  0  0
    3.8210  -18.2860  -37.2490 H   0  0  0  0  0  0  0  0  0  0  0  0
    0.4490  -14.2450  -36.3110 C   0  0  0  0  0  0  0  0  0  0  0  0
    0.9820  -13.0220  -36.6070 N   0  0  0  0  0  0  0  0  0  0  0  0
   -0.0120  -12.1740  -36.8360 N   0  0  0  0  0  0  0  0  0  0  0  0
   -1.1880  -12.7640  -36.7090 C   0  0  0  0  0  3  0  0  0  0  0  0
   -0.9190  -14.0980  -36.3720 C   0  0  0  0  0  3  0  0  0  0  0  0
    2.3730  -12.7310  -36.6510 C   0  0  0  0  0  2  0  0  0  0  0  0
    2.9170  -12.5590  -38.0110 C   0  0  0  0  0  0  0  0  0  0  0  0
    3.7760  -11.5610  -38.3650 C   0  0  0  0  0  0  0  0  0  0  0  0
    4.2910  -10.3930  -37.1700 Cl  0  0  0  0  0  0  0  0  0  0  0  0
    4.2520  -11.4500  -39.6510 C   0  0  0  0  0  3  0  0  0  0  0  0
    3.8750  -12.3450  -40.6260 C   0  0  0  0  0  3  0  0  0  0  0  0
    3.0060  -13.3580  -40.2790 C   0  0  0  0  0  3  0  0  0  0  0  0
    2.5440  -13.4510  -38.9910 C   0  0  0  0  0  3  0  0  0  0  0  0
  1  4  1  0  0  0  0
  2  1  1  0  0  0  0
  2  3  2  0  0  0  0
  5  2  1  0  0  0  0
  6  5  1  0  0  0  0
  6  7  1  0  0  0  0
  8  7  1  0  0  0  0
  9  8  1  0  0  0  0
 10  9  1  0  0  0  0
 10 11  1  0  0  0  0
 11 12  2  0  0  0  0
 11  6  1  0  0  0  0
 12 14  1  0  0  0  0
 13 15  1  0  0  0  0
 13 12  1  0  0  0  0
 14 20  1  0  0  0  0
 15 17  1  0  0  0  0
 16 13  1  0  0  0  0
 17 14  1  0  0  0  0
 17 19  2  0  0  0  0
 18 15  1  0  0  0  0
 21  1  1  0  0  0  0
 22 21  1  0  0  0  0
 23 24  2  0  0  0  0
 23 22  1  0  0  0  0
 24 25  1  0  0  0  0
 25 21  2  0  0  0  0
 26 22  1  0  0  0  0
 27 26  1  0  0  0  0
 28 27  1  0  0  0  0
 28 29  1  0  0  0  0
 30 28  2  0  0  0  0
 31 32  2  0  0  0  0
 31 30  1  0  0  0  0
 32 33  1  0  0  0  0
 33 27  2  0  0  0  0
M  END
>  <Pose>
1

>  <Score>
-7.433

$$$$
