MODEL 1
REMARK VINA RESULT:    -6.618      0.000      0.000
REMARK INTER + INTRA:         -10.872
REMARK INTER:                  -9.519
REMARK INTRA:                  -1.352
REMARK UNBOUND:                -1.352
REMARK  9 active torsions:
REMARK  status: ('A' for Active; 'I' for Inactive)
REMARK    1  A    between atoms: C_3  and  O_33 
REMARK    2  A    between atoms: C_6  and  C_9 
REMARK    3  A    between atoms: C_7  and  O_8 
REMARK    4  A    between atoms: N_10  and  N_11 
REMARK       I    between atoms: N_11  and  C_12 
REMARK    5  A    between atoms: C_12  and  C_14 
REMARK    6  A    between atoms: N_17  and  C_26 
REMARK    7  A    between atoms: C_18  and  C_19 
REMARK    8  A    between atoms: C_19  and  N_20 
REMARK    9  A    between atoms: C_30  and  N_31 
ROOT
ATOM      1  C   UNK d   1       2.378 -17.480 -36.254  0.00  0.00     0.176 A 
ATOM      2  N   UNK d   1       3.126 -18.012 -35.233  0.00  0.00    -0.124 NA
ATOM      3  N   UNK d   1       3.897 -18.952 -35.706  0.00  0.00    -0.058 NA
ATOM      4  N   UNK d   1       3.729 -19.105 -37.008  0.00  0.00    -0.191 N 
ATOM      5  C   UNK d   1       2.796 -18.209 -37.372  0.00  0.00     0.104 A 
ENDROOT
BRANCH   1   6
ATOM      6  C   UNK d   1       1.404 -16.415 -36.109  0.00  0.00     0.294 C 
ATOM      7  N   UNK d   1       1.517 -15.074 -36.451  0.00  0.00    -0.242 N 
ATOM      8  H   UNK d   1       2.345 -14.595 -36.877  0.00  0.00     0.192 HD
ATOM      9  O   UNK d   1       0.284 -16.784 -35.589  0.00  0.00    -0.264 OA
BRANCH   7  10
ATOM     10  N   UNK d   1       0.380 -14.234 -36.195  0.00  0.00    -0.183 NA
ATOM     11  C   UNK d   1       0.524 -12.958 -36.227  0.00  0.00     0.153 C 
BRANCH  11  12
ATOM     12  C   UNK d   1      -0.560 -12.019 -35.984  0.00  0.00     0.019 A 
ATOM     13  C   UNK d   1      -1.350 -12.120 -34.870  0.00  0.00     0.038 A 
ATOM     14  C   UNK d   1      -2.392 -11.232 -34.620  0.00  0.00     0.046 A 
ATOM     15  C   UNK d   1      -2.650 -10.202 -35.521  0.00  0.00     0.103 A 
ATOM     16 Br   UNK d   1      -3.461 -11.411 -33.065  0.00  0.00    -0.048 Br
ATOM     17  C   UNK d   1      -1.867 -10.094 -36.634  0.00  0.00     0.079 A 
ATOM     18 Br   UNK d   1      -2.184  -8.707 -37.884  0.00  0.00    -0.045 Br
ATOM     19  C   UNK d   1      -0.827 -10.996 -36.866  0.00  0.00     0.097 A 
BRANCH  15  20
ATOM     20  O   UNK d   1      -3.693  -9.328 -35.253  0.00  0.00    -0.358 OA
ATOM     21  H   UNK d   1      -3.680  -8.382 -35.599  0.00  0.00     0.217 HD
ENDBRANCH  15  20
BRANCH  19  22
ATOM     22  O   UNK d   1      -0.021 -10.902 -37.991  0.00  0.00    -0.358 OA
ATOM     23  H   UNK d   1       0.514 -10.061 -38.165  0.00  0.00     0.217 HD
ENDBRANCH  19  22
ENDBRANCH  11  12
ENDBRANCH   7  10
ENDBRANCH   1   6
BRANCH   5  24
ATOM     24  C   UNK d   1       2.289 -17.966 -38.726  0.00  0.00     0.334 C 
BRANCH  24  25
ATOM     25  N   UNK d   1       1.472 -19.055 -39.269  0.00  0.00     0.098 N 
ATOM     26  C   UNK d   1       0.605 -18.505 -40.330  0.00  0.00     0.299 C 
ATOM     27  C   UNK d   1      -0.042 -17.252 -39.853  0.00  0.00     0.198 C 
ATOM     28  O   UNK d   1      -0.692 -17.490 -38.667  0.00  0.00    -0.388 OA
ATOM     29  C   UNK d   1      -0.770 -18.813 -38.320  0.00  0.00     0.198 C 
ATOM     30  C   UNK d   1       0.556 -19.517 -38.200  0.00  0.00     0.299 C 
ENDBRANCH  24  25
ENDBRANCH   5  24
BRANCH   4  31
ATOM     31  C   UNK d   1       4.455 -20.030 -37.798  0.00  0.00     0.229 A 
ATOM     32  N   UNK d   1       4.043 -21.185 -38.363  0.00  0.00    -0.081 NA
ATOM     33  O   UNK d   1       5.029 -21.732 -39.022  0.00  0.00    -0.103 OA
ATOM     34  N   UNK d   1       6.105 -20.993 -38.929  0.00  0.00    -0.083 NA
ATOM     35  C   UNK d   1       5.785 -19.927 -38.177  0.00  0.00     0.201 A 
BRANCH  35  36
ATOM     36  N   UNK d   1       6.684 -18.890 -37.846  0.00  0.00    -0.379 N 
ATOM     37  H   UNK d   1       6.807 -18.634 -36.849  0.00  0.00     0.158 HD
ATOM     38  H   UNK d   1       7.228 -18.373 -38.560  0.00  0.00     0.158 HD
ENDBRANCH  35  36
ENDBRANCH   4  31
TORSDOF 9
ENDMDL
