MODEL 1
REMARK VINA RESULT:    -6.837      0.000      0.000
REMARK INTER + INTRA:         -10.084
REMARK INTER:                  -9.236
REMARK INTRA:                  -0.848
REMARK UNBOUND:                -0.848
REMARK  6 active torsions:
REMARK  status: ('A' for Active; 'I' for Inactive)
REMARK    1  A    between atoms: C_6  and  C_8 
REMARK       I    between atoms: C_8  and  N_10 
REMARK    2  A    between atoms: N_10  and  C_11 
REMARK    3  A    between atoms: C_11  and  C_12 
REMARK    4  A    between atoms: C_12  and  N_13 
REMARK    5  A    between atoms: C_16  and  C_18 
REMARK    6  A    between atoms: C_20  and  C_23 
ROOT
ATOM      1  N   UNK d   1       1.361 -17.330 -37.014  0.00  0.00    -0.281 N 
ATOM      2  N   UNK d   1       2.337 -17.315 -36.122  0.00  0.00     0.005 NA
ATOM      3  N   UNK d   1       3.229 -18.258 -36.394  0.00  0.00    -0.154 NA
ATOM      4  C   UNK d   1       2.847 -18.925 -37.494  0.00  0.00     0.146 A 
ATOM      5  C   UNK d   1       1.667 -18.333 -37.879  0.00  0.00     0.145 A 
ENDROOT
BRANCH   1   6
ATOM      6  C   UNK d   1       0.181 -16.460 -37.082  0.00  0.00     0.165 C 
BRANCH   6   7
ATOM      7  C   UNK d   1       0.589 -15.150 -36.446  0.00  0.00     0.144 C 
BRANCH   7   8
ATOM      8  N   UNK d   1       1.654 -14.517 -37.208  0.00  0.00    -0.355 N 
ATOM      9  C   UNK d   1       1.841 -13.117 -37.059  0.00  0.00     0.253 C 
ATOM     10  O   UNK d   1       1.082 -12.459 -36.273  0.00  0.00    -0.268 OA
ATOM     11  H   UNK d   1       2.265 -15.067 -37.844  0.00  0.00     0.162 HD
BRANCH   9  12
ATOM     12  C   UNK d   1       2.875 -12.382 -37.772  0.00  0.00     0.050 A 
ATOM     13  C   UNK d   1       3.637 -11.462 -37.110  0.00  0.00     0.133 A 
ATOM     14  N   UNK d   1       4.616 -10.733 -37.678  0.00  0.00    -0.271 NA
ATOM     15  C   UNK d   1       4.873 -10.912 -38.995  0.00  0.00     0.135 A 
ATOM     16  C   UNK d   1       4.140 -11.823 -39.722  0.00  0.00     0.029 A 
ATOM     17 Br   UNK d   1       4.537 -12.044 -41.577  0.00  0.00    -0.050 Br
ATOM     18  C   UNK d   1       3.130 -12.571 -39.116  0.00  0.00     0.039 A 
ENDBRANCH   9  12
ENDBRANCH   7   8
ENDBRANCH   6   7
ENDBRANCH   1   6
BRANCH   4  19
ATOM     19  C   UNK d   1       3.527 -20.032 -38.142  0.00  0.00     0.228 A 
ATOM     20  N   UNK d   1       3.739 -20.196 -39.460  0.00  0.00    -0.198 NA
ATOM     21  C   UNK d   1       4.403 -21.346 -39.664  0.00  0.00     0.191 A 
ATOM     22  N   UNK d   1       4.591 -21.878 -38.446  0.00  0.00    -0.105 NA
ATOM     23  O   UNK d   1       4.063 -21.078 -37.571  0.00  0.00    -0.189 OA
BRANCH  21  24
ATOM     24  C   UNK d   1       4.836 -21.910 -40.960  0.00  0.00     0.032 A 
ATOM     25  C   UNK d   1       3.984 -22.722 -41.672  0.00  0.00     0.131 A 
ATOM     26  N   UNK d   1       4.368 -23.241 -42.854  0.00  0.00    -0.272 NA
ATOM     27  C   UNK d   1       5.578 -23.005 -43.402  0.00  0.00     0.116 A 
ATOM     28  C   UNK d   1       6.425 -22.187 -42.680  0.00  0.00     0.020 A 
ATOM     29  C   UNK d   1       6.075 -21.639 -41.474  0.00  0.00     0.018 A 
ENDBRANCH  21  24
ENDBRANCH   4  19
TORSDOF 6
ENDMDL
