MODEL 1
REMARK VINA RESULT:    -6.202      0.000      0.000
REMARK INTER + INTRA:          -9.405
REMARK INTER:                  -8.377
REMARK INTRA:                  -1.027
REMARK UNBOUND:                -1.027
REMARK  6 active torsions:
REMARK  status: ('A' for Active; 'I' for Inactive)
REMARK    1  A    between atoms: C_3  and  N_8 
REMARK       I    between atoms: N_11  and  C_14 
REMARK    2  A    between atoms: C_14  and  C_16 
REMARK    3  A    between atoms: N_18  and  C_26 
REMARK    4  A    between atoms: C_26  and  C_27 
REMARK    5  A    between atoms: C_27  and  C_28 
REMARK    6  A    between atoms: C_28  and  O_29 
ROOT
ATOM      1  C   UNK d   1       2.791 -20.176 -39.305  0.00  0.00     0.079 A 
ATOM      2  C   UNK d   1       3.021 -21.088 -40.298  0.00  0.00     0.110 A 
ATOM      3  N   UNK d   1       4.247 -21.626 -40.581  0.00  0.00    -0.364 N 
ATOM      4  C   UNK d   1       5.273 -21.229 -39.835  0.00  0.00     0.110 A 
ATOM      5  C   UNK d   1       5.142 -20.321 -38.817  0.00  0.00     0.080 A 
ATOM      6  C   UNK d   1       3.835 -19.761 -38.531  0.00  0.00     0.111 A 
ATOM      7  N   UNK d   1       4.010 -18.915 -37.499  0.00  0.00    -0.170 NA
ATOM      8  N   UNK d   1       5.281 -18.905 -37.133  0.00  0.00    -0.242 N 
ATOM      9  C   UNK d   1       5.998 -19.737 -37.900  0.00  0.00     0.275 A 
ATOM     10  O   UNK d   1       7.239 -20.001 -37.860  0.00  0.00    -0.266 OA
ATOM     11  H   UNK d   1       5.728 -18.344 -36.356  0.00  0.00     0.192 HD
ENDROOT
BRANCH   1  12
ATOM     12  C   UNK d   1       1.454 -19.655 -39.071  0.00  0.00     0.257 C 
ATOM     13  N   UNK d   1       0.935 -18.561 -39.798  0.00  0.00    -0.345 N 
ATOM     14  C   UNK d   1      -0.382 -18.022 -39.591  0.00  0.00     0.146 C 
ATOM     15  C   UNK d   1       1.759 -17.942 -40.805  0.00  0.00     0.146 C 
ATOM     16  C   UNK d   1      -0.280 -16.517 -39.591  0.00  0.00     0.143 C 
ATOM     17  N   UNK d   1       1.068 -16.038 -39.438  0.00  0.00    -0.376 N 
ATOM     18  C   UNK d   1       2.181 -16.583 -40.230  0.00  0.00     0.143 C 
ATOM     19  O   UNK d   1       0.770 -20.233 -38.176  0.00  0.00    -0.267 OA
BRANCH  17  20
ATOM     20  C   UNK d   1       1.387 -15.021 -38.519  0.00  0.00     0.052 A 
ATOM     21  C   UNK d   1       1.410 -15.247 -37.160  0.00  0.00     0.060 A 
ATOM     22 Cl   UNK d   1       1.028 -16.857 -36.542  0.00  0.00    -0.082 Cl
ATOM     23  C   UNK d   1       1.722 -14.241 -36.270  0.00  0.00     0.026 A 
ATOM     24  C   UNK d   1       2.019 -12.988 -36.745  0.00  0.00     0.002 A 
ATOM     25  C   UNK d   1       2.008 -12.718 -38.118  0.00  0.00     0.002 A 
ATOM     26  C   UNK d   1       1.686 -13.764 -38.970  0.00  0.00     0.031 A 
ENDBRANCH  17  20
ENDBRANCH   1  12
BRANCH   3  27
ATOM     27  C   UNK d   1       4.385 -22.561 -41.686  0.00  0.00     0.130 C 
BRANCH  27  28
ATOM     28  C   UNK d   1       3.205 -23.368 -41.999  0.00  0.00     0.046 C 
BRANCH  28  29
ATOM     29  C   UNK d   1       3.240 -24.630 -42.741  0.00  0.00     0.168 C 
BRANCH  29  30
ATOM     30  O   UNK d   1       4.336 -25.405 -42.783  0.00  0.00    -0.396 OA
ATOM     31  C   UNK d   1       5.046 -25.628 -43.891  0.00  0.00     0.201 C 
ENDBRANCH  29  30
ENDBRANCH  28  29
ENDBRANCH  27  28
ENDBRANCH   3  27
TORSDOF 6
ENDMDL
