/Users/jonathanwahrer/Desktop/Msc/3_Semester/Drug_Design_Praktikum/waehrer_HTS_screening/HTS_experiment/out/docking_results/vina_output/6y4q/1471_docked.pdbqt
 OpenBabel03232218263D

 31 34  0  0  0  0  0  0  0  0999 V2000
    2.7910  -20.1760  -39.3050 C   0  0  0  0  0  0  0  0  0  0  0  0
    3.0210  -21.0880  -40.2980 C   0  0  0  0  0  2  0  0  0  0  0  0
    4.2470  -21.6260  -40.5810 N   0  0  0  0  0  0  0  0  0  0  0  0
    5.2730  -21.2290  -39.8350 C   0  0  0  0  0  3  0  0  0  0  0  0
    5.1420  -20.3210  -38.8170 C   0  0  0  0  0  0  0  0  0  0  0  0
    3.8350  -19.7610  -38.5310 C   0  0  0  0  0  0  0  0  0  0  0  0
    4.0100  -18.9150  -37.4990 N   0  0  0  0  0  2  0  0  0  0  0  0
    5.2810  -18.9050  -37.1330 N   0  0  0  0  0  0  0  0  0  0  0  0
    5.9980  -19.7370  -37.9000 C   0  0  0  0  0  0  0  0  0  0  0  0
    7.2390  -20.0010  -37.8600 O   0  0  0  0  0  0  0  0  0  0  0  0
    5.7280  -18.3440  -36.3560 H   0  0  0  0  0  0  0  0  0  0  0  0
    1.4540  -19.6550  -39.0710 C   0  0  0  0  0  0  0  0  0  0  0  0
    0.9350  -18.5610  -39.7980 N   0  0  0  0  0  0  0  0  0  0  0  0
   -0.3820  -18.0220  -39.5910 C   0  0  0  0  0  2  0  0  0  0  0  0
    1.7590  -17.9420  -40.8050 C   0  0  0  0  0  2  0  0  0  0  0  0
   -0.2800  -16.5170  -39.5910 C   0  0  0  0  0  2  0  0  0  0  0  0
    1.0680  -16.0380  -39.4380 N   0  0  0  0  0  0  0  0  0  0  0  0
    2.1810  -16.5830  -40.2300 C   0  0  0  0  0  2  0  0  0  0  0  0
    0.7700  -20.2330  -38.1760 O   0  0  0  0  0  0  0  0  0  0  0  0
    1.3870  -15.0210  -38.5190 C   0  0  0  0  0  0  0  0  0  0  0  0
    1.4100  -15.2470  -37.1600 C   0  0  0  0  0  0  0  0  0  0  0  0
    1.0280  -16.8570  -36.5420 Cl  0  0  0  0  0  0  0  0  0  0  0  0
    1.7220  -14.2410  -36.2700 C   0  0  0  0  0  3  0  0  0  0  0  0
    2.0190  -12.9880  -36.7450 C   0  0  0  0  0  3  0  0  0  0  0  0
    2.0080  -12.7180  -38.1180 C   0  0  0  0  0  3  0  0  0  0  0  0
    1.6860  -13.7640  -38.9700 C   0  0  0  0  0  3  0  0  0  0  0  0
    4.3850  -22.5610  -41.6860 C   0  0  0  0  0  2  0  0  0  0  0  0
    3.2050  -23.3680  -41.9990 C   0  0  0  0  0  2  0  0  0  0  0  0
    3.2400  -24.6300  -42.7410 C   0  0  0  0  0  2  0  0  0  0  0  0
    4.3360  -25.4050  -42.7830 O   0  0  0  0  0  0  0  0  0  0  0  0
    5.0460  -25.6280  -43.8910 C   0  0  0  0  0  1  0  0  0  0  0  0
  1 12  1  0  0  0  0
  1  6  2  0  0  0  0
  2  1  1  0  0  0  0
  3  2  1  0  0  0  0
  3  4  1  0  0  0  0
  4  5  2  0  0  0  0
  5  6  1  0  0  0  0
  5  9  1  0  0  0  0
  6  7  1  0  0  0  0
  7  8  1  0  0  0  0
  8 11  1  0  0  0  0
  9 10  2  0  0  0  0
  9  8  1  0  0  0  0
 12 19  2  0  0  0  0
 13 14  1  0  0  0  0
 13 12  1  0  0  0  0
 15 18  1  0  0  0  0
 15 13  1  0  0  0  0
 16 14  1  0  0  0  0
 16 17  1  0  0  0  0
 17 20  1  0  0  0  0
 18 17  1  0  0  0  0
 20 21  1  0  0  0  0
 21 22  1  0  0  0  0
 21 23  2  0  0  0  0
 24 23  1  0  0  0  0
 25 24  2  0  0  0  0
 26 20  2  0  0  0  0
 26 25  1  0  0  0  0
 27  3  1  0  0  0  0
 28 27  1  0  0  0  0
 29 28  1  0  0  0  0
 30 29  1  0  0  0  0
 31 30  1  0  0  0  0
M  END
>  <Pose>
1

>  <Score>
-6.202

$$$$
