MODEL 1
REMARK VINA RESULT:    -6.717      0.000      0.000
REMARK INTER + INTRA:         -11.167
REMARK INTER:                  -9.073
REMARK INTRA:                  -2.094
REMARK UNBOUND:                -2.094
REMARK  6 active torsions:
REMARK  status: ('A' for Active; 'I' for Inactive)
REMARK    1  A    between atoms: C_4  and  C_8 
REMARK    2  A    between atoms: N_9  and  C_27 
REMARK    3  A    between atoms: C_14  and  C_15 
REMARK    4  A    between atoms: C_15  and  C_17 
REMARK    5  A    between atoms: C_27  and  C_28 
REMARK    6  A    between atoms: C_28  and  N_29 
ROOT
ATOM      1  C   UNK d   1       1.810 -17.048 -38.613  0.00  0.00     0.161 C 
ATOM      2  N   UNK d   1       2.153 -17.763 -37.464  0.00  0.00    -0.331 N 
ATOM      3  C   UNK d   1       1.789 -16.932 -36.320  0.00  0.00     0.295 C 
ATOM      4  O   UNK d   1       1.801 -17.252 -35.104  0.00  0.00    -0.264 OA
ATOM      5  C   UNK d   1       1.391 -15.612 -36.782  0.00  0.00     0.251 C 
ATOM      6  O   UNK d   1       1.005 -14.638 -36.051  0.00  0.00    -0.282 OA
ATOM      7  C   UNK d   1       1.514 -15.634 -38.215  0.00  0.00     0.064 C 
ENDROOT
BRANCH   7   8
ATOM      8  C   UNK d   1       1.344 -14.600 -39.013  0.00  0.00     0.149 C 
ATOM      9  O   UNK d   1       0.009 -14.364 -39.415  0.00  0.00    -0.189 OA
BRANCH   8  10
ATOM     10  C   UNK d   1       2.382 -13.712 -39.503  0.00  0.00     0.102 A 
ATOM     11  N   UNK d   1       3.066 -12.708 -38.934  0.00  0.00    -0.302 N 
ATOM     12  C   UNK d   1       3.918 -12.115 -39.784  0.00  0.00     0.134 A 
ATOM     13  C   UNK d   1       2.996 -12.267 -37.648  0.00  0.00     0.099 A 
ATOM     14  N   UNK d   1       3.779 -12.768 -40.959  0.00  0.00    -0.233 NA
ATOM     15  C   UNK d   1       4.735 -11.068 -39.403  0.00  0.00     0.051 A 
ATOM     16  C   UNK d   1       2.866 -13.733 -40.830  0.00  0.00     0.063 A 
ATOM     17  C   UNK d   1       2.421 -14.672 -41.869  0.00  0.00     0.073 C 
ATOM     18  C   UNK d   1       4.671 -10.615 -38.112  0.00  0.00     0.005 A 
ATOM     19  C   UNK d   1       3.794 -11.226 -37.236  0.00  0.00     0.018 A 
ENDBRANCH   8  10
ENDBRANCH   7   8
BRANCH   1  20
ATOM     20  C   UNK d   1       0.877 -17.539 -39.608  0.00  0.00    -0.029 A 
ATOM     21  C   UNK d   1      -0.460 -17.783 -39.267  0.00  0.00     0.028 A 
ATOM     22  C   UNK d   1      -1.367 -18.200 -40.216  0.00  0.00     0.011 A 
ATOM     23 Br   UNK d   1      -3.177 -18.525 -39.750  0.00  0.00    -0.051 Br
ATOM     24  C   UNK d   1      -0.989 -18.390 -41.530  0.00  0.00     0.019 A 
ATOM     25  C   UNK d   1       0.323 -18.160 -41.905  0.00  0.00     0.002 A 
ATOM     26  C   UNK d   1       1.188 -17.748 -40.934  0.00  0.00     0.009 A 
ENDBRANCH   1  20
BRANCH   2  27
ATOM     27  C   UNK d   1       2.824 -19.005 -37.340  0.00  0.00     0.155 C 
BRANCH  27  28
ATOM     28  C   UNK d   1       4.271 -19.112 -37.505  0.00  0.00     0.255 C 
BRANCH  28  29
ATOM     29  N   UNK d   1       4.850 -19.319 -38.800  0.00  0.00    -0.066 N 
ATOM     30  C   UNK d   1       6.117 -20.018 -38.587  0.00  0.00     0.261 C 
ATOM     31  C   UNK d   1       5.965 -21.505 -38.578  0.00  0.00     0.195 C 
ATOM     32  O   UNK d   1       4.613 -21.872 -38.497  0.00  0.00    -0.388 OA
ATOM     33  C   UNK d   1       4.046 -21.441 -39.676  0.00  0.00     0.195 C 
ATOM     34  C   UNK d   1       3.977 -19.960 -39.724  0.00  0.00     0.261 C 
ATOM     35  H   UNK d   1       5.164 -18.403 -39.239  0.00  0.00     0.280 HD
ENDBRANCH  28  29
ENDBRANCH  27  28
ENDBRANCH   2  27
TORSDOF 6
ENDMDL
