/Users/jonathanwahrer/Desktop/Msc/3_Semester/Drug_Design_Praktikum/waehrer_HTS_screening/HTS_experiment/out/docking_results/vina_output/6y4q/1487_docked.pdbqt
 OpenBabel03232218273D

 29 32  0  0  1  0  0  0  0  0999 V2000
    1.4340  -17.1430  -36.6550 N   0  0  0  0  0  4  0  0  0  0  0  0
    2.6840  -17.7820  -36.9850 C   0  0  0  0  0  2  0  0  0  0  0  0
    2.4770  -18.9820  -37.8100 C   0  0  2  0  0  0  0  0  0  0  0  0
    1.0490  -19.0640  -37.9300 N   0  0  0  0  0  0  0  0  0  0  0  0
    0.1580  -20.1620  -38.2250 C   0  0  0  0  0  3  0  0  0  0  0  0
   -0.6760  -19.9890  -39.4530 C   0  0  0  0  0  3  0  0  0  0  0  0
   -0.6460  -18.6270  -40.0550 C   0  0  0  0  0  2  0  0  0  0  0  0
   -1.5070  -17.6970  -39.1700 C   0  0  0  0  0  2  0  0  0  0  0  0
   -0.5240  -17.1520  -38.1500 C   0  0  0  0  0  3  0  0  0  0  0  0
    0.5350  -17.7350  -37.6370 C   0  0  0  0  0  0  0  0  0  0  0  0
    1.0320  -17.3390  -35.7450 H   0  0  0  0  0  0  0  0  0  0  0  0
    2.8830  -20.1330  -37.0800 O   0  0  0  0  0  0  0  0  0  0  0  0
    2.0280  -20.5270  -36.7040 H   0  0  0  0  0  0  0  0  0  0  0  0
    3.1880  -19.0580  -39.0630 C   0  0  0  0  0  0  0  0  0  0  0  0
    4.1280  -20.0460  -39.3540 C   0  0  0  0  0  3  0  0  0  0  0  0
    4.7910  -20.1290  -40.5700 C   0  0  0  0  0  0  0  0  0  0  0  0
    4.5050  -19.1800  -41.5520 C   0  0  0  0  0  3  0  0  0  0  0  0
    3.5930  -18.1950  -41.3080 C   0  0  0  0  0  3  0  0  0  0  0  0
    2.9420  -18.1450  -40.0650 C   0  0  0  0  0  3  0  0  0  0  0  0
    5.7330  -21.1590  -40.7950 N   0  0  0  0  0  0  0  0  0  0  0  0
    6.1270  -21.8720  -39.8210 O   0  0  0  0  0  0  0  0  0  0  0  0
    6.2550  -21.4370  -42.0030 O   0  0  0  0  0  0  0  0  0  0  0  0
    1.3780  -15.7460  -36.9050 C   0  0  0  0  0  0  0  0  0  0  0  0
    1.9900  -15.1570  -37.9830 C   0  0  0  0  0  3  0  0  0  0  0  0
    2.0250  -13.7770  -38.1630 C   0  0  0  0  0  0  0  0  0  0  0  0
    2.7930  -13.0780  -39.5800 Cl  0  0  0  0  0  0  0  0  0  0  0  0
    1.4280  -12.9460  -37.2360 C   0  0  0  0  0  3  0  0  0  0  0  0
    0.8100  -13.4930  -36.1430 C   0  0  0  0  0  3  0  0  0  0  0  0
    0.7870  -14.8740  -35.9830 C   0  0  0  0  0  3  0  0  0  0  0  0
  1 11  1  0  0  0  0
  2  1  1  0  0  0  0
  3 12  1  1  0  0  0
  3  2  1  0  0  0  0
  4  3  1  0  0  0  0
  4 10  1  0  0  0  0
  5  4  1  0  0  0  0
  6  5  2  0  0  0  0
  7  6  1  0  0  0  0
  7  8  1  0  0  0  0
  8  9  1  0  0  0  0
  9 10  2  0  0  0  0
 10  1  1  0  0  0  0
 12 13  1  0  0  0  0
 14  3  1  0  0  0  0
 15 14  1  0  0  0  0
 16 15  2  0  0  0  0
 17 18  2  0  0  0  0
 17 16  1  0  0  0  0
 18 19  1  0  0  0  0
 19 14  2  0  0  0  0
 20 16  1  0  0  0  0
 20 21  2  0  0  0  0
 22 20  2  0  0  0  0
 23  1  1  0  0  0  0
 23 29  1  0  0  0  0
 24 23  2  0  0  0  0
 25 24  1  0  0  0  0
 25 27  2  0  0  0  0
 26 25  1  0  0  0  0
 27 28  1  0  0  0  0
 28 29  2  0  0  0  0
M  END
>  <Pose>
1

>  <Score>
-6.375

$$$$
