MODEL 1
REMARK VINA RESULT:    -6.375      0.000      0.000
REMARK INTER + INTRA:          -8.664
REMARK INTER:                  -7.680
REMARK INTRA:                  -0.984
REMARK UNBOUND:                -0.984
REMARK  4 active torsions:
REMARK  status: ('A' for Active; 'I' for Inactive)
REMARK    1  A    between atoms: C_4  and  N_8 
REMARK    2  A    between atoms: C_10  and  O_18 
REMARK    3  A    between atoms: C_10  and  C_19 
REMARK    4  A    between atoms: C_21  and  N_25 
ROOT
ATOM      1  N   UNK d   1       1.434 -17.143 -36.655  0.00  0.00     0.009 N 
ATOM      2  C   UNK d   1       2.684 -17.782 -36.985  0.00  0.00     0.316 C 
ATOM      3  C   UNK d   1       2.477 -18.982 -37.810  0.00  0.00     0.189 C 
ATOM      4  N   UNK d   1       1.049 -19.064 -37.930  0.00  0.00    -0.324 N 
ATOM      5  C   UNK d   1       0.158 -20.162 -38.225  0.00  0.00     0.128 C 
ATOM      6  C   UNK d   1      -0.676 -19.989 -39.453  0.00  0.00     0.020 C 
ATOM      7  C   UNK d   1      -0.646 -18.627 -40.055  0.00  0.00     0.005 C 
ATOM      8  C   UNK d   1      -1.507 -17.697 -39.170  0.00  0.00     0.031 C 
ATOM      9  C   UNK d   1      -0.524 -17.152 -38.150  0.00  0.00     0.030 C 
ATOM     10  C   UNK d   1       0.535 -17.735 -37.637  0.00  0.00     0.208 C 
ATOM     11  H   UNK d   1       1.032 -17.339 -35.745  0.00  0.00     0.295 HD
ENDROOT
BRANCH   3  12
ATOM     12  O   UNK d   1       2.883 -20.133 -37.080  0.00  0.00    -0.365 OA
ATOM     13  H   UNK d   1       2.028 -20.527 -36.704  0.00  0.00     0.213 HD
ENDBRANCH   3  12
BRANCH   3  14
ATOM     14  C   UNK d   1       3.188 -19.058 -39.063  0.00  0.00     0.001 A 
ATOM     15  C   UNK d   1       4.128 -20.046 -39.354  0.00  0.00     0.048 A 
ATOM     16  C   UNK d   1       4.791 -20.129 -40.570  0.00  0.00     0.103 A 
ATOM     17  C   UNK d   1       4.505 -19.180 -41.552  0.00  0.00     0.036 A 
ATOM     18  C   UNK d   1       3.593 -18.195 -41.308  0.00  0.00     0.003 A 
ATOM     19  C   UNK d   1       2.942 -18.145 -40.065  0.00  0.00     0.012 A 
BRANCH  16  20
ATOM     20  N   UNK d   1       5.733 -21.159 -40.795  0.00  0.00    -0.116 N 
ATOM     21  O   UNK d   1       6.127 -21.872 -39.821  0.00  0.00    -0.532 OA
ATOM     22  O   UNK d   1       6.255 -21.437 -42.003  0.00  0.00    -0.532 OA
ENDBRANCH  16  20
ENDBRANCH   3  14
BRANCH   1  23
ATOM     23  C   UNK d   1       1.378 -15.746 -36.905  0.00  0.00     0.143 A 
ATOM     24  C   UNK d   1       1.990 -15.157 -37.983  0.00  0.00     0.061 A 
ATOM     25  C   UNK d   1       2.025 -13.777 -38.163  0.00  0.00     0.036 A 
ATOM     26 Cl   UNK d   1       2.793 -13.078 -39.580  0.00  0.00    -0.084 Cl
ATOM     27  C   UNK d   1       1.428 -12.946 -37.236  0.00  0.00     0.024 A 
ATOM     28  C   UNK d   1       0.810 -13.493 -36.143  0.00  0.00     0.004 A 
ATOM     29  C   UNK d   1       0.787 -14.874 -35.983  0.00  0.00     0.038 A 
ENDBRANCH   1  23
TORSDOF 4
ENDMDL
