MODEL 1
REMARK VINA RESULT:    -7.027      0.000      0.000
REMARK INTER + INTRA:          -9.210
REMARK INTER:                  -8.670
REMARK INTRA:                  -0.540
REMARK UNBOUND:                -0.540
REMARK  4 active torsions:
REMARK  status: ('A' for Active; 'I' for Inactive)
REMARK    1  A    between atoms: C_7  and  N_8 
REMARK    2  A    between atoms: C_14  and  C_16 
REMARK    3  A    between atoms: N_23  and  C_31 
REMARK    4  A    between atoms: C_25  and  C_28 
ROOT
ATOM      1  F   UNK d   1      -1.167 -21.043 -41.687  0.00  0.00    -0.204 F 
ATOM      2  C   UNK d   1       0.147 -21.123 -41.411  0.00  0.00     0.151 A 
ATOM      3  C   UNK d   1       0.829 -22.074 -42.164  0.00  0.00     0.062 A 
ATOM      4  C   UNK d   1       2.183 -22.260 -41.993  0.00  0.00     0.045 A 
ATOM      5  C   UNK d   1       2.832 -21.480 -41.065  0.00  0.00     0.051 A 
ATOM      6  C   UNK d   1       2.132 -20.534 -40.324  0.00  0.00     0.071 A 
ATOM      7  C   UNK d   1       0.786 -20.340 -40.483  0.00  0.00     0.175 A 
ATOM      8  N   UNK d   1       4.157 -21.679 -40.917  0.00  0.00    -0.350 N 
ATOM      9  C   UNK d   1       4.838 -22.593 -41.631  0.00  0.00     0.114 A 
ATOM     10  C   UNK d   1       4.218 -23.390 -42.568  0.00  0.00     0.107 A 
ATOM     11  C   UNK d   1       2.866 -23.220 -42.753  0.00  0.00     0.202 A 
ATOM     12  O   UNK d   1       2.240 -23.912 -43.590  0.00  0.00    -0.286 OA
ENDROOT
BRANCH   7  13
ATOM     13  N   UNK d   1       0.118 -19.388 -39.714  0.00  0.00    -0.035 N 
ATOM     14  C   UNK d   1       0.358 -18.014 -40.076  0.00  0.00     0.261 C 
ATOM     15  C   UNK d   1      -0.557 -17.085 -39.243  0.00  0.00     0.153 C 
ATOM     16  N   UNK d   1      -0.156 -17.263 -37.903  0.00  0.00    -0.356 N 
ATOM     17  C   UNK d   1      -0.529 -18.652 -37.427  0.00  0.00     0.153 C 
ATOM     18  C   UNK d   1       0.514 -16.486 -37.020  0.00  0.00     0.187 C 
ATOM     19  C   UNK d   1       0.300 -19.536 -38.307  0.00  0.00     0.261 C 
ATOM     20  O   UNK d   1       0.634 -16.984 -35.812  0.00  0.00    -0.171 OA
ATOM     21  H   UNK d   1      -0.923 -19.543 -39.889  0.00  0.00     0.287 HD
BRANCH  18  22
ATOM     22  C   UNK d   1       1.127 -15.195 -37.166  0.00  0.00     0.019 A 
ATOM     23  C   UNK d   1       1.822 -14.796 -38.261  0.00  0.00     0.039 A 
ATOM     24  C   UNK d   1       2.350 -13.517 -38.381  0.00  0.00     0.035 A 
ATOM     25  C   UNK d   1       2.171 -12.621 -37.360  0.00  0.00     0.024 A 
ATOM     26 Cl   UNK d   1       3.245 -13.043 -39.827  0.00  0.00    -0.084 Cl
ATOM     27  C   UNK d   1       1.481 -12.972 -36.234  0.00  0.00     0.003 A 
ATOM     28  C   UNK d   1       0.974 -14.232 -36.146  0.00  0.00     0.016 A 
ENDBRANCH  18  22
ENDBRANCH   7  13
BRANCH   8  29
ATOM     29  C   UNK d   1       4.832 -20.838 -39.921  0.00  0.00     0.090 A 
ATOM     30  C   UNK d   1       6.082 -21.269 -39.290  0.00  0.00     0.028 A 
ATOM     31  C   UNK d   1       4.872 -21.474 -38.492  0.00  0.00     0.028 A 
ENDBRANCH   8  29
BRANCH  10  32
ATOM     32  C   UNK d   1       4.980 -24.387 -43.343  0.00  0.00     0.214 C 
ATOM     33  O   UNK d   1       5.045 -25.582 -43.012  0.00  0.00    -0.644 OA
ATOM     34  O   UNK d   1       5.637 -23.962 -44.476  0.00  0.00    -0.644 OA
ENDBRANCH  10  32
TORSDOF 4
ENDMDL
