MODEL 1
REMARK VINA RESULT:    -6.912      0.000      0.000
REMARK INTER + INTRA:         -10.649
REMARK INTER:                  -9.337
REMARK INTRA:                  -1.313
REMARK UNBOUND:                -1.313
REMARK  6 active torsions:
REMARK  status: ('A' for Active; 'I' for Inactive)
REMARK    1  A    between atoms: C_5  and  C_8 
REMARK       I    between atoms: C_8  and  N_10 
REMARK    2  A    between atoms: N_10  and  C_11 
REMARK    3  A    between atoms: C_11  and  C_12 
REMARK    4  A    between atoms: C_12  and  N_13 
REMARK       I    between atoms: N_13  and  C_14 
REMARK    5  A    between atoms: C_14  and  C_16 
REMARK    6  A    between atoms: N_19  and  C_22 
ROOT
ATOM      1  N   UNK d   1      -1.944 -14.366 -36.291  0.00  0.00    -0.359 N 
ATOM      2  C   UNK d   1      -1.482 -15.189 -37.381  0.00  0.00     0.222 C 
ATOM      3  O   UNK d   1      -0.933 -14.649 -38.355  0.00  0.00    -0.273 OA
ATOM      4  H   UNK d   1      -2.356 -14.877 -35.515  0.00  0.00     0.162 HD
ENDROOT
BRANCH   2   5
ATOM      5  C   UNK d   1      -1.646 -16.661 -37.365  0.00  0.00     0.081 C 
ATOM      6  C   UNK d   1      -0.781 -17.216 -36.255  0.00  0.00     0.034 C 
ATOM      7  C   UNK d   1       0.658 -17.080 -36.699  0.00  0.00     0.125 C 
ATOM      8  N   UNK d   1       0.830 -18.049 -37.777  0.00  0.00    -0.364 N 
ATOM      9  C   UNK d   1      -0.241 -18.307 -38.679  0.00  0.00     0.125 C 
ATOM     10  C   UNK d   1      -1.344 -17.312 -38.664  0.00  0.00     0.034 C 
BRANCH   8  11
ATOM     11  C   UNK d   1       2.081 -18.700 -37.877  0.00  0.00     0.148 A 
ATOM     12  N   UNK d   1       2.339 -19.655 -38.790  0.00  0.00    -0.129 NA
ATOM     13  N   UNK d   1       3.500 -20.273 -38.895  0.00  0.00    -0.108 N 
ATOM     14  N   UNK d   1       3.930 -21.223 -39.719  0.00  0.00    -0.021 NA
ATOM     15  C   UNK d   1       4.533 -19.998 -38.091  0.00  0.00     0.196 A 
ATOM     16  N   UNK d   1       5.169 -21.536 -39.453  0.00  0.00    -0.021 NA
ATOM     17  N   UNK d   1       5.568 -20.788 -38.446  0.00  0.00    -0.107 NA
ATOM     18  C   UNK d   1       4.331 -19.025 -37.129  0.00  0.00     0.060 A 
ATOM     19  C   UNK d   1       3.117 -18.377 -37.018  0.00  0.00     0.056 A 
ENDBRANCH   8  11
ENDBRANCH   2   5
BRANCH   1  20
ATOM     20  C   UNK d   1      -1.739 -12.976 -36.402  0.00  0.00     0.142 C 
BRANCH  20  21
ATOM     21  C   UNK d   1      -0.538 -12.317 -35.862  0.00  0.00     0.142 C 
BRANCH  21  22
ATOM     22  N   UNK d   1       0.545 -12.063 -36.733  0.00  0.00    -0.355 N 
ATOM     23  C   UNK d   1       1.730 -12.751 -36.951  0.00  0.00     0.251 C 
ATOM     24  O   UNK d   1       2.004 -13.806 -36.339  0.00  0.00    -0.268 OA
ATOM     25  H   UNK d   1       0.474 -11.153 -37.369  0.00  0.00     0.162 HD
BRANCH  23  26
ATOM     26  C   UNK d   1       2.753 -12.289 -37.918  0.00  0.00     0.032 A 
ATOM     27  C   UNK d   1       3.617 -11.275 -37.566  0.00  0.00     0.018 A 
ATOM     28  C   UNK d   1       4.587 -10.819 -38.427  0.00  0.00     0.025 A 
ATOM     29  C   UNK d   1       4.703 -11.391 -39.683  0.00  0.00     0.034 A 
ATOM     30 Cl   UNK d   1       5.938 -10.817 -40.791  0.00  0.00    -0.084 Cl
ATOM     31  C   UNK d   1       3.861 -12.402 -40.065  0.00  0.00     0.025 A 
ATOM     32  C   UNK d   1       2.887 -12.840 -39.165  0.00  0.00     0.018 A 
ENDBRANCH  23  26
ENDBRANCH  21  22
ENDBRANCH  20  21
ENDBRANCH   1  20
TORSDOF 6
ENDMDL
