MODEL 1
REMARK VINA RESULT:    -6.171      0.000      0.000
REMARK INTER + INTRA:          -8.493
REMARK INTER:                  -7.975
REMARK INTRA:                  -0.518
REMARK UNBOUND:                -0.518
REMARK  5 active torsions:
REMARK  status: ('A' for Active; 'I' for Inactive)
REMARK    1  A    between atoms: C_5  and  C_8 
REMARK    2  A    between atoms: C_10  and  C_24 
REMARK    3  A    between atoms: N_11  and  C_16 
REMARK    4  A    between atoms: C_16  and  C_17 
REMARK    5  A    between atoms: C_17  and  N_18 
ROOT
ATOM      1  C   UNK d   1       0.984 -17.076 -38.695  0.00  0.00     0.130 C 
ATOM      2  C   UNK d   1       1.688 -17.920 -37.968  0.00  0.00     0.062 C 
ATOM      3  C   UNK d   1       1.954 -19.379 -38.187  0.00  0.00     0.161 C 
ATOM      4  N   UNK d   1       3.325 -19.484 -37.839  0.00  0.00    -0.331 N 
ATOM      5  C   UNK d   1       3.432 -18.689 -36.619  0.00  0.00     0.295 C 
ATOM      6  O   UNK d   1       4.256 -18.830 -35.679  0.00  0.00    -0.264 OA
ATOM      7  C   UNK d   1       2.380 -17.682 -36.702  0.00  0.00     0.250 C 
ATOM      8  O   UNK d   1       2.064 -16.754 -35.885  0.00  0.00    -0.282 OA
ATOM      9  O   UNK d   1       0.337 -17.467 -39.854  0.00  0.00    -0.190 OA
ENDROOT
BRANCH   1  10
ATOM     10  C   UNK d   1       0.848 -15.677 -38.308  0.00  0.00     0.001 A 
ATOM     11  C   UNK d   1      -0.255 -15.217 -37.612  0.00  0.00     0.015 A 
ATOM     12  C   UNK d   1      -0.323 -13.886 -37.311  0.00  0.00     0.020 A 
ATOM     13  C   UNK d   1       0.641 -12.968 -37.657  0.00  0.00     0.011 A 
ATOM     14 Br   UNK d   1       0.473 -11.109 -37.195  0.00  0.00    -0.051 Br
ATOM     15  C   UNK d   1       1.744 -13.420 -38.352  0.00  0.00     0.020 A 
ATOM     16  C   UNK d   1       1.827 -14.780 -38.667  0.00  0.00     0.015 A 
ENDBRANCH   1  10
BRANCH   3  17
ATOM     17  C   UNK d   1       1.414 -19.904 -39.396  0.00  0.00    -0.030 A 
ATOM     18  C   UNK d   1       0.197 -20.541 -39.366  0.00  0.00     0.011 A 
ATOM     19  C   UNK d   1      -0.396 -21.059 -40.492  0.00  0.00     0.024 A 
ATOM     20  C   UNK d   1       0.227 -20.953 -41.727  0.00  0.00     0.034 A 
ATOM     21  C   UNK d   1       1.449 -20.309 -41.736  0.00  0.00     0.024 A 
ATOM     22 Cl   UNK d   1      -0.516 -21.605 -43.166  0.00  0.00    -0.084 Cl
ATOM     23  C   UNK d   1       2.036 -19.794 -40.603  0.00  0.00     0.011 A 
ENDBRANCH   3  17
BRANCH   4  24
ATOM     24  C   UNK d   1       4.460 -20.201 -38.386  0.00  0.00     0.155 C 
BRANCH  24  25
ATOM     25  C   UNK d   1       5.357 -19.464 -39.303  0.00  0.00     0.255 C 
BRANCH  25  26
ATOM     26  N   UNK d   1       6.126 -20.324 -40.209  0.00  0.00    -0.066 N 
ATOM     27  C   UNK d   1       6.079 -19.812 -41.535  0.00  0.00     0.261 C 
ATOM     28  C   UNK d   1       5.392 -20.652 -42.553  0.00  0.00     0.195 C 
ATOM     29  O   UNK d   1       5.399 -22.012 -42.309  0.00  0.00    -0.388 OA
ATOM     30  C   UNK d   1       4.716 -22.165 -41.081  0.00  0.00     0.195 C 
ATOM     31  C   UNK d   1       5.645 -21.663 -40.032  0.00  0.00     0.261 C 
ATOM     32  H   UNK d   1       7.122 -20.282 -39.830  0.00  0.00     0.280 HD
ENDBRANCH  25  26
ENDBRANCH  24  25
ENDBRANCH   4  24
TORSDOF 5
ENDMDL
