/Users/jonathanwahrer/Desktop/Msc/3_Semester/Drug_Design_Praktikum/waehrer_HTS_screening/HTS_experiment/out/docking_results/vina_output/6y4q/1507_docked.pdbqt
 OpenBabel03232218283D

 32 35  0  0  1  0  0  0  0  0999 V2000
    0.9840  -17.0760  -38.6950 C   0  0  0  0  0  0  0  0  0  0  0  0
    1.6880  -17.9200  -37.9680 C   0  0  0  0  0  0  0  0  0  0  0  0
    1.9540  -19.3790  -38.1870 C   0  0  2  0  0  3  0  0  0  0  0  0
    3.3250  -19.4840  -37.8390 N   0  0  0  0  0  0  0  0  0  0  0  0
    3.4320  -18.6890  -36.6190 C   0  0  0  0  0  0  0  0  0  0  0  0
    4.2560  -18.8300  -35.6790 O   0  0  0  0  0  0  0  0  0  0  0  0
    2.3800  -17.6820  -36.7020 C   0  0  0  0  0  0  0  0  0  0  0  0
    2.0640  -16.7540  -35.8850 O   0  0  0  0  0  0  0  0  0  0  0  0
    0.3370  -17.4670  -39.8540 O   0  0  0  0  0  1  0  0  0  0  0  0
    0.8480  -15.6770  -38.3080 C   0  0  0  0  0  0  0  0  0  0  0  0
   -0.2550  -15.2170  -37.6120 C   0  0  0  0  0  3  0  0  0  0  0  0
   -0.3230  -13.8860  -37.3110 C   0  0  0  0  0  3  0  0  0  0  0  0
    0.6410  -12.9680  -37.6570 C   0  0  0  0  0  0  0  0  0  0  0  0
    0.4730  -11.1090  -37.1950 Br  0  0  0  0  0  0  0  0  0  0  0  0
    1.7440  -13.4200  -38.3520 C   0  0  0  0  0  3  0  0  0  0  0  0
    1.8270  -14.7800  -38.6670 C   0  0  0  0  0  3  0  0  0  0  0  0
    1.4140  -19.9040  -39.3960 C   0  0  0  0  0  0  0  0  0  0  0  0
    0.1970  -20.5410  -39.3660 C   0  0  0  0  0  3  0  0  0  0  0  0
   -0.3960  -21.0590  -40.4920 C   0  0  0  0  0  3  0  0  0  0  0  0
    0.2270  -20.9530  -41.7270 C   0  0  0  0  0  0  0  0  0  0  0  0
    1.4490  -20.3090  -41.7360 C   0  0  0  0  0  3  0  0  0  0  0  0
   -0.5160  -21.6050  -43.1660 Cl  0  0  0  0  0  0  0  0  0  0  0  0
    2.0360  -19.7940  -40.6030 C   0  0  0  0  0  3  0  0  0  0  0  0
    4.4600  -20.2010  -38.3860 C   0  0  0  0  0  2  0  0  0  0  0  0
    5.3570  -19.4640  -39.3030 C   0  0  0  0  0  2  0  0  0  0  0  0
    6.1260  -20.3240  -40.2090 N   0  0  0  0  0  4  0  0  0  0  0  0
    6.0790  -19.8120  -41.5350 C   0  0  0  0  0  2  0  0  0  0  0  0
    5.3920  -20.6520  -42.5530 C   0  0  0  0  0  2  0  0  0  0  0  0
    5.3990  -22.0120  -42.3090 O   0  0  0  0  0  0  0  0  0  0  0  0
    4.7160  -22.1650  -41.0810 C   0  0  0  0  0  2  0  0  0  0  0  0
    5.6450  -21.6630  -40.0320 C   0  0  0  0  0  2  0  0  0  0  0  0
    7.1220  -20.2820  -39.8300 H   0  0  0  0  0  0  0  0  0  0  0  0
  1 10  1  0  0  0  0
  1  2  2  0  0  0  0
  2  7  1  0  0  0  0
  3 17  1  6  0  0  0
  3  2  1  0  0  0  0
  3  4  1  0  0  0  0
  4  5  1  0  0  0  0
  5  6  2  0  0  0  0
  7  5  1  0  0  0  0
  7  8  2  0  0  0  0
  9  1  1  0  0  0  0
 10 11  1  0  0  0  0
 11 12  2  0  0  0  0
 13 12  1  0  0  0  0
 13 14  1  0  0  0  0
 15 13  2  0  0  0  0
 16 15  1  0  0  0  0
 16 10  2  0  0  0  0
 17 18  1  0  0  0  0
 19 18  2  0  0  0  0
 20 19  1  0  0  0  0
 21 20  2  0  0  0  0
 21 23  1  0  0  0  0
 22 20  1  0  0  0  0
 23 17  2  0  0  0  0
 24  4  1  0  0  0  0
 25 24  1  0  0  0  0
 26 31  1  0  0  0  0
 26 32  1  0  0  0  0
 26 25  1  0  0  0  0
 27 26  1  0  0  0  0
 28 29  1  0  0  0  0
 28 27  1  0  0  0  0
 29 30  1  0  0  0  0
 30 31  1  0  0  0  0
M  END
>  <Pose>
1

>  <Score>
-6.171

$$$$
