/Users/jonathanwahrer/Desktop/Msc/3_Semester/Drug_Design_Praktikum/waehrer_HTS_screening/HTS_experiment/out/docking_results/vina_output/6y4q/1516_docked.pdbqt
 OpenBabel03232218293D

 30 33  0  0  1  0  0  0  0  0999 V2000
    0.1800  -17.3430  -36.7640 C   0  0  0  0  0  0  0  0  0  0  0  0
   -1.1030  -17.5770  -36.9170 O   0  0  0  0  0  0  0  0  0  0  0  0
    0.9880  -17.9970  -37.6830 N   0  0  0  0  0  0  0  0  0  0  0  0
    2.4080  -17.8760  -37.7420 C   0  0  0  0  0  2  0  0  0  0  0  0
    2.8820  -18.4780  -39.0840 C   0  0  0  0  0  2  0  0  0  0  0  0
    2.6370  -19.9720  -38.9920 C   0  0  2  0  0  0  0  0  0  0  0  0
    3.3840  -20.4990  -37.9250 N   0  0  0  0  0  0  0  0  0  0  0  0
    4.7210  -20.8740  -38.1020 C   0  0  0  0  0  2  0  0  0  0  0  0
    5.0980  -21.4900  -39.3960 C   0  0  0  0  0  2  0  0  0  0  0  0
    4.1070  -21.2710  -40.4710 C   0  0  0  0  0  0  0  0  0  0  0  0
    4.1570  -21.7030  -41.7460 N   0  0  0  0  0  0  0  0  0  0  0  0
    3.0550  -21.2770  -42.3720 C   0  0  0  0  0  3  0  0  0  0  0  0
    2.3120  -20.5750  -41.4870 N   0  0  0  0  0  0  0  0  0  0  0  0
    2.9510  -20.5610  -40.3020 C   0  0  0  0  0  0  0  0  0  0  0  0
    1.1490  -20.1760  -38.6590 C   0  0  0  0  0  2  0  0  0  0  0  0
    0.3810  -18.8830  -38.6890 C   0  0  0  0  0  2  0  0  0  0  0  0
    3.0090  -20.4520  -36.9850 H   0  0  0  0  0  0  0  0  0  0  0  0
    1.4020  -20.1240  -41.6950 H   0  0  0  0  0  0  0  0  0  0  0  0
    0.4930  -16.4410  -35.6570 C   0  0  0  0  0  2  0  0  0  0  0  0
    0.8070  -15.1410  -35.9550 N   0  0  0  0  0  0  0  0  0  0  0  0
    1.1180  -13.8560  -36.2490 C   0  0  0  0  0  0  0  0  0  0  0  0
    0.8640  -12.8330  -35.5610 O   0  0  0  0  0  0  0  0  0  0  0  0
    0.1530  -14.7460  -34.8110 H   0  0  0  0  0  0  0  0  0  0  0  0
    1.8460  -13.5880  -37.5320 C   0  0  0  0  0  0  0  0  0  0  0  0
    2.6770  -12.5090  -37.6040 C   0  0  0  0  0  3  0  0  0  0  0  0
    3.3630  -12.2470  -38.7940 C   0  0  0  0  0  3  0  0  0  0  0  0
    3.1770  -13.0860  -39.8570 C   0  0  0  0  0  0  0  0  0  0  0  0
    4.0360  -12.7500  -41.3540 Cl  0  0  0  0  0  0  0  0  0  0  0  0
    2.3440  -14.1640  -39.7860 C   0  0  0  0  0  3  0  0  0  0  0  0
    1.6580  -14.4210  -38.5820 C   0  0  0  0  0  3  0  0  0  0  0  0
  1 19  1  0  0  0  0
  2  1  2  0  0  0  0
  3  1  1  0  0  0  0
  4  3  1  0  0  0  0
  5  4  1  0  0  0  0
  6  5  1  6  0  0  0
  6 15  1  0  0  0  0
  6  7  1  0  0  0  0
  7 17  1  0  0  0  0
  8  7  1  0  0  0  0
  9  8  1  0  0  0  0
 10 14  2  0  0  0  0
 10  9  1  0  0  0  0
 11 10  1  0  0  0  0
 12 11  2  0  0  0  0
 12 13  1  0  0  0  0
 13 14  1  0  0  0  0
 14  6  1  0  0  0  0
 16 15  1  0  0  0  0
 16  3  1  0  0  0  0
 18 13  1  0  0  0  0
 20 19  1  0  0  0  0
 20 23  1  0  0  0  0
 21 20  1  0  0  0  0
 21 22  2  0  0  0  0
 24 21  1  0  0  0  0
 25 24  1  0  0  0  0
 26 25  2  0  0  0  0
 27 29  2  0  0  0  0
 27 26  1  0  0  0  0
 28 27  1  0  0  0  0
 29 30  1  0  0  0  0
 30 24  2  0  0  0  0
M  END
>  <Pose>
1

>  <Score>
-7.333

$$$$
