MODEL 1
REMARK VINA RESULT:    -7.333      0.000      0.000
REMARK INTER + INTRA:          -9.357
REMARK INTER:                  -8.619
REMARK INTRA:                  -0.738
REMARK UNBOUND:                -0.738
REMARK  3 active torsions:
REMARK  status: ('A' for Active; 'I' for Inactive)
REMARK    1  A    between atoms: C_5  and  C_8 
REMARK       I    between atoms: C_8  and  N_10 
REMARK    2  A    between atoms: N_10  and  C_11 
REMARK    3  A    between atoms: C_11  and  C_12 
REMARK       I    between atoms: C_12  and  N_14 
ROOT
ATOM      1  C   UNK d   1       0.180 -17.343 -36.764  0.00  0.00     0.171 C 
ATOM      2  O   UNK d   1      -1.103 -17.577 -36.917  0.00  0.00    -0.175 OA
ATOM      3  N   UNK d   1       0.988 -17.997 -37.683  0.00  0.00    -0.361 N 
ATOM      4  C   UNK d   1       2.408 -17.876 -37.742  0.00  0.00     0.127 C 
ATOM      5  C   UNK d   1       2.882 -18.478 -39.084  0.00  0.00     0.057 C 
ATOM      6  C   UNK d   1       2.637 -19.972 -38.992  0.00  0.00     0.073 C 
ATOM      7  N   UNK d   1       3.384 -20.499 -37.925  0.00  0.00    -0.407 N 
ATOM      8  C   UNK d   1       4.721 -20.874 -38.102  0.00  0.00     0.121 C 
ATOM      9  C   UNK d   1       5.098 -21.490 -39.396  0.00  0.00     0.080 C 
ATOM     10  C   UNK d   1       4.107 -21.271 -40.471  0.00  0.00     0.062 A 
ATOM     11  N   UNK d   1       4.157 -21.703 -41.746  0.00  0.00    -0.246 NA
ATOM     12  C   UNK d   1       3.055 -21.277 -42.372  0.00  0.00     0.207 A 
ATOM     13  N   UNK d   1       2.312 -20.575 -41.487  0.00  0.00    -0.350 N 
ATOM     14  C   UNK d   1       2.951 -20.561 -40.302  0.00  0.00     0.063 A 
ATOM     15  C   UNK d   1       1.149 -20.176 -38.659  0.00  0.00     0.057 C 
ATOM     16  C   UNK d   1       0.381 -18.883 -38.689  0.00  0.00     0.127 C 
ATOM     17  H   UNK d   1       3.009 -20.452 -36.985  0.00  0.00     0.154 HD
ATOM     18  H   UNK d   1       1.402 -20.124 -41.695  0.00  0.00     0.166 HD
ENDROOT
BRANCH   1  19
ATOM     19  C   UNK d   1       0.493 -16.441 -35.657  0.00  0.00     0.210 C 
BRANCH  19  20
ATOM     20  N   UNK d   1       0.807 -15.141 -35.955  0.00  0.00    -0.349 N 
ATOM     21  C   UNK d   1       1.118 -13.856 -36.249  0.00  0.00     0.252 C 
ATOM     22  O   UNK d   1       0.864 -12.833 -35.561  0.00  0.00    -0.268 OA
ATOM     23  H   UNK d   1       0.153 -14.746 -34.811  0.00  0.00     0.163 HD
BRANCH  21  24
ATOM     24  C   UNK d   1       1.846 -13.588 -37.532  0.00  0.00     0.032 A 
ATOM     25  C   UNK d   1       2.677 -12.509 -37.604  0.00  0.00     0.018 A 
ATOM     26  C   UNK d   1       3.363 -12.247 -38.794  0.00  0.00     0.025 A 
ATOM     27  C   UNK d   1       3.177 -13.086 -39.857  0.00  0.00     0.034 A 
ATOM     28 Cl   UNK d   1       4.036 -12.750 -41.354  0.00  0.00    -0.084 Cl
ATOM     29  C   UNK d   1       2.344 -14.164 -39.786  0.00  0.00     0.025 A 
ATOM     30  C   UNK d   1       1.658 -14.421 -38.582  0.00  0.00     0.018 A 
ENDBRANCH  21  24
ENDBRANCH  19  20
ENDBRANCH   1  19
TORSDOF 3
ENDMDL
