/Users/jonathanwahrer/Desktop/Msc/3_Semester/Drug_Design_Praktikum/waehrer_HTS_screening/HTS_experiment/out/docking_results/vina_output/6y4q/1518_docked.pdbqt
 OpenBabel03232218293D

 31 34  0  0  1  0  0  0  0  0999 V2000
    1.9770  -17.4480  -36.2770 C   0  0  0  0  0  0  0  0  0  0  0  0
    2.3840  -17.2720  -35.1030 O   0  0  0  0  0  0  0  0  0  0  0  0
    2.7070  -18.2630  -37.1730 N   0  0  0  0  0  0  0  0  0  0  0  0
    2.2900  -18.5040  -38.5390 C   0  0  0  0  0  2  0  0  0  0  0  0
    2.7290  -19.9110  -38.9150 C   0  0  0  0  0  2  0  0  0  0  0  0
    4.2540  -20.0150  -38.8940 C   0  0  1  0  0  0  0  0  0  0  0  0
    4.5710  -21.3420  -38.4530 N   0  0  0  0  0  0  0  0  0  0  0  0
    5.9110  -21.7350  -38.8340 C   0  0  0  0  0  2  0  0  0  0  0  0
    5.9410  -21.9590  -40.3440 C   0  0  0  0  0  2  0  0  0  0  0  0
    5.5680  -20.6550  -40.9650 C   0  0  0  0  0  0  0  0  0  0  0  0
    5.8680  -20.1090  -42.1810 N   0  0  0  0  0  0  0  0  0  0  0  0
    5.2800  -18.9010  -42.2470 C   0  0  0  0  0  3  0  0  0  0  0  0
    4.6240  -18.6960  -41.0900 N   0  0  0  0  0  0  0  0  0  0  0  0
    4.7800  -19.7710  -40.2620 C   0  0  0  0  0  0  0  0  0  0  0  0
    4.8450  -19.0150  -37.9230 C   0  0  0  0  0  2  0  0  0  0  0  0
    3.9330  -18.9040  -36.7380 C   0  0  0  0  0  2  0  0  0  0  0  0
    4.4440  -21.4490  -37.4270 H   0  0  0  0  0  0  0  0  0  0  0  0
    6.4590  -20.6120  -42.8800 H   0  0  0  0  0  0  0  0  0  0  0  0
    0.7220  -16.7800  -36.6880 C   0  0  0  0  0  2  0  0  0  0  0  0
    0.6650  -15.3440  -36.2730 C   0  0  0  0  0  2  0  0  0  0  0  0
    1.6680  -14.5880  -36.9970 N   0  0  0  0  0  0  0  0  0  0  0  0
    1.7840  -13.1990  -36.9470 C   0  0  0  0  0  0  0  0  0  0  0  0
    0.9910  -12.5250  -36.2410 O   0  0  0  0  0  0  0  0  0  0  0  0
    2.3230  -15.1640  -37.5790 H   0  0  0  0  0  0  0  0  0  0  0  0
    2.8060  -12.4690  -37.6920 C   0  0  0  0  0  0  0  0  0  0  0  0
    3.5960  -11.5050  -37.1050 C   0  0  0  0  0  3  0  0  0  0  0  0
    4.5500  -10.8450  -37.8640 C   0  0  0  0  0  3  0  0  0  0  0  0
    4.7330  -11.1290  -39.2100 C   0  0  0  0  0  0  0  0  0  0  0  0
    5.9610  -10.2470  -40.0950 Cl  0  0  0  0  0  0  0  0  0  0  0  0
    3.9470  -12.0910  -39.8090 C   0  0  0  0  0  3  0  0  0  0  0  0
    3.0110  -12.7340  -39.0450 C   0  0  0  0  0  3  0  0  0  0  0  0
  1  2  2  0  0  0  0
  3 16  1  0  0  0  0
  3  1  1  0  0  0  0
  4  3  1  0  0  0  0
  5  4  1  0  0  0  0
  6  5  1  6  0  0  0
  6  7  1  0  0  0  0
  6 15  1  0  0  0  0
  7 17  1  0  0  0  0
  8  7  1  0  0  0  0
  9  8  1  0  0  0  0
 10  9  1  0  0  0  0
 10 14  2  0  0  0  0
 11 10  1  0  0  0  0
 12 11  1  0  0  0  0
 12 13  2  0  0  0  0
 13 14  1  0  0  0  0
 14  6  1  0  0  0  0
 15 16  1  0  0  0  0
 18 11  1  0  0  0  0
 19  1  1  0  0  0  0
 19 20  1  0  0  0  0
 21 22  1  0  0  0  0
 21 20  1  0  0  0  0
 22 23  2  0  0  0  0
 24 21  1  0  0  0  0
 25 26  1  0  0  0  0
 25 22  1  0  0  0  0
 27 26  2  0  0  0  0
 28 27  1  0  0  0  0
 29 28  1  0  0  0  0
 30 28  2  0  0  0  0
 30 31  1  0  0  0  0
 31 25  2  0  0  0  0
M  END
>  <Pose>
1

>  <Score>
-7.851

$$$$
