MODEL 1
REMARK VINA RESULT:    -6.058      0.000      0.000
REMARK INTER + INTRA:          -7.259
REMARK INTER:                  -6.943
REMARK INTRA:                  -0.316
REMARK UNBOUND:                -0.316
REMARK  3 active torsions:
REMARK  status: ('A' for Active; 'I' for Inactive)
REMARK    1  A    between atoms: N_12  and  C_15 
REMARK    2  A    between atoms: C_15  and  C_16 
REMARK    3  A    between atoms: C_16  and  O_21 
ROOT
ATOM      1 Cl   UNK d   1       1.902 -12.962 -38.208  0.00  0.00    -0.082 Cl
ATOM      2  C   UNK d   1       1.572 -14.607 -37.706  0.00  0.00     0.061 A 
ATOM      3  C   UNK d   1       1.710 -15.631 -38.611  0.00  0.00     0.065 A 
ATOM      4  N   UNK d   1       2.065 -15.704 -39.905  0.00  0.00    -0.357 N 
ATOM      5  C   UNK d   1       2.046 -16.974 -40.352  0.00  0.00     0.020 A 
ATOM      6  C   UNK d   1       1.655 -17.738 -39.273  0.00  0.00    -0.006 A 
ATOM      7  C   UNK d   1       1.441 -16.921 -38.184  0.00  0.00     0.002 A 
ATOM      8  C   UNK d   1       1.049 -17.133 -36.879  0.00  0.00     0.014 A 
ATOM      9  C   UNK d   1       0.905 -16.129 -35.954  0.00  0.00     0.003 A 
ATOM     10  C   UNK d   1       1.175 -14.835 -36.388  0.00  0.00     0.026 A 
ATOM     11  C   UNK d   1       1.560 -19.199 -39.520  0.00  0.00     0.158 C 
ATOM     12  N   UNK d   1       2.826 -19.553 -40.122  0.00  0.00    -0.405 N 
ATOM     13  C   UNK d   1       3.042 -19.017 -41.409  0.00  0.00     0.123 C 
ATOM     14  C   UNK d   1       2.312 -17.708 -41.607  0.00  0.00     0.077 C 
ATOM     15  H   UNK d   1       2.335 -14.895 -40.533  0.00  0.00     0.166 HD
ENDROOT
BRANCH  12  16
ATOM     16  C   UNK d   1       3.269 -20.853 -39.844  0.00  0.00     0.156 C 
BRANCH  16  17
ATOM     17  C   UNK d   1       4.467 -20.888 -38.944  0.00  0.00     0.101 A 
ATOM     18  C   UNK d   1       5.685 -20.280 -39.549  0.00  0.00     0.308 A 
ATOM     19  N   UNK d   1       6.188 -19.244 -38.715  0.00  0.00     0.086 N 
ATOM     20  C   UNK d   1       5.322 -19.080 -37.593  0.00  0.00     0.272 A 
ATOM     21  H   UNK d   1       7.190 -19.372 -38.435  0.00  0.00     0.315 HD
ATOM     22  C   UNK d   1       4.184 -20.033 -37.738  0.00  0.00     0.071 A 
BRANCH  17  23
ATOM     23  O   UNK d   1       4.703 -22.186 -38.471  0.00  0.00    -0.386 OA
ATOM     24  H   UNK d   1       3.825 -22.519 -38.145  0.00  0.00     0.210 HD
ENDBRANCH  17  23
ENDBRANCH  16  17
ENDBRANCH  12  16
TORSDOF 3
ENDMDL
