MODEL 1
REMARK VINA RESULT:    -6.605      0.000      0.000
REMARK INTER + INTRA:          -8.298
REMARK INTER:                  -7.763
REMARK INTRA:                  -0.535
REMARK UNBOUND:                -0.535
REMARK  3 active torsions:
REMARK  status: ('A' for Active; 'I' for Inactive)
REMARK    1  A    between atoms: C_4  and  N_8 
REMARK    2  A    between atoms: C_11  and  C_13 
REMARK       I    between atoms: C_13  and  N_15 
REMARK       I    between atoms: N_18  and  C_21 
REMARK    3  A    between atoms: C_21  and  C_23 
ROOT
ATOM      1  C   UNK d   1       0.685 -16.553 -36.556  0.00  0.00     0.275 C 
ATOM      2  O   UNK d   1       0.643 -16.695 -35.284  0.00  0.00    -0.266 OA
ATOM      3  N   UNK d   1       0.347 -15.335 -37.146  0.00  0.00    -0.344 N 
ATOM      4  C   UNK d   1      -0.057 -14.231 -36.319  0.00  0.00     0.146 C 
ATOM      5  C   UNK d   1       0.988 -13.155 -36.419  0.00  0.00     0.145 C 
ATOM      6  N   UNK d   1       1.360 -12.976 -37.793  0.00  0.00    -0.349 N 
ATOM      7  C   UNK d   1       0.433 -13.557 -38.784  0.00  0.00     0.145 C 
ATOM      8  C   UNK d   1       0.362 -15.063 -38.566  0.00  0.00     0.146 C 
ATOM      9  C   UNK d   1       2.489 -12.328 -38.297  0.00  0.00     0.224 C 
ATOM     10  O   UNK d   1       2.559 -12.280 -39.592  0.00  0.00    -0.273 OA
ENDROOT
BRANCH   1  11
ATOM     11  C   UNK d   1       1.109 -17.758 -37.308  0.00  0.00     0.166 A 
ATOM     12  N   UNK d   1       0.326 -18.702 -37.849  0.00  0.00    -0.125 NA
ATOM     13  N   UNK d   1       1.079 -19.607 -38.432  0.00  0.00    -0.060 NA
ATOM     14  N   UNK d   1       2.373 -19.297 -38.297  0.00  0.00    -0.224 N 
ATOM     15  C   UNK d   1       2.394 -18.149 -37.600  0.00  0.00     0.159 A 
BRANCH  14  16
ATOM     16  C   UNK d   1       3.467 -20.044 -38.800  0.00  0.00     0.060 A 
ATOM     17  C   UNK d   1       3.317 -20.843 -39.908  0.00  0.00     0.050 A 
ATOM     18  C   UNK d   1       4.412 -21.575 -40.390  0.00  0.00     0.013 A 
ATOM     19 Br   UNK d   1       4.222 -22.688 -41.926  0.00  0.00    -0.051 Br
ATOM     20  C   UNK d   1       5.632 -21.503 -39.771  0.00  0.00     0.019 A 
ATOM     21  C   UNK d   1       5.791 -20.707 -38.663  0.00  0.00     0.004 A 
ATOM     22  C   UNK d   1       4.692 -19.980 -38.189  0.00  0.00     0.032 A 
ENDBRANCH  14  16
ENDBRANCH   1  11
BRANCH   9  23
ATOM     23  C   UNK d   1       3.604 -11.695 -37.604  0.00  0.00     0.078 A 
ATOM     24  C   UNK d   1       4.683 -10.964 -38.268  0.00  0.00     0.015 A 
ATOM     25  C   UNK d   1       3.711 -10.239 -37.343  0.00  0.00     0.015 A 
ENDBRANCH   9  23
TORSDOF 3
ENDMDL
