/Users/jonathanwahrer/Desktop/Msc/3_Semester/Drug_Design_Praktikum/waehrer_HTS_screening/HTS_experiment/out/docking_results/vina_output/6y4q/1523_docked.pdbqt
 OpenBabel03232218293D

 25 28  0  0  0  0  0  0  0  0999 V2000
    0.6850  -16.5530  -36.5560 C   0  0  0  0  0  0  0  0  0  0  0  0
    0.6430  -16.6950  -35.2840 O   0  0  0  0  0  0  0  0  0  0  0  0
    0.3470  -15.3350  -37.1460 N   0  0  0  0  0  0  0  0  0  0  0  0
   -0.0570  -14.2310  -36.3190 C   0  0  0  0  0  2  0  0  0  0  0  0
    0.9880  -13.1550  -36.4190 C   0  0  0  0  0  2  0  0  0  0  0  0
    1.3600  -12.9760  -37.7930 N   0  0  0  0  0  0  0  0  0  0  0  0
    0.4330  -13.5570  -38.7840 C   0  0  0  0  0  2  0  0  0  0  0  0
    0.3620  -15.0630  -38.5660 C   0  0  0  0  0  2  0  0  0  0  0  0
    2.4890  -12.3280  -38.2970 C   0  0  0  0  0  0  0  0  0  0  0  0
    2.5590  -12.2800  -39.5920 O   0  0  0  0  0  0  0  0  0  0  0  0
    1.1090  -17.7580  -37.3080 C   0  0  0  0  0  0  0  0  0  0  0  0
    0.3260  -18.7020  -37.8490 N   0  0  0  0  0  0  0  0  0  0  0  0
    1.0790  -19.6070  -38.4320 N   0  0  0  0  0  0  0  0  0  0  0  0
    2.3730  -19.2970  -38.2970 N   0  0  0  0  0  0  0  0  0  0  0  0
    2.3940  -18.1490  -37.6000 C   0  0  0  0  0  3  0  0  0  0  0  0
    3.4670  -20.0440  -38.8000 C   0  0  0  0  0  0  0  0  0  0  0  0
    3.3170  -20.8430  -39.9080 C   0  0  0  0  0  3  0  0  0  0  0  0
    4.4120  -21.5750  -40.3900 C   0  0  0  0  0  0  0  0  0  0  0  0
    4.2220  -22.6880  -41.9260 Br  0  0  0  0  0  0  0  0  0  0  0  0
    5.6320  -21.5030  -39.7710 C   0  0  0  0  0  3  0  0  0  0  0  0
    5.7910  -20.7070  -38.6630 C   0  0  0  0  0  3  0  0  0  0  0  0
    4.6920  -19.9800  -38.1890 C   0  0  0  0  0  3  0  0  0  0  0  0
    3.6040  -11.6950  -37.6040 C   0  0  0  0  0  3  0  0  0  0  0  0
    4.6830  -10.9640  -38.2680 C   0  0  0  0  0  2  0  0  0  0  0  0
    3.7110  -10.2390  -37.3430 C   0  0  0  0  0  2  0  0  0  0  0  0
  1  2  2  0  0  0  0
  3  1  1  0  0  0  0
  3  4  1  0  0  0  0
  5  4  1  0  0  0  0
  6  5  1  0  0  0  0
  7  8  1  0  0  0  0
  7  6  1  0  0  0  0
  8  3  1  0  0  0  0
  9  6  1  0  0  0  0
  9 23  1  0  0  0  0
 10  9  2  0  0  0  0
 11  1  1  0  0  0  0
 12 11  1  0  0  0  0
 13 14  1  0  0  0  0
 13 12  2  0  0  0  0
 14 15  1  0  0  0  0
 15 11  2  0  0  0  0
 16 14  1  0  0  0  0
 16 22  1  0  0  0  0
 17 16  2  0  0  0  0
 18 17  1  0  0  0  0
 18 20  2  0  0  0  0
 19 18  1  0  0  0  0
 20 21  1  0  0  0  0
 21 22  2  0  0  0  0
 23 25  1  0  0  0  0
 24 23  1  0  0  0  0
 24 25  1  0  0  0  0
M  END
>  <Pose>
1

>  <Score>
-6.605

$$$$
