MODEL 1
REMARK VINA RESULT:    -6.397      0.000      0.000
REMARK INTER + INTRA:          -8.355
REMARK INTER:                  -7.519
REMARK INTRA:                  -0.836
REMARK UNBOUND:                -0.836
REMARK  3 active torsions:
REMARK  status: ('A' for Active; 'I' for Inactive)
REMARK    1  A    between atoms: C_4  and  N_8 
REMARK    2  A    between atoms: C_11  and  N_15 
REMARK    3  A    between atoms: N_18  and  C_21 
ROOT
ATOM      1  N   UNK d   1       2.360 -18.324 -37.495  0.00  0.00    -0.251 N 
ATOM      2  C   UNK d   1       2.102 -19.139 -38.632  0.00  0.00     0.254 C 
ATOM      3  O   UNK d   1       1.040 -19.081 -39.297  0.00  0.00    -0.270 OA
ATOM      4  C   UNK d   1       3.274 -19.986 -38.819  0.00  0.00     0.181 C 
ATOM      5  C   UNK d   1       3.805 -20.152 -37.411  0.00  0.00     0.138 C 
ATOM      6  C   UNK d   1       3.354 -18.955 -36.678  0.00  0.00     0.233 C 
ATOM      7  O   UNK d   1       3.749 -18.548 -35.553  0.00  0.00    -0.273 OA
ENDROOT
BRANCH   4   8
ATOM      8  N   UNK d   1       4.248 -19.526 -39.725  0.00  0.00    -0.397 N 
ATOM      9  C   UNK d   1       3.812 -18.881 -40.897  0.00  0.00     0.138 C 
ATOM     10  C   UNK d   1       3.792 -19.905 -42.041  0.00  0.00     0.161 C 
ATOM     11  N   UNK d   1       4.590 -21.065 -41.676  0.00  0.00    -0.211 N 
ATOM     12  C   UNK d   1       5.798 -20.948 -40.884  0.00  0.00     0.161 C 
ATOM     13  C   UNK d   1       5.546 -20.037 -39.705  0.00  0.00     0.138 C 
BRANCH  11  14
ATOM     14  C   UNK d   1       4.196 -22.385 -42.074  0.00  0.00     0.724 A 
ATOM     15  N   UNK d   1       2.957 -22.851 -41.808  0.00  0.00    -0.075 NA
ATOM     16  C   UNK d   1       2.588 -24.086 -42.199  0.00  0.00     0.138 A 
ATOM     17  C   UNK d   1       3.461 -24.921 -42.887  0.00  0.00     0.040 A 
ATOM     18  C   UNK d   1       4.728 -24.437 -43.157  0.00  0.00     0.138 A 
ATOM     19  N   UNK d   1       5.037 -23.196 -42.740  0.00  0.00    -0.075 NA
ENDBRANCH  11  14
ENDBRANCH   4   8
BRANCH   1  20
ATOM     20  C   UNK d   1       1.718 -17.074 -37.242  0.00  0.00     0.046 A 
ATOM     21  C   UNK d   1       1.986 -15.927 -37.959  0.00  0.00     0.049 A 
ATOM     22  C   UNK d   1       1.331 -14.732 -37.675  0.00  0.00     0.013 A 
ATOM     23 Br   UNK d   1       1.694 -13.143 -38.659  0.00  0.00    -0.051 Br
ATOM     24  C   UNK d   1       0.394 -14.666 -36.667  0.00  0.00     0.019 A 
ATOM     25  C   UNK d   1       0.113 -15.797 -35.940  0.00  0.00     0.004 A 
ATOM     26  C   UNK d   1       0.767 -16.963 -36.234  0.00  0.00     0.030 A 
ENDBRANCH   1  20
TORSDOF 3
ENDMDL
