MODEL 1
REMARK VINA RESULT:    -7.556      0.000      0.000
REMARK INTER + INTRA:          -9.849
REMARK INTER:                  -9.323
REMARK INTRA:                  -0.526
REMARK UNBOUND:                -0.526
REMARK  4 active torsions:
REMARK  status: ('A' for Active; 'I' for Inactive)
REMARK    1  A    between atoms: C_6  and  C_8 
REMARK    2  A    between atoms: C_10  and  N_11 
REMARK    3  A    between atoms: C_14  and  C_16 
REMARK    4  A    between atoms: C_19  and  O_22 
ROOT
ATOM      1  N   UNK d   1       0.859 -16.518 -36.692  0.00  0.00    -0.338 N 
ATOM      2  C   UNK d   1      -0.121 -17.286 -37.265  0.00  0.00     0.086 A 
ATOM      3  N   UNK d   1       0.503 -18.296 -37.875  0.00  0.00    -0.335 N 
ATOM      4  C   UNK d   1       1.837 -18.230 -37.732  0.00  0.00     0.061 A 
ATOM      5  C   UNK d   1       2.060 -17.093 -36.976  0.00  0.00     0.123 A 
ATOM      6  C   UNK d   1      -0.467 -19.174 -38.521  0.00  0.00     0.131 A 
ATOM      7  C   UNK d   1      -1.797 -18.509 -38.321  0.00  0.00     0.028 A 
ATOM      8  C   UNK d   1      -1.595 -17.348 -37.414  0.00  0.00     0.078 A 
ENDROOT
BRANCH   1   9
ATOM      9  C   UNK d   1       0.658 -15.354 -35.898  0.00  0.00     0.198 C 
ATOM     10  C   UNK d   1       1.139 -14.059 -36.318  0.00  0.00     0.113 C 
ATOM     11  O   UNK d   1       0.862 -13.079 -35.480  0.00  0.00    -0.194 OA
BRANCH  10  12
ATOM     12  C   UNK d   1       1.866 -13.640 -37.486  0.00  0.00    -0.000 A 
ATOM     13  C   UNK d   1       1.796 -14.187 -38.731  0.00  0.00     0.016 A 
ATOM     14  C   UNK d   1       2.529 -13.732 -39.837  0.00  0.00     0.026 A 
ATOM     15  C   UNK d   1       3.385 -12.668 -39.691  0.00  0.00     0.055 A 
ATOM     16  C   UNK d   1       3.485 -12.085 -38.449  0.00  0.00     0.056 A 
ATOM     17 Cl   UNK d   1       4.302 -12.096 -41.066  0.00  0.00    -0.083 Cl
ATOM     18 Cl   UNK d   1       4.565 -10.732 -38.245  0.00  0.00    -0.083 Cl
ATOM     19  C   UNK d   1       2.763 -12.546 -37.398  0.00  0.00     0.039 A 
ENDBRANCH  10  12
ENDBRANCH   1   9
BRANCH   4  20
ATOM     20  C   UNK d   1       2.871 -19.131 -38.241  0.00  0.00    -0.008 A 
ATOM     21  C   UNK d   1       3.319 -20.253 -37.591  0.00  0.00     0.016 A 
ATOM     22  C   UNK d   1       4.315 -21.070 -38.145  0.00  0.00     0.037 A 
ATOM     23  C   UNK d   1       4.893 -20.789 -39.363  0.00  0.00     0.068 A 
ATOM     24  C   UNK d   1       4.450 -19.663 -40.023  0.00  0.00     0.037 A 
ATOM     25  C   UNK d   1       3.470 -18.861 -39.476  0.00  0.00     0.016 A 
BRANCH  23  26
ATOM     26  O   UNK d   1       5.880 -21.588 -39.922  0.00  0.00    -0.356 OA
ATOM     27  C   UNK d   1       5.903 -21.830 -41.318  0.00  0.00     0.210 C 
ENDBRANCH  23  26
ENDBRANCH   4  20
TORSDOF 4
ENDMDL
