/Users/jonathanwahrer/Desktop/Msc/3_Semester/Drug_Design_Praktikum/waehrer_HTS_screening/HTS_experiment/out/docking_results/vina_output/6y4q/1531_docked.pdbqt
 OpenBabel03232218293D

 27 30  0  0  0  0  0  0  0  0999 V2000
    0.8590  -16.5180  -36.6920 N   0  0  0  0  0  0  0  0  0  0  0  0
   -0.1210  -17.2860  -37.2650 C   0  0  0  0  0  0  0  0  0  0  0  0
    0.5030  -18.2960  -37.8750 N   0  0  0  0  0  0  0  0  0  0  0  0
    1.8370  -18.2300  -37.7320 C   0  0  0  0  0  0  0  0  0  0  0  0
    2.0600  -17.0930  -36.9760 C   0  0  0  0  0  3  0  0  0  0  0  0
   -0.4670  -19.1740  -38.5210 C   0  0  0  0  0  3  0  0  0  0  0  0
   -1.7970  -18.5090  -38.3210 C   0  0  0  0  0  3  0  0  0  0  0  0
   -1.5950  -17.3480  -37.4140 C   0  0  0  0  0  3  0  0  0  0  0  0
    0.6580  -15.3540  -35.8980 C   0  0  0  0  0  3  0  0  0  0  0  0
    1.1390  -14.0590  -36.3180 C   0  0  0  0  0  0  0  0  0  0  0  0
    0.8620  -13.0790  -35.4800 O   0  0  0  0  0  1  0  0  0  0  0  0
    1.8660  -13.6400  -37.4860 C   0  0  0  0  0  0  0  0  0  0  0  0
    1.7960  -14.1870  -38.7310 C   0  0  0  0  0  3  0  0  0  0  0  0
    2.5290  -13.7320  -39.8370 C   0  0  0  0  0  3  0  0  0  0  0  0
    3.3850  -12.6680  -39.6910 C   0  0  0  0  0  0  0  0  0  0  0  0
    3.4850  -12.0850  -38.4490 C   0  0  0  0  0  0  0  0  0  0  0  0
    4.3020  -12.0960  -41.0660 Cl  0  0  0  0  0  0  0  0  0  0  0  0
    4.5650  -10.7320  -38.2450 Cl  0  0  0  0  0  0  0  0  0  0  0  0
    2.7630  -12.5460  -37.3980 C   0  0  0  0  0  3  0  0  0  0  0  0
    2.8710  -19.1310  -38.2410 C   0  0  0  0  0  0  0  0  0  0  0  0
    3.3190  -20.2530  -37.5910 C   0  0  0  0  0  3  0  0  0  0  0  0
    4.3150  -21.0700  -38.1450 C   0  0  0  0  0  3  0  0  0  0  0  0
    4.8930  -20.7890  -39.3630 C   0  0  0  0  0  0  0  0  0  0  0  0
    4.4500  -19.6630  -40.0230 C   0  0  0  0  0  3  0  0  0  0  0  0
    3.4700  -18.8610  -39.4760 C   0  0  0  0  0  3  0  0  0  0  0  0
    5.8800  -21.5880  -39.9220 O   0  0  0  0  0  0  0  0  0  0  0  0
    5.9030  -21.8300  -41.3180 C   0  0  0  0  0  1  0  0  0  0  0  0
  1  9  1  0  0  0  0
  2  1  1  0  0  0  0
  3  4  1  0  0  0  0
  3  2  1  0  0  0  0
  4  5  2  0  0  0  0
  5  1  1  0  0  0  0
  6  7  2  0  0  0  0
  6  3  1  0  0  0  0
  7  8  1  0  0  0  0
  8  2  2  0  0  0  0
 10  9  2  0  0  0  0
 10 11  1  0  0  0  0
 12 19  1  0  0  0  0
 12 10  1  0  0  0  0
 13 12  2  0  0  0  0
 14 15  2  0  0  0  0
 14 13  1  0  0  0  0
 15 16  1  0  0  0  0
 16 18  1  0  0  0  0
 16 19  2  0  0  0  0
 17 15  1  0  0  0  0
 20  4  1  0  0  0  0
 20 21  1  0  0  0  0
 22 21  2  0  0  0  0
 23 22  1  0  0  0  0
 24 25  1  0  0  0  0
 24 23  2  0  0  0  0
 25 20  2  0  0  0  0
 26 23  1  0  0  0  0
 27 26  1  0  0  0  0
M  END
>  <Pose>
1

>  <Score>
-7.556

$$$$
