MODEL 1
REMARK VINA RESULT:    -8.158      0.000      0.000
REMARK INTER + INTRA:         -10.467
REMARK INTER:                 -10.065
REMARK INTRA:                  -0.402
REMARK UNBOUND:                -0.402
REMARK  4 active torsions:
REMARK  status: ('A' for Active; 'I' for Inactive)
REMARK    1  A    between atoms: C_6  and  C_8 
REMARK    2  A    between atoms: N_11  and  C_13 
REMARK    3  A    between atoms: C_14  and  C_16 
REMARK    4  A    between atoms: C_18  and  N_22 
ROOT
ATOM      1  C   UNK d   1       1.830 -18.112 -37.581  0.00  0.00     0.061 A 
ATOM      2  N   UNK d   1       0.492 -18.181 -37.803  0.00  0.00    -0.335 N 
ATOM      3  C   UNK d   1      -0.105 -17.123 -37.247  0.00  0.00     0.086 A 
ATOM      4  N   UNK d   1       0.828 -16.324 -36.644  0.00  0.00    -0.338 N 
ATOM      5  C   UNK d   1       2.002 -16.941 -36.856  0.00  0.00     0.123 A 
ATOM      6  C   UNK d   1      -1.570 -17.168 -37.457  0.00  0.00     0.078 C 
ATOM      7  C   UNK d   1      -1.676 -18.075 -38.652  0.00  0.00     0.028 C 
ATOM      8  C   UNK d   1      -0.514 -19.021 -38.456  0.00  0.00     0.131 C 
ENDROOT
BRANCH   4   9
ATOM      9  C   UNK d   1       0.581 -15.122 -35.902  0.00  0.00     0.198 C 
ATOM     10  C   UNK d   1       1.086 -13.841 -36.314  0.00  0.00     0.113 C 
ATOM     11  O   UNK d   1       0.735 -12.854 -35.495  0.00  0.00    -0.194 OA
BRANCH  10  12
ATOM     12  C   UNK d   1       1.890 -13.387 -37.420  0.00  0.00     0.000 A 
ATOM     13  C   UNK d   1       2.790 -12.313 -37.238  0.00  0.00     0.050 A 
ATOM     14  C   UNK d   1       3.596 -11.813 -38.227  0.00  0.00     0.103 A 
ATOM     15  C   UNK d   1       3.502 -12.416 -39.465  0.00  0.00     0.036 A 
ATOM     16  C   UNK d   1       2.633 -13.465 -39.668  0.00  0.00     0.003 A 
ATOM     17  C   UNK d   1       1.814 -13.969 -38.656  0.00  0.00     0.014 A 
BRANCH  14  18
ATOM     18  N   UNK d   1       4.491 -10.735 -38.023  0.00  0.00    -0.116 N 
ATOM     19  O   UNK d   1       5.422 -10.564 -38.817  0.00  0.00    -0.532 OA
ATOM     20  O   UNK d   1       4.355  -9.875 -36.972  0.00  0.00    -0.532 OA
ENDBRANCH  14  18
ENDBRANCH  10  12
ENDBRANCH   4   9
BRANCH   1  21
ATOM     21  C   UNK d   1       2.905 -19.019 -37.983  0.00  0.00    -0.006 A 
ATOM     22  C   UNK d   1       2.588 -20.110 -38.761  0.00  0.00     0.015 A 
ATOM     23  C   UNK d   1       3.568 -21.008 -39.193  0.00  0.00     0.026 A 
ATOM     24  C   UNK d   1       4.878 -20.793 -38.831  0.00  0.00     0.055 A 
ATOM     25  C   UNK d   1       5.198 -19.714 -38.060  0.00  0.00     0.056 A 
ATOM     26 Cl   UNK d   1       6.100 -21.938 -39.387  0.00  0.00    -0.083 Cl
ATOM     27 Cl   UNK d   1       6.875 -19.472 -37.618  0.00  0.00    -0.083 Cl
ATOM     28  C   UNK d   1       4.211 -18.829 -37.638  0.00  0.00     0.039 A 
ENDBRANCH   1  21
TORSDOF 4
ENDMDL
