/Users/jonathanwahrer/Desktop/Msc/3_Semester/Drug_Design_Praktikum/waehrer_HTS_screening/HTS_experiment/out/docking_results/vina_output/6y4q/1535_docked.pdbqt
 OpenBabel03232218303D

 28 31  0  0  1  0  0  0  0  0999 V2000
    1.4090  -18.5330  -37.9470 C   0  0  0  0  0  0  0  0  0  0  0  0
    0.1450  -18.5340  -37.4950 N   0  0  0  0  0  0  0  0  0  0  0  0
   -0.0790  -17.4100  -36.7820 C   0  0  2  0  0  3  0  0  0  0  0  0
    1.0540  -16.6860  -36.7820 N   0  0  0  0  0  0  0  0  0  0  0  0
    2.0080  -17.3470  -37.4960 C   0  0  0  0  0  3  0  0  0  0  0  0
   -1.4680  -17.4050  -36.2670 C   0  0  0  0  0  2  0  0  0  0  0  0
   -2.1420  -18.2100  -37.3480 C   0  0  0  0  0  2  0  0  0  0  0  0
   -1.0930  -19.3230  -37.5120 C   0  0  0  0  0  2  0  0  0  0  0  0
    1.2550  -15.4530  -36.1140 C   0  0  0  0  0  2  0  0  0  0  0  0
    1.1890  -14.1780  -36.7690 C   0  0  2  0  0  3  0  0  0  0  0  0
    0.1250  -13.4930  -36.4010 O   0  0  0  0  0  1  0  0  0  0  0  0
    2.0430  -13.5230  -37.7310 C   0  0  0  0  0  0  0  0  0  0  0  0
    2.8570  -12.4560  -37.4620 C   0  0  0  0  0  3  0  0  0  0  0  0
    3.6600  -11.8720  -38.4460 C   0  0  0  0  0  0  0  0  0  0  0  0
    3.6480  -12.3590  -39.7140 C   0  0  0  0  0  3  0  0  0  0  0  0
    2.8380  -13.4330  -40.0120 C   0  0  0  0  0  3  0  0  0  0  0  0
    2.0490  -14.0120  -39.0570 C   0  0  0  0  0  3  0  0  0  0  0  0
    4.4880  -10.7600  -38.1000 N   0  0  0  0  0  0  0  0  0  0  0  0
    5.3510  -10.3670  -38.9040 O   0  0  0  0  0  0  0  0  0  0  0  0
    4.3630  -10.1140  -36.9120 O   0  0  0  0  0  0  0  0  0  0  0  0
    2.1320  -19.5140  -38.7580 C   0  0  0  0  0  0  0  0  0  0  0  0
    1.6570  -19.8680  -40.0250 C   0  0  0  0  0  3  0  0  0  0  0  0
    2.3030  -20.7660  -40.8340 C   0  0  0  0  0  3  0  0  0  0  0  0
    3.4680  -21.3670  -40.4220 C   0  0  0  0  0  0  0  0  0  0  0  0
    3.9610  -21.0420  -39.1870 C   0  0  0  0  0  0  0  0  0  0  0  0
    4.2850  -22.5120  -41.4630 Cl  0  0  0  0  0  0  0  0  0  0  0  0
    5.4290  -21.7600  -38.6010 Cl  0  0  0  0  0  0  0  0  0  0  0  0
    3.2830  -20.1160  -38.3710 C   0  0  0  0  0  3  0  0  0  0  0  0
  1  5  2  0  0  0  0
  1  2  1  0  0  0  0
  2  3  1  0  0  0  0
  3  6  1  1  0  0  0
  4  3  1  0  0  0  0
  4  9  1  0  0  0  0
  5  4  1  0  0  0  0
  7  6  1  0  0  0  0
  8  2  1  0  0  0  0
  8  7  1  0  0  0  0
 10 11  1  6  0  0  0
 10  9  1  0  0  0  0
 12 13  1  0  0  0  0
 12 10  1  0  0  0  0
 14 18  1  0  0  0  0
 14 13  2  0  0  0  0
 15 14  1  0  0  0  0
 16 15  2  0  0  0  0
 16 17  1  0  0  0  0
 17 12  2  0  0  0  0
 18 20  2  0  0  0  0
 19 18  2  0  0  0  0
 21 28  1  0  0  0  0
 21  1  1  0  0  0  0
 22 21  2  0  0  0  0
 23 24  2  0  0  0  0
 23 22  1  0  0  0  0
 24 25  1  0  0  0  0
 25 27  1  0  0  0  0
 25 28  2  0  0  0  0
 26 24  1  0  0  0  0
M  END
>  <Pose>
1

>  <Score>
-7.425

$$$$
