MODEL 1
REMARK VINA RESULT:    -7.425      0.000      0.000
REMARK INTER + INTRA:         -10.434
REMARK INTER:                  -9.596
REMARK INTRA:                  -0.838
REMARK UNBOUND:                -0.838
REMARK  5 active torsions:
REMARK  status: ('A' for Active; 'I' for Inactive)
REMARK    1  A    between atoms: C_6  and  C_8 
REMARK    2  A    between atoms: N_11  and  C_13 
REMARK    3  A    between atoms: C_13  and  C_14 
REMARK    4  A    between atoms: C_14  and  C_16 
REMARK    5  A    between atoms: C_18  and  N_22 
ROOT
ATOM      1  C   UNK d   1       1.409 -18.533 -37.947  0.00  0.00     0.061 A 
ATOM      2  N   UNK d   1       0.145 -18.534 -37.495  0.00  0.00    -0.335 N 
ATOM      3  C   UNK d   1      -0.079 -17.410 -36.782  0.00  0.00     0.086 A 
ATOM      4  N   UNK d   1       1.054 -16.686 -36.782  0.00  0.00    -0.338 N 
ATOM      5  C   UNK d   1       2.008 -17.347 -37.496  0.00  0.00     0.123 A 
ATOM      6  C   UNK d   1      -1.468 -17.405 -36.267  0.00  0.00     0.078 C 
ATOM      7  C   UNK d   1      -2.142 -18.210 -37.348  0.00  0.00     0.028 C 
ATOM      8  C   UNK d   1      -1.093 -19.323 -37.512  0.00  0.00     0.131 C 
ENDROOT
BRANCH   4   9
ATOM      9  C   UNK d   1       1.255 -15.453 -36.114  0.00  0.00     0.198 C 
BRANCH   9  10
ATOM     10  C   UNK d   1       1.189 -14.178 -36.769  0.00  0.00     0.113 C 
ATOM     11  O   UNK d   1       0.125 -13.493 -36.401  0.00  0.00    -0.194 OA
BRANCH  10  12
ATOM     12  C   UNK d   1       2.043 -13.523 -37.731  0.00  0.00     0.000 A 
ATOM     13  C   UNK d   1       2.857 -12.456 -37.462  0.00  0.00     0.050 A 
ATOM     14  C   UNK d   1       3.660 -11.872 -38.446  0.00  0.00     0.103 A 
ATOM     15  C   UNK d   1       3.648 -12.359 -39.714  0.00  0.00     0.036 A 
ATOM     16  C   UNK d   1       2.838 -13.433 -40.012  0.00  0.00     0.003 A 
ATOM     17  C   UNK d   1       2.049 -14.012 -39.057  0.00  0.00     0.014 A 
BRANCH  14  18
ATOM     18  N   UNK d   1       4.488 -10.760 -38.100  0.00  0.00    -0.116 N 
ATOM     19  O   UNK d   1       5.351 -10.367 -38.904  0.00  0.00    -0.532 OA
ATOM     20  O   UNK d   1       4.363 -10.114 -36.912  0.00  0.00    -0.532 OA
ENDBRANCH  14  18
ENDBRANCH  10  12
ENDBRANCH   9  10
ENDBRANCH   4   9
BRANCH   1  21
ATOM     21  C   UNK d   1       2.132 -19.514 -38.758  0.00  0.00    -0.006 A 
ATOM     22  C   UNK d   1       1.657 -19.868 -40.025  0.00  0.00     0.015 A 
ATOM     23  C   UNK d   1       2.303 -20.766 -40.834  0.00  0.00     0.026 A 
ATOM     24  C   UNK d   1       3.468 -21.367 -40.422  0.00  0.00     0.055 A 
ATOM     25  C   UNK d   1       3.961 -21.042 -39.187  0.00  0.00     0.056 A 
ATOM     26 Cl   UNK d   1       4.285 -22.512 -41.463  0.00  0.00    -0.083 Cl
ATOM     27 Cl   UNK d   1       5.429 -21.760 -38.601  0.00  0.00    -0.083 Cl
ATOM     28  C   UNK d   1       3.283 -20.116 -38.371  0.00  0.00     0.039 A 
ENDBRANCH   1  21
TORSDOF 5
ENDMDL
