MODEL 1
REMARK VINA RESULT:    -7.275      0.000      0.000
REMARK INTER + INTRA:          -9.304
REMARK INTER:                  -8.551
REMARK INTRA:                  -0.753
REMARK UNBOUND:                -0.753
REMARK  3 active torsions:
REMARK  status: ('A' for Active; 'I' for Inactive)
REMARK    1  A    between atoms: S_1  and  N_4 
REMARK    2  A    between atoms: S_1  and  C_19 
REMARK    3  A    between atoms: C_7  and  C_10 
REMARK       I    between atoms: C_10  and  N_12 
ROOT
ATOM      1  S   UNK d   1       1.209 -16.205 -38.874  0.00  0.00     0.262 S 
ATOM      2  O   UNK d   1      -0.269 -16.003 -39.224  0.00  0.00    -0.200 OA
ATOM      3  O   UNK d   1       1.841 -16.549 -40.225  0.00  0.00    -0.200 OA
ENDROOT
BRANCH   1   4
ATOM      4  N   UNK d   1       1.330 -17.500 -37.855  0.00  0.00    -0.307 N 
ATOM      5  C   UNK d   1       2.386 -17.714 -36.976  0.00  0.00     0.136 C 
ATOM      6  C   UNK d   1       3.520 -18.548 -37.479  0.00  0.00     0.034 C 
ATOM      7  C   UNK d   1       3.022 -19.427 -38.624  0.00  0.00     0.081 C 
ATOM      8  C   UNK d   1       1.646 -19.909 -38.135  0.00  0.00     0.034 C 
ATOM      9  C   UNK d   1       0.715 -18.726 -38.350  0.00  0.00     0.136 C 
BRANCH   7  10
ATOM     10  C   UNK d   1       3.919 -20.536 -38.899  0.00  0.00     0.224 C 
ATOM     11  O   UNK d   1       4.152 -21.385 -38.000  0.00  0.00    -0.273 OA
ATOM     12  N   UNK d   1       4.535 -20.689 -40.146  0.00  0.00    -0.348 N 
ATOM     13  C   UNK d   1       5.415 -21.818 -40.469  0.00  0.00     0.156 C 
ATOM     14  C   UNK d   1       4.354 -19.720 -41.190  0.00  0.00     0.156 C 
ATOM     15  C   UNK d   1       6.031 -21.505 -41.817  0.00  0.00     0.291 C 
ATOM     16  N   UNK d   1       5.001 -21.418 -42.834  0.00  0.00     0.087 N 
ATOM     17  C   UNK d   1       4.036 -20.379 -42.521  0.00  0.00     0.291 C 
ATOM     18  C   UNK d   1       5.579 -21.203 -44.142  0.00  0.00     0.310 C 
ENDBRANCH   7  10
ENDBRANCH   1   4
BRANCH   1  19
ATOM     19  C   UNK d   1       1.774 -14.652 -38.329  0.00  0.00     0.104 A 
ATOM     20  C   UNK d   1       2.592 -13.885 -39.176  0.00  0.00     0.066 A 
ATOM     21  C   UNK d   1       3.116 -12.676 -38.799  0.00  0.00     0.097 A 
ATOM     22  C   UNK d   1       2.846 -12.183 -37.560  0.00  0.00     0.070 A 
ATOM     23  O   UNK d   1       3.928 -11.940 -39.671  0.00  0.00    -0.340 OA
ATOM     24  C   UNK d   1       2.053 -12.887 -36.689  0.00  0.00     0.058 A 
ATOM     25  N   UNK d   1       3.409 -10.915 -37.179  0.00  0.00    -0.323 N 
ATOM     26  C   UNK d   1       1.530 -14.115 -37.099  0.00  0.00     0.059 A 
ATOM     27 Cl   UNK d   1       0.459 -14.935 -35.976  0.00  0.00    -0.083 Cl
ATOM     28  C   UNK d   1       4.229 -10.212 -38.096  0.00  0.00     0.246 C 
ATOM     29  H   UNK d   1       3.207 -10.530 -36.235  0.00  0.00     0.169 HD
ATOM     30  O   UNK d   1       4.429  -8.984 -37.990  0.00  0.00    -0.271 OA
ATOM     31  C   UNK d   1       4.848 -10.992 -39.200  0.00  0.00     0.278 C 
ENDBRANCH   1  19
TORSDOF 3
ENDMDL
