/Users/jonathanwahrer/Desktop/Msc/3_Semester/Drug_Design_Praktikum/waehrer_HTS_screening/HTS_experiment/out/docking_results/vina_output/6y4q/1548_docked.pdbqt
 OpenBabel03232218313D

 24 27  0  0  1  0  0  0  0  0999 V2000
   -2.4490  -13.3010  -36.8430 Cl  0  0  0  0  0  0  0  0  0  0  0  0
   -1.0310  -14.3390  -36.8160 C   0  0  0  0  0  0  0  0  0  0  0  0
   -1.0640  -15.6380  -37.2730 C   0  0  0  0  0  2  0  0  0  0  0  0
    0.0390  -16.4420  -37.2500 N   0  0  0  0  0  0  0  0  0  0  0  0
    1.2190  -16.0010  -36.7790 C   0  0  0  0  0  0  0  0  0  0  0  0
    2.3170  -16.7980  -36.7550 N   0  0  0  0  0  0  0  0  0  0  0  0
    2.2770  -18.0710  -37.2050 C   0  0  0  0  0  0  0  0  0  0  0  0
    1.0950  -18.5510  -37.6900 C   0  0  2  0  0  3  0  0  0  0  0  0
    0.9950  -19.9560  -38.2020 C   0  0  0  0  0  2  0  0  0  0  0  0
    2.3530  -20.2860  -38.6660 N   0  0  0  0  0  0  0  0  0  0  0  0
    3.3450  -20.2580  -37.6290 C   0  0  0  0  0  2  0  0  0  0  0  0
    3.5470  -18.8400  -37.1250 C   0  0  0  0  0  2  0  0  0  0  0  0
    2.5240  -20.5800  -40.0150 C   0  0  0  0  0  0  0  0  0  0  0  0
    1.5000  -20.5550  -40.7820 O   0  0  0  0  0  0  0  0  0  0  0  0
   -0.0090  -17.7090  -37.7000 C   0  0  0  0  0  0  0  0  0  0  0  0
   -1.0920  -18.1390  -38.1420 O   0  0  0  0  0  0  0  0  0  0  0  0
    1.2620  -14.6940  -36.3170 C   0  0  0  0  0  3  0  0  0  0  0  0
    0.1650  -13.8590  -36.3270 C   0  0  0  0  0  3  0  0  0  0  0  0
    3.7950  -20.9240  -40.6650 C   0  0  0  0  0  0  0  0  0  0  0  0
    4.7870  -20.0400  -40.8100 N   0  0  0  0  0  0  0  0  0  0  0  0
    5.9400  -20.3620  -41.4030 C   0  0  0  0  0  3  0  0  0  0  0  0
    6.1740  -21.6270  -41.9010 C   0  0  0  0  0  3  0  0  0  0  0  0
    5.1650  -22.5030  -41.7460 N   0  0  0  0  0  0  0  0  0  0  0  0
    4.0050  -22.2070  -41.1590 C   0  0  0  0  0  3  0  0  0  0  0  0
  1  2  1  0  0  0  0
  2 18  2  0  0  0  0
  3  4  1  0  0  0  0
  3  2  1  0  0  0  0
  4  5  1  0  0  0  0
  5  6  1  0  0  0  0
  5 17  2  0  0  0  0
  7 12  1  0  0  0  0
  7  6  2  0  0  0  0
  8  9  1  6  0  0  0
  8  7  1  0  0  0  0
 10  9  1  0  0  0  0
 10 11  1  0  0  0  0
 11 12  1  0  0  0  0
 13 10  1  0  0  0  0
 14 13  2  0  0  0  0
 15  8  1  0  0  0  0
 15  4  1  0  0  0  0
 16 15  2  0  0  0  0
 18 17  1  0  0  0  0
 19 13  1  0  0  0  0
 20 19  1  0  0  0  0
 21 20  2  0  0  0  0
 22 23  2  0  0  0  0
 22 21  1  0  0  0  0
 23 24  1  0  0  0  0
 24 19  2  0  0  0  0
M  END
>  <Pose>
1

>  <Score>
-6.249

$$$$
