MODEL 1
REMARK VINA RESULT:    -6.249      0.000      0.000
REMARK INTER + INTRA:          -6.822
REMARK INTER:                  -6.614
REMARK INTRA:                  -0.208
REMARK UNBOUND:                -0.208
REMARK  1 active torsions:
REMARK  status: ('A' for Active; 'I' for Inactive)
REMARK       I    between atoms: N_10  and  C_13 
REMARK    1  A    between atoms: C_13  and  C_15 
ROOT
ATOM      1 Cl   UNK d   1      -2.449 -13.301 -36.843  0.00  0.00    -0.083 Cl
ATOM      2  C   UNK d   1      -1.031 -14.339 -36.816  0.00  0.00     0.050 A 
ATOM      3  C   UNK d   1      -1.064 -15.638 -37.273  0.00  0.00     0.125 A 
ATOM      4  N   UNK d   1       0.039 -16.442 -37.250  0.00  0.00    -0.271 N 
ATOM      5  C   UNK d   1       1.219 -16.001 -36.779  0.00  0.00     0.137 A 
ATOM      6  N   UNK d   1       2.317 -16.798 -36.755  0.00  0.00    -0.234 NA
ATOM      7  C   UNK d   1       2.277 -18.071 -37.205  0.00  0.00     0.051 A 
ATOM      8  C   UNK d   1       1.095 -18.551 -37.690  0.00  0.00     0.053 A 
ATOM      9  C   UNK d   1       0.995 -19.956 -38.202  0.00  0.00     0.172 C 
ATOM     10  N   UNK d   1       2.353 -20.286 -38.666  0.00  0.00    -0.342 N 
ATOM     11  C   UNK d   1       3.345 -20.258 -37.629  0.00  0.00     0.132 C 
ATOM     12  C   UNK d   1       3.547 -18.840 -37.125  0.00  0.00     0.080 C 
ATOM     13  C   UNK d   1       2.524 -20.580 -40.015  0.00  0.00     0.274 C 
ATOM     14  O   UNK d   1       1.500 -20.555 -40.782  0.00  0.00    -0.266 OA
ATOM     15  C   UNK d   1      -0.009 -17.709 -37.700  0.00  0.00     0.263 A 
ATOM     16  O   UNK d   1      -1.092 -18.139 -38.142  0.00  0.00    -0.267 OA
ATOM     17  C   UNK d   1       1.262 -14.694 -36.317  0.00  0.00     0.053 A 
ATOM     18  C   UNK d   1       0.165 -13.859 -36.327  0.00  0.00     0.029 A 
ENDROOT
BRANCH  13  19
ATOM     19  C   UNK d   1       3.795 -20.924 -40.665  0.00  0.00     0.141 A 
ATOM     20  N   UNK d   1       4.787 -20.040 -40.810  0.00  0.00    -0.253 NA
ATOM     21  C   UNK d   1       5.940 -20.362 -41.403  0.00  0.00     0.136 A 
ATOM     22  C   UNK d   1       6.174 -21.627 -41.901  0.00  0.00     0.135 A 
ATOM     23  N   UNK d   1       5.165 -22.503 -41.746  0.00  0.00    -0.269 NA
ATOM     24  C   UNK d   1       4.005 -22.207 -41.159  0.00  0.00     0.153 A 
ENDBRANCH  13  19
TORSDOF 1
ENDMDL
