MODEL 1
REMARK VINA RESULT:    -6.893      0.000      0.000
REMARK INTER + INTRA:          -8.507
REMARK INTER:                  -7.900
REMARK INTRA:                  -0.607
REMARK UNBOUND:                -0.607
REMARK  3 active torsions:
REMARK  status: ('A' for Active; 'I' for Inactive)
REMARK    1  A    between atoms: C_3  and  O_25 
REMARK    2  A    between atoms: C_4  and  C_9 
REMARK    3  A    between atoms: C_11  and  C_22 
ROOT
ATOM      1  C   UNK d   1       1.466 -18.061 -37.352  0.00  0.00     0.272 C 
ATOM      2  N   UNK d   1       0.238 -18.646 -37.738  0.00  0.00    -0.047 N 
ATOM      3  C   UNK d   1       0.280 -20.005 -38.192  0.00  0.00     0.291 C 
ATOM      4  C   UNK d   1       1.307 -20.121 -39.331  0.00  0.00     0.086 C 
ATOM      5  C   UNK d   1       2.593 -19.808 -38.679  0.00  0.00    -0.018 A 
ATOM      6  C   UNK d   1       3.857 -20.356 -38.830  0.00  0.00    -0.001 A 
ATOM      7  C   UNK d   1       4.681 -19.681 -37.957  0.00  0.00     0.043 A 
ATOM      8  N   UNK d   1       3.970 -18.757 -37.292  0.00  0.00    -0.356 N 
ATOM      9  C   UNK d   1       2.672 -18.831 -37.736  0.00  0.00     0.052 A 
ATOM     10  C   UNK d   1       6.014 -20.047 -37.915  0.00  0.00     0.030 A 
ATOM     11  C   UNK d   1       6.453 -21.055 -38.737  0.00  0.00     0.002 A 
ATOM     12  C   UNK d   1       5.627 -21.728 -39.608  0.00  0.00     0.001 A 
ATOM     13  C   UNK d   1       4.281 -21.370 -39.661  0.00  0.00     0.014 A 
ATOM     14  H   UNK d   1      -0.410 -18.625 -36.887  0.00  0.00     0.279 HD
ATOM     15  H   UNK d   1      -0.286 -18.105 -38.471  0.00  0.00     0.279 HD
ATOM     16  H   UNK d   1       4.291 -18.074 -36.558  0.00  0.00     0.166 HD
ENDROOT
BRANCH   1  17
ATOM     17  C   UNK d   1       1.595 -16.707 -38.004  0.00  0.00     0.014 A 
ATOM     18  C   UNK d   1       1.578 -15.537 -37.265  0.00  0.00     0.091 A 
ATOM     19  C   UNK d   1       1.708 -14.294 -37.894  0.00  0.00     0.046 A 
ATOM     20 Br   UNK d   1       1.678 -12.686 -36.858  0.00  0.00    -0.048 Br
ATOM     21  C   UNK d   1       1.853 -14.202 -39.251  0.00  0.00     0.041 A 
ATOM     22  C   UNK d   1       1.871 -15.363 -39.988  0.00  0.00     0.013 A 
ATOM     23  C   UNK d   1       1.743 -16.601 -39.372  0.00  0.00     0.031 A 
ATOM     24 Br   UNK d   1       2.071 -15.275 -41.901  0.00  0.00    -0.051 Br
BRANCH  18  25
ATOM     25  O   UNK d   1       1.437 -15.514 -35.903  0.00  0.00    -0.359 OA
ATOM     26  H   UNK d   1       1.307 -16.287 -35.310  0.00  0.00     0.217 HD
ENDBRANCH  18  25
ENDBRANCH   1  17
BRANCH   3  27
ATOM     27  C   UNK d   1      -1.061 -20.422 -38.650  0.00  0.00     0.205 C 
ATOM     28  O   UNK d   1      -1.389 -21.633 -38.552  0.00  0.00    -0.646 OA
ATOM     29  O   UNK d   1      -1.927 -19.479 -39.176  0.00  0.00    -0.646 OA
ENDBRANCH   3  27
TORSDOF 3
ENDMDL
