MODEL 1
REMARK VINA RESULT:    -6.379      0.000      0.000
REMARK INTER + INTRA:          -9.140
REMARK INTER:                  -7.871
REMARK INTRA:                  -1.269
REMARK UNBOUND:                -1.269
REMARK  4 active torsions:
REMARK  status: ('A' for Active; 'I' for Inactive)
REMARK    1  A    between atoms: C_3  and  N_8 
REMARK       I    between atoms: N_11  and  C_14 
REMARK    2  A    between atoms: C_14  and  C_16 
REMARK    3  A    between atoms: C_16  and  N_17 
REMARK    4  A    between atoms: C_19  and  C_23 
REMARK       I    between atoms: C_23  and  N_25 
ROOT
ATOM      1  N   UNK d   1       1.226 -12.883 -37.730  0.00  0.00    -0.376 N 
ATOM      2  C   UNK d   1      -0.200 -12.855 -37.971  0.00  0.00     0.143 C 
ATOM      3  C   UNK d   1      -0.897 -13.596 -36.833  0.00  0.00     0.145 C 
ATOM      4  N   UNK d   1      -0.132 -14.784 -36.490  0.00  0.00    -0.348 N 
ATOM      5  C   UNK d   1       1.249 -14.624 -36.101  0.00  0.00     0.145 C 
ATOM      6  C   UNK d   1       1.642 -13.188 -36.352  0.00  0.00     0.143 C 
ATOM      7  C   UNK d   1      -0.711 -16.083 -36.528  0.00  0.00     0.239 C 
ATOM      8  O   UNK d   1      -1.931 -16.186 -36.870  0.00  0.00    -0.271 OA
ENDROOT
BRANCH   7   9
ATOM      9  C   UNK d   1       0.012 -17.315 -36.196  0.00  0.00     0.254 C 
BRANCH   9  10
ATOM     10  N   UNK d   1       0.597 -17.978 -37.360  0.00  0.00    -0.265 N 
ATOM     11  N   UNK d   1       1.749 -17.754 -37.959  0.00  0.00    -0.167 NA
ATOM     12  C   UNK d   1       1.958 -18.560 -39.003  0.00  0.00     0.146 A 
ATOM     13  C   UNK d   1       0.846 -19.378 -39.088  0.00  0.00     0.065 A 
ATOM     14  C   UNK d   1       0.017 -18.995 -38.056  0.00  0.00     0.029 A 
ATOM     15  C   UNK d   1      -1.297 -19.603 -37.761  0.00  0.00     0.070 C 
BRANCH  12  16
ATOM     16  C   UNK d   1       3.139 -18.576 -39.886  0.00  0.00     0.274 C 
ATOM     17  O   UNK d   1       3.191 -17.821 -40.877  0.00  0.00    -0.266 OA
ATOM     18  N   UNK d   1       4.202 -19.456 -39.587  0.00  0.00    -0.343 N 
ATOM     19  C   UNK d   1       4.211 -20.352 -38.465  0.00  0.00     0.152 C 
ATOM     20  C   UNK d   1       5.382 -19.481 -40.456  0.00  0.00     0.152 C 
ATOM     21  C   UNK d   1       5.472 -21.213 -38.611  0.00  0.00     0.187 C 
ATOM     22  O   UNK d   1       5.528 -21.805 -39.853  0.00  0.00    -0.388 OA
ATOM     23  C   UNK d   1       5.592 -20.914 -40.898  0.00  0.00     0.187 C 
ENDBRANCH  12  16
ENDBRANCH   9  10
ENDBRANCH   7   9
BRANCH   1  24
ATOM     24  C   UNK d   1       2.222 -12.649 -38.680  0.00  0.00     0.052 A 
ATOM     25  C   UNK d   1       2.490 -13.472 -39.753  0.00  0.00     0.060 A 
ATOM     26 Cl   UNK d   1       1.545 -14.903 -39.960  0.00  0.00    -0.082 Cl
ATOM     27  C   UNK d   1       3.484 -13.203 -40.673  0.00  0.00     0.026 A 
ATOM     28  C   UNK d   1       4.246 -12.086 -40.538  0.00  0.00     0.002 A 
ATOM     29  C   UNK d   1       4.017 -11.238 -39.486  0.00  0.00     0.002 A 
ATOM     30  C   UNK d   1       3.021 -11.513 -38.570  0.00  0.00     0.031 A 
ENDBRANCH   1  24
TORSDOF 4
ENDMDL
