/Users/jonathanwahrer/Desktop/Msc/3_Semester/Drug_Design_Praktikum/waehrer_HTS_screening/HTS_experiment/out/docking_results/vina_output/6y4q/1581_docked.pdbqt
 OpenBabel03232218323D

 27 30  0  0  1  0  0  0  0  0999 V2000
    0.7060  -17.5990  -37.4460 N   0  0  0  0  0  0  0  0  0  0  0  0
    0.0160  -18.8130  -37.5880 C   0  0  0  0  0  2  0  0  0  0  0  0
    0.7410  -19.8930  -38.3190 C   0  0  0  0  0  2  0  0  0  0  0  0
    2.1860  -19.7690  -38.1900 N   0  0  0  0  0  0  0  0  0  0  0  0
    3.0940  -20.6140  -38.6760 N   0  0  0  0  0  0  0  0  0  0  0  0
    4.3160  -20.1760  -38.3620 C   0  0  0  0  0  0  0  0  0  0  0  0
    4.1550  -19.0120  -37.6530 C   0  0  0  0  0  3  0  0  0  0  0  0
    2.7850  -18.7550  -37.5450 C   0  0  0  0  0  0  0  0  0  0  0  0
    2.0150  -17.6610  -36.9020 C   0  0  0  0  0  2  0  0  0  0  0  0
    0.4320  -16.5600  -38.3480 C   0  0  0  0  0  2  0  0  0  0  0  0
    1.0200  -15.2500  -38.0380 C   0  0  0  0  0  0  0  0  0  0  0  0
    1.8820  -14.5980  -38.8390 N   0  0  0  0  0  0  0  0  0  0  0  0
    2.4020  -13.3980  -38.5200 C   0  0  0  0  0  0  0  0  0  0  0  0
    2.1010  -12.7610  -37.3770 N   0  0  0  0  0  0  0  0  0  0  0  0
    3.2860  -12.8270  -39.4410 C   0  0  0  0  0  3  0  0  0  0  0  0
    2.6290  -11.5510  -37.0640 C   0  0  0  0  0  3  0  0  0  0  0  0
    1.2420  -13.3680  -36.5340 C   0  0  0  0  0  0  0  0  0  0  0  0
    3.5010  -10.9840  -37.9660 C   0  0  0  0  0  0  0  0  0  0  0  0
    4.1880   -9.4170  -37.5640 Cl  0  0  0  0  0  0  0  0  0  0  0  0
    3.8380  -11.6030  -39.1520 C   0  0  0  0  0  3  0  0  0  0  0  0
    0.7090  -14.5940  -36.8600 C   0  0  0  0  0  3  0  0  0  0  0  0
    0.9270  -12.8020  -35.4410 O   0  0  0  0  0  0  0  0  0  0  0  0
    5.6100  -20.8370  -38.7200 C   0  0  1  0  0  3  0  0  0  0  0  0
    5.4120  -22.2260  -38.6530 O   0  0  0  0  0  0  0  0  0  0  0  0
    4.6920  -22.4470  -37.9950 H   0  0  0  0  0  0  0  0  0  0  0  0
    5.9620  -20.5380  -40.1750 C   0  0  0  0  0  2  0  0  0  0  0  0
    5.6560  -21.7770  -41.0050 C   0  0  0  0  0  1  0  0  0  0  0  0
  1  9  1  0  0  0  0
  2  1  1  0  0  0  0
  3  4  1  0  0  0  0
  3  2  1  0  0  0  0
  4  8  1  0  0  0  0
  5  6  2  0  0  0  0
  5  4  1  0  0  0  0
  6  7  1  0  0  0  0
  7  8  2  0  0  0  0
  8  9  1  0  0  0  0
 10 11  1  0  0  0  0
 10  1  1  0  0  0  0
 11 21  2  0  0  0  0
 12 13  2  0  0  0  0
 12 11  1  0  0  0  0
 13 14  1  0  0  0  0
 14 16  1  0  0  0  0
 14 17  1  0  0  0  0
 15 20  2  0  0  0  0
 15 13  1  0  0  0  0
 17 22  2  0  0  0  0
 18 19  1  0  0  0  0
 18 16  2  0  0  0  0
 20 18  1  0  0  0  0
 21 17  1  0  0  0  0
 23 26  1  6  0  0  0
 23 24  1  0  0  0  0
 23  6  1  0  0  0  0
 24 25  1  0  0  0  0
 27 26  1  0  0  0  0
M  END
>  <Pose>
1

>  <Score>
-6.715

$$$$
