MODEL 1
REMARK VINA RESULT:    -6.715      0.000      0.000
REMARK INTER + INTRA:          -8.888
REMARK INTER:                  -8.481
REMARK INTRA:                  -0.407
REMARK UNBOUND:                -0.407
REMARK  5 active torsions:
REMARK  status: ('A' for Active; 'I' for Inactive)
REMARK    1  A    between atoms: C_7  and  C_11 
REMARK    2  A    between atoms: C_11  and  N_12 
REMARK    3  A    between atoms: C_17  and  C_21 
REMARK    4  A    between atoms: C_21  and  O_22 
REMARK    5  A    between atoms: C_21  and  C_23 
ROOT
ATOM      1  N   UNK d   1       0.706 -17.599 -37.446  0.00  0.00    -0.400 N 
ATOM      2  C   UNK d   1       0.016 -18.813 -37.588  0.00  0.00     0.139 C 
ATOM      3  C   UNK d   1       0.741 -19.893 -38.319  0.00  0.00     0.170 C 
ATOM      4  N   UNK d   1       2.186 -19.769 -38.190  0.00  0.00    -0.270 N 
ATOM      5  N   UNK d   1       3.094 -20.614 -38.676  0.00  0.00    -0.174 NA
ATOM      6  C   UNK d   1       4.316 -20.176 -38.362  0.00  0.00     0.085 A 
ATOM      7  C   UNK d   1       4.155 -19.012 -37.653  0.00  0.00     0.060 A 
ATOM      8  C   UNK d   1       2.785 -18.755 -37.545  0.00  0.00     0.050 A 
ATOM      9  C   UNK d   1       2.015 -17.661 -36.902  0.00  0.00     0.176 C 
ENDROOT
BRANCH   1  10
ATOM     10  C   UNK d   1       0.432 -16.560 -38.348  0.00  0.00     0.177 C 
BRANCH  10  11
ATOM     11  C   UNK d   1       1.020 -15.250 -38.038  0.00  0.00     0.059 A 
ATOM     12  N   UNK d   1       1.882 -14.598 -38.839  0.00  0.00    -0.233 NA
ATOM     13  C   UNK d   1       2.402 -13.398 -38.520  0.00  0.00     0.137 A 
ATOM     14  N   UNK d   1       2.101 -12.761 -37.377  0.00  0.00    -0.272 N 
ATOM     15  C   UNK d   1       3.286 -12.827 -39.441  0.00  0.00     0.053 A 
ATOM     16  C   UNK d   1       2.629 -11.551 -37.064  0.00  0.00     0.125 A 
ATOM     17  C   UNK d   1       1.242 -13.368 -36.534  0.00  0.00     0.255 A 
ATOM     18  C   UNK d   1       3.501 -10.984 -37.966  0.00  0.00     0.050 A 
ATOM     19 Cl   UNK d   1       4.188  -9.417 -37.564  0.00  0.00    -0.083 Cl
ATOM     20  C   UNK d   1       3.838 -11.603 -39.152  0.00  0.00     0.029 A 
ATOM     21  C   UNK d   1       0.709 -14.594 -36.860  0.00  0.00     0.103 A 
ATOM     22  O   UNK d   1       0.927 -12.802 -35.441  0.00  0.00    -0.268 OA
ENDBRANCH  10  11
ENDBRANCH   1  10
BRANCH   6  23
ATOM     23  C   UNK d   1       5.610 -20.837 -38.720  0.00  0.00     0.171 C 
BRANCH  23  24
ATOM     24  O   UNK d   1       5.412 -22.226 -38.653  0.00  0.00    -0.389 OA
ATOM     25  H   UNK d   1       4.692 -22.447 -37.995  0.00  0.00     0.210 HD
ENDBRANCH  23  24
BRANCH  23  26
ATOM     26  C   UNK d   1       5.962 -20.538 -40.175  0.00  0.00     0.034 C 
ATOM     27  C   UNK d   1       5.656 -21.777 -41.005  0.00  0.00     0.008 C 
ENDBRANCH  23  26
ENDBRANCH   6  23
TORSDOF 5
ENDMDL
