MODEL 1
REMARK VINA RESULT:    -6.985      0.000      0.000
REMARK INTER + INTRA:          -8.844
REMARK INTER:                  -8.211
REMARK INTRA:                  -0.634
REMARK UNBOUND:                -0.634
REMARK  3 active torsions:
REMARK  status: ('A' for Active; 'I' for Inactive)
REMARK    1  A    between atoms: C_5  and  C_8 
REMARK       I    between atoms: C_8  and  N_10 
REMARK    2  A    between atoms: C_18  and  C_22 
REMARK    3  A    between atoms: C_22  and  C_23 
ROOT
ATOM      1  C   UNK d   1       0.796 -15.384 -38.418  0.00  0.00     0.187 C 
ATOM      2  O   UNK d   1      -0.442 -15.076 -38.770  0.00  0.00    -0.171 OA
ATOM      3  N   UNK d   1       1.067 -16.756 -38.285  0.00  0.00    -0.355 N 
ATOM      4  C   UNK d   1       2.317 -17.300 -37.892  0.00  0.00     0.160 C 
ATOM      5  C   UNK d   1       2.147 -18.809 -37.646  0.00  0.00     0.197 C 
ATOM      6  N   UNK d   1       1.666 -19.350 -38.891  0.00  0.00    -0.334 N 
ATOM      7  C   UNK d   1       0.419 -18.864 -39.379  0.00  0.00     0.147 C 
ATOM      8  C   UNK d   1      -0.045 -17.654 -38.595  0.00  0.00     0.145 C 
ATOM      9  C   UNK d   1       2.403 -20.319 -39.592  0.00  0.00     0.243 C 
ATOM     10  O   UNK d   1       1.818 -21.035 -40.423  0.00  0.00    -0.271 OA
ATOM     11  C   UNK d   1       3.849 -20.453 -39.316  0.00  0.00     0.182 C 
ATOM     12  N   UNK d   1       4.000 -20.469 -37.891  0.00  0.00    -0.346 N 
ATOM     13  C   UNK d   1       3.368 -19.440 -37.149  0.00  0.00     0.243 C 
ATOM     14  O   UNK d   1       3.836 -19.037 -36.039  0.00  0.00    -0.271 OA
ATOM     15  H   UNK d   1       4.555 -21.206 -37.389  0.00  0.00     0.163 HD
ENDROOT
BRANCH   1  16
ATOM     16  C   UNK d   1       1.621 -14.220 -38.243  0.00  0.00     0.018 A 
ATOM     17  C   UNK d   1       2.429 -13.619 -39.175  0.00  0.00     0.017 A 
ATOM     18  C   UNK d   1       3.231 -12.506 -38.917  0.00  0.00     0.025 A 
ATOM     19  C   UNK d   1       3.233 -11.956 -37.676  0.00  0.00     0.034 A 
ATOM     20 Cl   UNK d   1       4.235 -10.545 -37.308  0.00  0.00    -0.084 Cl
ATOM     21  C   UNK d   1       2.446 -12.508 -36.699  0.00  0.00     0.025 A 
ATOM     22  C   UNK d   1       1.663 -13.608 -36.977  0.00  0.00     0.017 A 
ENDBRANCH   1  16
BRANCH  11  23
ATOM     23  C   UNK d   1       4.500 -21.574 -40.032  0.00  0.00     0.095 C 
BRANCH  23  24
ATOM     24  C   UNK d   1       5.443 -21.054 -41.035  0.00  0.00     0.053 A 
ATOM     25  N   UNK d   1       6.108 -21.722 -41.980  0.00  0.00    -0.247 NA
ATOM     26  C   UNK d   1       6.876 -20.846 -42.693  0.00  0.00     0.207 A 
ATOM     27  N   UNK d   1       6.697 -19.620 -42.198  0.00  0.00    -0.359 N 
ATOM     28  C   UNK d   1       5.828 -19.721 -41.187  0.00  0.00     0.116 A 
ATOM     29  H   UNK d   1       7.141 -18.759 -42.527  0.00  0.00     0.166 HD
ENDBRANCH  23  24
ENDBRANCH  11  23
TORSDOF 3
ENDMDL
