/Users/jonathanwahrer/Desktop/Msc/3_Semester/Drug_Design_Praktikum/waehrer_HTS_screening/HTS_experiment/out/docking_results/vina_output/6y4q/1586_docked.pdbqt
 OpenBabel03232218323D

 29 32  0  0  1  0  0  0  0  0999 V2000
    0.7960  -15.3840  -38.4180 C   0  0  0  0  0  0  0  0  0  0  0  0
   -0.4420  -15.0760  -38.7700 O   0  0  0  0  0  0  0  0  0  0  0  0
    1.0670  -16.7560  -38.2850 N   0  0  0  0  0  0  0  0  0  0  0  0
    2.3170  -17.3000  -37.8920 C   0  0  0  0  0  2  0  0  0  0  0  0
    2.1470  -18.8090  -37.6460 C   0  0  1  0  0  3  0  0  0  0  0  0
    1.6660  -19.3500  -38.8910 N   0  0  0  0  0  0  0  0  0  0  0  0
    0.4190  -18.8640  -39.3790 C   0  0  0  0  0  2  0  0  0  0  0  0
   -0.0450  -17.6540  -38.5950 C   0  0  0  0  0  2  0  0  0  0  0  0
    2.4030  -20.3190  -39.5920 C   0  0  0  0  0  0  0  0  0  0  0  0
    1.8180  -21.0350  -40.4230 O   0  0  0  0  0  0  0  0  0  0  0  0
    3.8490  -20.4530  -39.3160 C   0  0  1  0  0  3  0  0  0  0  0  0
    4.0000  -20.4690  -37.8910 N   0  0  0  0  0  0  0  0  0  0  0  0
    3.3680  -19.4400  -37.1490 C   0  0  0  0  0  0  0  0  0  0  0  0
    3.8360  -19.0370  -36.0390 O   0  0  0  0  0  0  0  0  0  0  0  0
    4.5550  -21.2060  -37.3890 H   0  0  0  0  0  0  0  0  0  0  0  0
    1.6210  -14.2200  -38.2430 C   0  0  0  0  0  0  0  0  0  0  0  0
    2.4290  -13.6190  -39.1750 C   0  0  0  0  0  3  0  0  0  0  0  0
    3.2310  -12.5060  -38.9170 C   0  0  0  0  0  3  0  0  0  0  0  0
    3.2330  -11.9560  -37.6760 C   0  0  0  0  0  0  0  0  0  0  0  0
    4.2350  -10.5450  -37.3080 Cl  0  0  0  0  0  0  0  0  0  0  0  0
    2.4460  -12.5080  -36.6990 C   0  0  0  0  0  3  0  0  0  0  0  0
    1.6630  -13.6080  -36.9770 C   0  0  0  0  0  3  0  0  0  0  0  0
    4.5000  -21.5740  -40.0320 C   0  0  0  0  0  2  0  0  0  0  0  0
    5.4430  -21.0540  -41.0350 C   0  0  0  0  0  0  0  0  0  0  0  0
    6.1080  -21.7220  -41.9800 N   0  0  0  0  0  0  0  0  0  0  0  0
    6.8760  -20.8460  -42.6930 C   0  0  0  0  0  3  0  0  0  0  0  0
    6.6970  -19.6200  -42.1980 N   0  0  0  0  0  0  0  0  0  0  0  0
    5.8280  -19.7210  -41.1870 C   0  0  0  0  0  3  0  0  0  0  0  0
    7.1410  -18.7590  -42.5270 H   0  0  0  0  0  0  0  0  0  0  0  0
  1  3  1  0  0  0  0
  1 16  1  0  0  0  0
  2  1  2  0  0  0  0
  3  4  1  0  0  0  0
  5  4  1  6  0  0  0
  5 13  1  0  0  0  0
  6  5  1  0  0  0  0
  7  6  1  0  0  0  0
  7  8  1  0  0  0  0
  8  3  1  0  0  0  0
  9 11  1  0  0  0  0
  9  6  1  0  0  0  0
 10  9  2  0  0  0  0
 11 23  1  6  0  0  0
 11 12  1  0  0  0  0
 12 15  1  0  0  0  0
 12 13  1  0  0  0  0
 13 14  2  0  0  0  0
 16 22  1  0  0  0  0
 17 18  1  0  0  0  0
 17 16  2  0  0  0  0
 18 19  2  0  0  0  0
 19 20  1  0  0  0  0
 19 21  1  0  0  0  0
 22 21  2  0  0  0  0
 24 23  1  0  0  0  0
 25 24  1  0  0  0  0
 26 27  1  0  0  0  0
 26 25  2  0  0  0  0
 27 28  1  0  0  0  0
 28 24  2  0  0  0  0
 29 27  1  0  0  0  0
M  END
>  <Pose>
1

>  <Score>
-6.985

$$$$
