MODEL 1
REMARK VINA RESULT:    -6.202      0.000      0.000
REMARK INTER + INTRA:          -7.911
REMARK INTER:                  -7.289
REMARK INTRA:                  -0.621
REMARK UNBOUND:                -0.621
REMARK  3 active torsions:
REMARK  status: ('A' for Active; 'I' for Inactive)
REMARK    1  A    between atoms: C_3  and  N_15 
REMARK    2  A    between atoms: N_6  and  C_9 
REMARK    3  A    between atoms: N_18  and  C_21 
ROOT
ATOM      1 Cl   UNK d   1       2.834 -18.021 -40.004  0.00  0.00    -0.076 Cl
ATOM      2  C   UNK d   1       2.477 -17.566 -38.353  0.00  0.00     0.131 A 
ATOM      3  C   UNK d   1       3.010 -18.273 -37.313  0.00  0.00     0.077 A 
ATOM      4  C   UNK d   1       2.644 -17.828 -36.040  0.00  0.00     0.170 A 
ATOM      5  N   UNK d   1       1.824 -16.776 -35.888  0.00  0.00    -0.174 NA
ATOM      6  N   UNK d   1       1.300 -16.084 -36.874  0.00  0.00    -0.197 N 
ATOM      7  C   UNK d   1       1.624 -16.475 -38.114  0.00  0.00     0.292 A 
ATOM      8  O   UNK d   1       1.174 -15.875 -39.123  0.00  0.00    -0.264 OA
ENDROOT
BRANCH   3   9
ATOM      9  N   UNK d   1       3.892 -19.367 -37.482  0.00  0.00    -0.375 N 
ATOM     10  C   UNK d   1       5.317 -19.280 -37.208  0.00  0.00     0.143 C 
ATOM     11  C   UNK d   1       6.137 -19.500 -38.453  0.00  0.00     0.146 C 
ATOM     12  N   UNK d   1       5.505 -20.571 -39.184  0.00  0.00    -0.341 N 
ATOM     13  C   UNK d   1       4.669 -21.487 -38.452  0.00  0.00     0.146 C 
ATOM     14  C   UNK d   1       3.451 -20.668 -37.972  0.00  0.00     0.143 C 
BRANCH  12  15
ATOM     15  C   UNK d   1       5.697 -20.722 -40.579  0.00  0.00     0.270 A 
ATOM     16  N   UNK d   1       5.671 -19.743 -41.528  0.00  0.00    -0.103 NA
ATOM     17  N   UNK d   1       5.895 -20.279 -42.712  0.00  0.00    -0.126 NA
ATOM     18  C   UNK d   1       6.063 -21.584 -42.541  0.00  0.00     0.167 A 
ATOM     19  O   UNK d   1       5.940 -21.824 -41.262  0.00  0.00    -0.260 OA
ATOM     20  C   UNK d   1       6.341 -22.639 -43.568  0.00  0.00     0.102 C 
ENDBRANCH  12  15
ENDBRANCH   3   9
BRANCH   6  21
ATOM     21  C   UNK d   1       0.437 -14.978 -36.625  0.00  0.00     0.062 A 
ATOM     22  C   UNK d   1      -0.933 -15.052 -36.779  0.00  0.00     0.032 A 
ATOM     23  C   UNK d   1      -1.759 -13.976 -36.535  0.00  0.00     0.002 A 
ATOM     24  C   UNK d   1      -1.235 -12.768 -36.122  0.00  0.00     0.000 A 
ATOM     25  C   UNK d   1       0.133 -12.688 -35.965  0.00  0.00     0.002 A 
ATOM     26  C   UNK d   1       0.957 -13.769 -36.211  0.00  0.00     0.032 A 
ENDBRANCH   6  21
TORSDOF 3
ENDMDL
