MODEL 1
REMARK VINA RESULT:    -5.630      0.000      0.000
REMARK INTER + INTRA:          -7.458
REMARK INTER:                  -6.782
REMARK INTRA:                  -0.676
REMARK UNBOUND:                -0.676
REMARK  4 active torsions:
REMARK  status: ('A' for Active; 'I' for Inactive)
REMARK    1  A    between atoms: C_7  and  C_9 
REMARK       I    between atoms: C_9  and  N_11 
REMARK    2  A    between atoms: N_17  and  C_20 
REMARK    3  A    between atoms: C_20  and  C_21 
REMARK    4  A    between atoms: C_21  and  O_22 
ROOT
ATOM      1  C   UNK d   1       4.514 -21.133 -39.311  0.00  0.00     0.274 C 
ATOM      2  O   UNK d   1       4.648 -21.803 -38.221  0.00  0.00    -0.266 OA
ATOM      3  N   UNK d   1       4.341 -19.769 -39.180  0.00  0.00    -0.341 N 
ATOM      4  C   UNK d   1       4.184 -18.866 -40.294  0.00  0.00     0.131 C 
ATOM      5  C   UNK d   1       2.778 -18.306 -40.344  0.00  0.00     0.066 C 
ATOM      6  C   UNK d   1       2.287 -18.067 -38.944  0.00  0.00     0.039 A 
ATOM      7  C   UNK d   1       2.962 -18.424 -37.809  0.00  0.00     0.056 A 
ATOM      8  N   UNK d   1       2.172 -18.027 -36.778  0.00  0.00    -0.297 N 
ATOM      9  N   UNK d   1       1.073 -17.460 -37.221  0.00  0.00    -0.255 N 
ATOM     10  C   UNK d   1       1.085 -17.454 -38.560  0.00  0.00     0.270 A 
ATOM     11  O   UNK d   1       0.202 -16.995 -39.355  0.00  0.00    -0.266 OA
ATOM     12  C   UNK d   1       4.289 -19.103 -37.855  0.00  0.00     0.185 C 
ATOM     13  H   UNK d   1       2.449 -18.178 -35.778  0.00  0.00     0.187 HD
ENDROOT
BRANCH   1  14
ATOM     14  C   UNK d   1       4.559 -21.884 -40.553  0.00  0.00     0.142 A 
ATOM     15  N   UNK d   1       3.562 -22.488 -41.200  0.00  0.00    -0.224 NA
ATOM     16  C   UNK d   1       4.042 -23.067 -42.312  0.00  0.00     0.134 A 
ATOM     17  N   UNK d   1       5.357 -22.836 -42.383  0.00  0.00    -0.313 N 
ATOM     18  C   UNK d   1       3.351 -23.808 -43.287  0.00  0.00     0.052 A 
ATOM     19  C   UNK d   1       6.069 -23.330 -43.434  0.00  0.00     0.122 A 
ATOM     20  C   UNK d   1       5.716 -22.109 -41.317  0.00  0.00     0.135 A 
ATOM     21  C   UNK d   1       5.418 -24.059 -44.403  0.00  0.00     0.050 A 
ATOM     22 Cl   UNK d   1       6.293 -24.714 -45.775  0.00  0.00    -0.083 Cl
ATOM     23  C   UNK d   1       4.057 -24.303 -44.339  0.00  0.00     0.029 A 
ENDBRANCH   1  14
BRANCH   9  24
ATOM     24  C   UNK d   1      -0.033 -16.900 -36.431  0.00  0.00     0.178 C 
BRANCH  24  25
ATOM     25  C   UNK d   1       0.155 -15.415 -36.223  0.00  0.00     0.186 C 
BRANCH  25  26
ATOM     26  O   UNK d   1       1.484 -15.079 -35.995  0.00  0.00    -0.399 OA
ATOM     27  H   UNK d   1       1.876 -14.554 -36.755  0.00  0.00     0.209 HD
ENDBRANCH  25  26
ENDBRANCH  24  25
ENDBRANCH   9  24
TORSDOF 4
ENDMDL
