/Users/jonathanwahrer/Desktop/Msc/3_Semester/Drug_Design_Praktikum/waehrer_HTS_screening/HTS_experiment/out/docking_results/vina_output/6y4q/1594_docked.pdbqt
 OpenBabel03232218323D

 27 30  0  0  0  0  0  0  0  0999 V2000
    4.5140  -21.1330  -39.3110 C   0  0  0  0  0  0  0  0  0  0  0  0
    4.6480  -21.8030  -38.2210 O   0  0  0  0  0  0  0  0  0  0  0  0
    4.3410  -19.7690  -39.1800 N   0  0  0  0  0  0  0  0  0  0  0  0
    4.1840  -18.8660  -40.2940 C   0  0  0  0  0  2  0  0  0  0  0  0
    2.7780  -18.3060  -40.3440 C   0  0  0  0  0  2  0  0  0  0  0  0
    2.2870  -18.0670  -38.9440 C   0  0  0  0  0  0  0  0  0  0  0  0
    2.9620  -18.4240  -37.8090 C   0  0  0  0  0  0  0  0  0  0  0  0
    2.1720  -18.0270  -36.7780 N   0  0  0  0  0  0  0  0  0  0  0  0
    1.0730  -17.4600  -37.2210 N   0  0  0  0  0  0  0  0  0  0  0  0
    1.0850  -17.4540  -38.5600 C   0  0  0  0  0  0  0  0  0  0  0  0
    0.2020  -16.9950  -39.3550 O   0  0  0  0  0  0  0  0  0  0  0  0
    4.2890  -19.1030  -37.8550 C   0  0  0  0  0  2  0  0  0  0  0  0
    2.4490  -18.1780  -35.7780 H   0  0  0  0  0  0  0  0  0  0  0  0
    4.5590  -21.8840  -40.5530 C   0  0  0  0  0  0  0  0  0  0  0  0
    3.5620  -22.4880  -41.2000 N   0  0  0  0  0  0  0  0  0  0  0  0
    4.0420  -23.0670  -42.3120 C   0  0  0  0  0  0  0  0  0  0  0  0
    5.3570  -22.8360  -42.3830 N   0  0  0  0  0  0  0  0  0  0  0  0
    3.3510  -23.8080  -43.2870 C   0  0  0  0  0  3  0  0  0  0  0  0
    6.0690  -23.3300  -43.4340 C   0  0  0  0  0  3  0  0  0  0  0  0
    5.7160  -22.1090  -41.3170 C   0  0  0  0  0  3  0  0  0  0  0  0
    5.4180  -24.0590  -44.4030 C   0  0  0  0  0  0  0  0  0  0  0  0
    6.2930  -24.7140  -45.7750 Cl  0  0  0  0  0  0  0  0  0  0  0  0
    4.0570  -24.3030  -44.3390 C   0  0  0  0  0  3  0  0  0  0  0  0
   -0.0330  -16.9000  -36.4310 C   0  0  0  0  0  2  0  0  0  0  0  0
    0.1550  -15.4150  -36.2230 C   0  0  0  0  0  2  0  0  0  0  0  0
    1.4840  -15.0790  -35.9950 O   0  0  0  0  0  0  0  0  0  0  0  0
    1.8760  -14.5540  -36.7550 H   0  0  0  0  0  0  0  0  0  0  0  0
  1  3  1  0  0  0  0
  1  2  2  0  0  0  0
  3 12  1  0  0  0  0
  4  3  1  0  0  0  0
  5  4  1  0  0  0  0
  5  6  1  0  0  0  0
  6 10  1  0  0  0  0
  6  7  2  0  0  0  0
  7  8  1  0  0  0  0
  8 13  1  0  0  0  0
  9  8  1  0  0  0  0
  9 24  1  0  0  0  0
 10  9  1  0  0  0  0
 11 10  2  0  0  0  0
 12  7  1  0  0  0  0
 14  1  1  0  0  0  0
 15 14  1  0  0  0  0
 16 15  2  0  0  0  0
 17 16  1  0  0  0  0
 17 20  1  0  0  0  0
 18 16  1  0  0  0  0
 19 17  1  0  0  0  0
 20 14  2  0  0  0  0
 21 23  1  0  0  0  0
 21 19  2  0  0  0  0
 22 21  1  0  0  0  0
 23 18  2  0  0  0  0
 24 25  1  0  0  0  0
 25 26  1  0  0  0  0
 27 26  1  0  0  0  0
M  END
>  <Pose>
1

>  <Score>
-5.630

$$$$
