/Users/jonathanwahrer/Desktop/Msc/3_Semester/Drug_Design_Praktikum/waehrer_HTS_screening/HTS_experiment/out/docking_results/vina_output/6y4q/1609_docked.pdbqt
 OpenBabel03232218323D

 26 29  0  0  1  0  0  0  0  0999 V2000
    0.0050  -15.9070  -37.4000 N   0  0  0  0  0  0  0  0  0  0  0  0
    0.1260  -16.5330  -38.6900 C   0  0  2  0  0  3  0  0  0  0  0  0
   -0.7040  -17.7860  -38.4950 C   0  0  2  0  0  3  0  0  0  0  0  0
   -0.2720  -18.1910  -37.2030 O   0  0  0  0  0  0  0  0  0  0  0  0
   -0.1960  -16.9790  -36.4860 C   0  0  0  0  0  0  0  0  0  0  0  0
   -0.2980  -16.9130  -35.2200 O   0  0  0  0  0  0  0  0  0  0  0  0
   -0.1700  -18.6130  -39.6080 C   0  0  0  0  0  2  0  0  0  0  0  0
    1.2870  -18.5020  -39.3660 N   0  0  0  0  0  0  0  0  0  0  0  0
    1.5100  -17.1850  -38.8560 C   0  0  0  0  0  2  0  0  0  0  0  0
    2.1390  -19.5770  -39.6360 C   0  0  0  0  0  0  0  0  0  0  0  0
    1.6490  -20.6870  -40.0980 O   0  0  0  0  0  0  0  0  0  0  0  0
    0.0620  -14.5180  -37.0060 C   0  0  0  0  0  2  0  0  0  0  0  0
    1.3830  -14.1130  -36.4120 C   0  0  0  0  0  2  0  0  0  0  0  0
    2.1830  -13.2810  -37.3400 C   0  0  0  0  0  0  0  0  0  0  0  0
    2.7900  -12.1030  -36.9020 C   0  0  0  0  0  3  0  0  0  0  0  0
    3.5360  -11.3240  -37.7520 C   0  0  0  0  0  0  0  0  0  0  0  0
    4.2840   -9.8410  -37.1510 Cl  0  0  0  0  0  0  0  0  0  0  0  0
    3.7250  -11.6600  -39.0760 C   0  0  0  0  0  3  0  0  0  0  0  0
    3.1270  -12.8230  -39.5140 C   0  0  0  0  0  3  0  0  0  0  0  0
    2.3750  -13.6150  -38.6660 C   0  0  0  0  0  3  0  0  0  0  0  0
    3.5780  -19.6000  -39.4520 C   0  0  0  0  0  0  0  0  0  0  0  0
    4.2520  -19.5670  -38.2700 N   0  0  0  0  0  0  0  0  0  0  0  0
    5.5570  -19.6110  -38.5250 C   0  0  0  0  0  3  0  0  0  0  0  0
    3.6330  -19.4960  -36.9720 C   0  0  0  0  0  1  0  0  0  0  0  0
    5.7390  -19.6710  -39.8450 N   0  0  0  0  0  0  0  0  0  0  0  0
    4.5220  -19.6660  -40.4330 C   0  0  0  0  0  3  0  0  0  0  0  0
  1 12  1  0  0  0  0
  1  5  1  0  0  0  0
  2  9  1  1  0  0  0
  2  3  1  0  0  0  0
  2  1  1  0  0  0  0
  3  7  1  6  0  0  0
  3  4  1  0  0  0  0
  4  5  1  0  0  0  0
  5  6  2  0  0  0  0
  7  8  1  0  0  0  0
  8  9  1  0  0  0  0
 10 21  1  0  0  0  0
 10  8  1  0  0  0  0
 11 10  2  0  0  0  0
 12 13  1  0  0  0  0
 14 15  1  0  0  0  0
 14 13  1  0  0  0  0
 16 17  1  0  0  0  0
 16 15  2  0  0  0  0
 18 16  1  0  0  0  0
 19 18  2  0  0  0  0
 19 20  1  0  0  0  0
 20 14  2  0  0  0  0
 21 22  1  0  0  0  0
 22 24  1  0  0  0  0
 23 22  1  0  0  0  0
 25 23  2  0  0  0  0
 26 25  1  0  0  0  0
 26 21  2  0  0  0  0
M  END
>  <Pose>
1

>  <Score>
-6.499

$$$$
