MODEL 1
REMARK VINA RESULT:    -6.499      0.000      0.000
REMARK INTER + INTRA:          -8.858
REMARK INTER:                  -8.018
REMARK INTRA:                  -0.840
REMARK UNBOUND:                -0.840
REMARK  4 active torsions:
REMARK  status: ('A' for Active; 'I' for Inactive)
REMARK    1  A    between atoms: C_4  and  C_8 
REMARK    2  A    between atoms: C_8  and  C_9 
REMARK    3  A    between atoms: C_9  and  N_10 
REMARK       I    between atoms: N_17  and  C_19 
REMARK    4  A    between atoms: C_19  and  C_21 
ROOT
ATOM      1  N   UNK d   1       0.005 -15.907 -37.400  0.00  0.00    -0.319 N 
ATOM      2  C   UNK d   1       0.126 -16.533 -38.690  0.00  0.00     0.138 C 
ATOM      3  C   UNK d   1      -0.704 -17.786 -38.495  0.00  0.00     0.176 C 
ATOM      4  O   UNK d   1      -0.272 -18.191 -37.203  0.00  0.00    -0.295 OA
ATOM      5  C   UNK d   1      -0.196 -16.979 -36.486  0.00  0.00     0.363 C 
ATOM      6  O   UNK d   1      -0.298 -16.913 -35.220  0.00  0.00    -0.238 OA
ATOM      7  C   UNK d   1      -0.170 -18.613 -39.608  0.00  0.00     0.161 C 
ATOM      8  N   UNK d   1       1.287 -18.502 -39.366  0.00  0.00    -0.342 N 
ATOM      9  C   UNK d   1       1.510 -17.185 -38.856  0.00  0.00     0.154 C 
ATOM     10  C   UNK d   1       2.139 -19.577 -39.636  0.00  0.00     0.272 C 
ATOM     11  O   UNK d   1       1.649 -20.687 -40.098  0.00  0.00    -0.266 OA
ENDROOT
BRANCH   1  12
ATOM     12  C   UNK d   1       0.062 -14.518 -37.006  0.00  0.00     0.133 C 
BRANCH  12  13
ATOM     13  C   UNK d   1       1.383 -14.113 -36.412  0.00  0.00     0.058 C 
BRANCH  13  14
ATOM     14  C   UNK d   1       2.183 -13.281 -37.340  0.00  0.00    -0.055 A 
ATOM     15  C   UNK d   1       2.790 -12.103 -36.902  0.00  0.00     0.031 A 
ATOM     16  C   UNK d   1       3.536 -11.324 -37.752  0.00  0.00     0.034 A 
ATOM     17 Cl   UNK d   1       4.284  -9.841 -37.151  0.00  0.00    -0.084 Cl
ATOM     18  C   UNK d   1       3.725 -11.660 -39.076  0.00  0.00     0.024 A 
ATOM     19  C   UNK d   1       3.127 -12.823 -39.514  0.00  0.00     0.002 A 
ATOM     20  C   UNK d   1       2.375 -13.615 -38.666  0.00  0.00     0.007 A 
ENDBRANCH  13  14
ENDBRANCH  12  13
ENDBRANCH   1  12
BRANCH  10  21
ATOM     21  C   UNK d   1       3.578 -19.600 -39.452  0.00  0.00     0.121 A 
ATOM     22  N   UNK d   1       4.252 -19.567 -38.270  0.00  0.00    -0.340 N 
ATOM     23  C   UNK d   1       5.557 -19.611 -38.525  0.00  0.00     0.209 A 
ATOM     24  C   UNK d   1       3.633 -19.496 -36.972  0.00  0.00     0.157 C 
ATOM     25  N   UNK d   1       5.739 -19.671 -39.845  0.00  0.00    -0.253 NA
ATOM     26  C   UNK d   1       4.522 -19.666 -40.433  0.00  0.00     0.153 A 
ENDBRANCH  10  21
TORSDOF 4
ENDMDL
