MODEL 1
REMARK VINA RESULT:    -6.299      0.000      0.000
REMARK INTER + INTRA:          -9.491
REMARK INTER:                  -7.772
REMARK INTRA:                  -1.719
REMARK UNBOUND:                -1.719
REMARK  4 active torsions:
REMARK  status: ('A' for Active; 'I' for Inactive)
REMARK    1  A    between atoms: C_4  and  C_8 
REMARK    2  A    between atoms: C_8  and  N_9 
REMARK    3  A    between atoms: C_13  and  N_14 
REMARK       I    between atoms: N_17  and  C_20 
REMARK    4  A    between atoms: C_20  and  C_22 
ROOT
ATOM      1  N   UNK d   1       2.140 -19.499 -38.355  0.00  0.00    -0.168 N 
ATOM      2  C   UNK d   1       3.306 -19.986 -38.826  0.00  0.00     0.167 A 
ATOM      3  C   UNK d   1       2.999 -20.806 -39.886  0.00  0.00     0.185 A 
ATOM      4  N   UNK d   1       1.688 -20.793 -40.025  0.00  0.00    -0.044 NA
ATOM      5  C   UNK d   1       1.134 -19.987 -39.086  0.00  0.00     0.707 A 
ATOM      6  N   UNK d   1       4.028 -21.420 -40.535  0.00  0.00    -0.286 N 
ATOM      7  C   UNK d   1       5.301 -21.241 -40.164  0.00  0.00     0.330 A 
ATOM      8  O   UNK d   1       6.219 -21.832 -40.798  0.00  0.00    -0.246 OA
ATOM      9  N   UNK d   1       5.644 -20.452 -39.138  0.00  0.00    -0.273 N 
ATOM     10  C   UNK d   1       4.642 -19.827 -38.474  0.00  0.00     0.280 A 
ATOM     11  O   UNK d   1       4.956 -19.088 -37.515  0.00  0.00    -0.265 OA
ATOM     12  C   UNK d   1       3.724 -22.291 -41.668  0.00  0.00     0.163 C 
ATOM     13  H   UNK d   1       6.650 -20.339 -38.882  0.00  0.00     0.173 HD
ENDROOT
BRANCH   5  14
ATOM     14  N   UNK d   1      -0.269 -19.695 -38.997  0.00  0.00    -0.212 N 
ATOM     15  C   UNK d   1      -1.022 -20.276 -37.867  0.00  0.00     0.161 C 
ATOM     16  C   UNK d   1      -1.716 -19.226 -37.061  0.00  0.00     0.146 C 
ATOM     17  N   UNK d   1      -1.944 -18.032 -37.842  0.00  0.00    -0.349 N 
ATOM     18  C   UNK d   1      -2.188 -18.201 -39.260  0.00  0.00     0.146 C 
ATOM     19  C   UNK d   1      -1.935 -16.749 -37.233  0.00  0.00     0.219 C 
ATOM     20  C   UNK d   1      -0.993 -18.880 -39.905  0.00  0.00     0.161 C 
ATOM     21  O   UNK d   1      -1.743 -16.634 -36.003  0.00  0.00    -0.273 OA
BRANCH  19  22
ATOM     22  C   UNK d   1      -2.151 -15.517 -38.029  0.00  0.00     0.098 C 
ATOM     23  C   UNK d   1      -2.207 -14.349 -37.047  0.00  0.00     0.014 C 
ENDBRANCH  19  22
ENDBRANCH   5  14
BRANCH   1  24
ATOM     24  C   UNK d   1       2.070 -18.565 -37.277  0.00  0.00     0.186 C 
BRANCH  24  25
ATOM     25  C   UNK d   1       1.884 -17.145 -37.660  0.00  0.00    -0.038 A 
ATOM     26  C   UNK d   1       1.671 -16.165 -36.733  0.00  0.00     0.032 A 
ATOM     27  C   UNK d   1       1.462 -14.865 -37.175  0.00  0.00     0.034 A 
ATOM     28 Cl   UNK d   1       1.194 -13.622 -35.953  0.00  0.00    -0.084 Cl
ATOM     29  C   UNK d   1       1.458 -14.511 -38.506  0.00  0.00     0.024 A 
ATOM     30  C   UNK d   1       1.674 -15.517 -39.432  0.00  0.00     0.002 A 
ATOM     31  C   UNK d   1       1.883 -16.803 -39.027  0.00  0.00     0.009 A 
ENDBRANCH  24  25
ENDBRANCH   1  24
TORSDOF 4
ENDMDL
