/Users/jonathanwahrer/Desktop/Msc/3_Semester/Drug_Design_Praktikum/waehrer_HTS_screening/HTS_experiment/out/docking_results/vina_output/6y4q/1622_docked.pdbqt
 OpenBabel03232218333D

 28 31  0  0  1  0  0  0  0  0999 V2000
    0.9360  -17.5800  -38.1140 C   0  0  0  0  0  0  0  0  0  0  0  0
   -0.0430  -17.7980  -38.8740 O   0  0  0  0  0  0  0  0  0  0  0  0
    1.8350  -18.6070  -37.7190 N   0  0  0  0  0  0  0  0  0  0  0  0
    1.6150  -19.9500  -38.2110 C   0  0  0  0  0  2  0  0  0  0  0  0
    2.9660  -20.6410  -38.2240 C   0  0  0  0  0  2  0  0  0  0  0  0
    4.0850  -19.6880  -38.5840 C   0  0  1  0  0  0  0  0  0  0  0  0
    5.2740  -20.4840  -38.7850 N   0  0  0  0  0  0  0  0  0  0  0  0
    5.2910  -20.9280  -40.1330 C   0  0  0  0  0  0  0  0  0  0  0  0
    5.9410  -21.9010  -40.6290 O   0  0  0  0  0  0  0  0  0  0  0  0
    4.4160  -20.0480  -40.8460 N   0  0  0  0  0  0  0  0  0  0  0  0
    3.8840  -19.0910  -39.9290 C   0  0  0  0  0  0  0  0  0  0  0  0
    3.3630  -17.9860  -40.2400 O   0  0  0  0  0  0  0  0  0  0  0  0
    4.0870  -20.0800  -42.2730 C   0  0  0  0  0  1  0  0  0  0  0  0
    4.2750  -18.6190  -37.5490 C   0  0  0  0  0  2  0  0  0  0  0  0
    2.9700  -18.3970  -36.8490 C   0  0  0  0  0  2  0  0  0  0  0  0
    5.9800  -20.6850  -38.0510 H   0  0  0  0  0  0  0  0  0  0  0  0
    1.0980  -16.1970  -37.6540 C   0  0  0  0  0  0  0  0  0  0  0  0
    0.4860  -15.7700  -36.4960 C   0  0  0  0  0  0  0  0  0  0  0  0
   -0.4960  -16.9220  -35.5800 Cl  0  0  0  0  0  0  0  0  0  0  0  0
    0.6200  -14.4750  -36.0390 C   0  0  0  0  0  3  0  0  0  0  0  0
    1.3940  -13.6200  -36.7890 C   0  0  0  0  0  3  0  0  0  0  0  0
    2.0280  -14.0060  -37.9590 C   0  0  0  0  0  0  0  0  0  0  0  0
    1.8650  -15.3100  -38.3760 C   0  0  0  0  0  3  0  0  0  0  0  0
    2.8170  -13.0680  -38.6890 N   0  0  0  0  0  0  0  0  0  0  0  0
    3.3870  -11.9690  -38.2610 N   0  0  0  0  0  0  0  0  0  0  0  0
    4.0500  -11.3650  -39.2900 C   0  0  0  0  0  3  0  0  0  0  0  0
    3.8800  -12.1370  -40.4170 C   0  0  0  0  0  3  0  0  0  0  0  0
    3.0900  -13.2110  -39.9980 C   0  0  0  0  0  3  0  0  0  0  0  0
  1  3  1  0  0  0  0
  1 17  1  0  0  0  0
  2  1  2  0  0  0  0
  3 15  1  0  0  0  0
  4  3  1  0  0  0  0
  5  4  1  0  0  0  0
  6  5  1  1  0  0  0
  6 14  1  0  0  0  0
  7  6  1  0  0  0  0
  7 16  1  0  0  0  0
  8  7  1  0  0  0  0
  9  8  2  0  0  0  0
 10  8  1  0  0  0  0
 10 11  1  0  0  0  0
 11  6  1  0  0  0  0
 12 11  2  0  0  0  0
 13 10  1  0  0  0  0
 14 15  1  0  0  0  0
 17 18  1  0  0  0  0
 18 20  2  0  0  0  0
 18 19  1  0  0  0  0
 21 20  1  0  0  0  0
 22 21  2  0  0  0  0
 23 22  1  0  0  0  0
 23 17  2  0  0  0  0
 24 25  1  0  0  0  0
 24 22  1  0  0  0  0
 26 25  2  0  0  0  0
 27 28  2  0  0  0  0
 27 26  1  0  0  0  0
 28 24  1  0  0  0  0
M  END
>  <Pose>
1

>  <Score>
-7.001

$$$$
