MODEL 1
REMARK VINA RESULT:    -7.001      0.000      0.000
REMARK INTER + INTRA:          -8.632
REMARK INTER:                  -7.820
REMARK INTRA:                  -0.812
REMARK UNBOUND:                -0.812
REMARK  2 active torsions:
REMARK  status: ('A' for Active; 'I' for Inactive)
REMARK    1  A    between atoms: C_3  and  C_13 
REMARK    2  A    between atoms: C_5  and  N_8 
REMARK       I    between atoms: C_13  and  N_15 
ROOT
ATOM      1  C   UNK d   1       0.936 -17.580 -38.114  0.00  0.00     0.255 C 
ATOM      2  O   UNK d   1      -0.043 -17.798 -38.874  0.00  0.00    -0.267 OA
ATOM      3  N   UNK d   1       1.835 -18.607 -37.719  0.00  0.00    -0.348 N 
ATOM      4  C   UNK d   1       1.615 -19.950 -38.211  0.00  0.00     0.129 C 
ATOM      5  C   UNK d   1       2.966 -20.641 -38.224  0.00  0.00     0.061 C 
ATOM      6  C   UNK d   1       4.085 -19.688 -38.584  0.00  0.00     0.119 C 
ATOM      7  N   UNK d   1       5.274 -20.484 -38.785  0.00  0.00    -0.324 N 
ATOM      8  C   UNK d   1       5.291 -20.928 -40.133  0.00  0.00     0.325 C 
ATOM      9  O   UNK d   1       5.941 -21.901 -40.629  0.00  0.00    -0.247 OA
ATOM     10  N   UNK d   1       4.416 -20.048 -40.846  0.00  0.00    -0.272 N 
ATOM     11  C   UNK d   1       3.884 -19.091 -39.929  0.00  0.00     0.256 C 
ATOM     12  O   UNK d   1       3.363 -17.986 -40.240  0.00  0.00    -0.270 OA
ATOM     13  C   UNK d   1       4.087 -20.080 -42.273  0.00  0.00     0.164 C 
ATOM     14  C   UNK d   1       4.275 -18.619 -37.549  0.00  0.00     0.061 C 
ATOM     15  C   UNK d   1       2.970 -18.397 -36.849  0.00  0.00     0.129 C 
ATOM     16  H   UNK d   1       5.980 -20.685 -38.051  0.00  0.00     0.165 HD
ENDROOT
BRANCH   1  17
ATOM     17  C   UNK d   1       1.098 -16.197 -37.654  0.00  0.00     0.056 A 
ATOM     18  C   UNK d   1       0.486 -15.770 -36.496  0.00  0.00     0.050 A 
ATOM     19 Cl   UNK d   1      -0.496 -16.922 -35.580  0.00  0.00    -0.083 Cl
ATOM     20  C   UNK d   1       0.620 -14.475 -36.039  0.00  0.00     0.027 A 
ATOM     21  C   UNK d   1       1.394 -13.620 -36.789  0.00  0.00     0.033 A 
ATOM     22  C   UNK d   1       2.028 -14.006 -37.959  0.00  0.00     0.059 A 
ATOM     23  C   UNK d   1       1.865 -15.310 -38.376  0.00  0.00     0.050 A 
BRANCH  22  24
ATOM     24  N   UNK d   1       2.817 -13.068 -38.689  0.00  0.00    -0.245 N 
ATOM     25  N   UNK d   1       3.387 -11.969 -38.261  0.00  0.00    -0.180 NA
ATOM     26  C   UNK d   1       4.050 -11.365 -39.290  0.00  0.00     0.140 A 
ATOM     27  C   UNK d   1       3.880 -12.137 -40.417  0.00  0.00     0.040 A 
ATOM     28  C   UNK d   1       3.090 -13.211 -39.998  0.00  0.00     0.120 A 
ENDBRANCH  22  24
ENDBRANCH   1  17
TORSDOF 2
ENDMDL
