/Users/jonathanwahrer/Desktop/Msc/3_Semester/Drug_Design_Praktikum/waehrer_HTS_screening/HTS_experiment/out/docking_results/vina_output/6y4q/1624_docked.pdbqt
 OpenBabel03232218333D

 32 35  0  0  1  0  0  0  0  0999 V2000
    0.9320  -16.6220  -36.9760 C   0  0  1  0  0  3  0  0  0  0  0  0
   -0.2040  -16.9380  -37.8620 N   0  0  0  0  0  0  0  0  0  0  0  0
    0.3150  -17.3250  -39.1280 C   0  0  0  0  0  0  0  0  0  0  0  0
   -0.2740  -17.3210  -40.2110 O   0  0  0  0  0  0  0  0  0  0  0  0
    1.7140  -17.7450  -38.9170 C   0  0  0  0  0  0  0  0  0  0  0  0
    2.5460  -18.1610  -39.7860 O   0  0  0  0  0  0  0  0  0  0  0  0
    1.9610  -17.5830  -37.4930 C   0  0  0  0  0  0  0  0  0  0  0  0
    2.9370  -18.1680  -36.8440 C   0  0  0  0  0  0  0  0  0  0  0  0
    3.0810  -17.8860  -35.4890 O   0  0  0  0  0  1  0  0  0  0  0  0
   -1.5650  -16.8440  -37.4010 C   0  0  0  0  0  2  0  0  0  0  0  0
   -1.9850  -17.8610  -36.4100 C   0  0  0  0  0  2  0  0  0  0  0  0
   -2.4920  -19.0990  -36.8720 N   0  0  0  0  0  4  0  0  0  0  0  0
   -1.4710  -20.0420  -37.2760 C   0  0  0  0  0  2  0  0  0  0  0  0
   -1.6340  -20.5440  -38.6900 C   0  0  0  0  0  2  0  0  0  0  0  0
   -2.8960  -20.9760  -39.0060 O   0  0  0  0  0  0  0  0  0  0  0  0
   -3.8950  -20.1050  -38.6110 C   0  0  0  0  0  2  0  0  0  0  0  0
   -3.2760  -18.8400  -38.0980 C   0  0  0  0  0  2  0  0  0  0  0  0
   -3.1770  -19.5320  -36.2300 H   0  0  0  0  0  0  0  0  0  0  0  0
    1.3170  -15.2270  -37.1480 C   0  0  0  0  0  0  0  0  0  0  0  0
    1.9180  -14.7570  -38.2710 C   0  0  0  0  0  3  0  0  0  0  0  0
    2.2800  -13.4290  -38.4430 C   0  0  0  0  0  3  0  0  0  0  0  0
    2.0290  -12.5350  -37.4440 C   0  0  0  0  0  0  0  0  0  0  0  0
    2.4560  -10.8530  -37.5960 Cl  0  0  0  0  0  0  0  0  0  0  0  0
    1.4110  -12.9870  -36.2760 C   0  0  0  0  0  3  0  0  0  0  0  0
    1.0620  -14.3100  -36.1290 C   0  0  0  0  0  3  0  0  0  0  0  0
    3.9010  -19.1050  -37.4110 C   0  0  0  0  0  0  0  0  0  0  0  0
    3.4270  -20.3850  -37.6790 C   0  0  0  0  0  3  0  0  0  0  0  0
    4.2680  -21.3080  -38.2340 C   0  0  0  0  0  3  0  0  0  0  0  0
    5.5800  -20.9950  -38.5330 C   0  0  0  0  0  0  0  0  0  0  0  0
    6.0440  -19.7250  -38.2660 C   0  0  0  0  0  3  0  0  0  0  0  0
    6.6090  -22.1990  -39.2370 Cl  0  0  0  0  0  0  0  0  0  0  0  0
    5.1850  -18.8010  -37.7060 C   0  0  0  0  0  3  0  0  0  0  0  0
  1 19  1  6  0  0  0
  2 10  1  0  0  0  0
  2  1  1  0  0  0  0
  3  5  1  0  0  0  0
  3  2  1  0  0  0  0
  4  3  2  0  0  0  0
  5  7  1  0  0  0  0
  6  5  2  0  0  0  0
  7  1  1  0  0  0  0
  7  8  2  0  0  0  0
  8  9  1  0  0  0  0
 10 11  1  0  0  0  0
 12 11  1  0  0  0  0
 12 18  1  0  0  0  0
 13 12  1  0  0  0  0
 14 13  1  0  0  0  0
 15 14  1  0  0  0  0
 15 16  1  0  0  0  0
 16 17  1  0  0  0  0
 17 12  1  0  0  0  0
 19 25  1  0  0  0  0
 20 19  2  0  0  0  0
 21 20  1  0  0  0  0
 21 22  2  0  0  0  0
 22 24  1  0  0  0  0
 23 22  1  0  0  0  0
 24 25  2  0  0  0  0
 26  8  1  0  0  0  0
 27 26  1  0  0  0  0
 28 27  2  0  0  0  0
 29 30  2  0  0  0  0
 29 28  1  0  0  0  0
 30 32  1  0  0  0  0
 31 29  1  0  0  0  0
 32 26  2  0  0  0  0
M  END
>  <Pose>
1

>  <Score>
-7.332

$$$$
