MODEL 1
REMARK VINA RESULT:    -6.892      0.000      0.000
REMARK INTER + INTRA:         -10.455
REMARK INTER:                  -9.309
REMARK INTRA:                  -1.146
REMARK UNBOUND:                -1.146
REMARK  6 active torsions:
REMARK  status: ('A' for Active; 'I' for Inactive)
REMARK    1  A    between atoms: C_10  and  C_27 
REMARK    2  A    between atoms: N_15  and  C_18 
REMARK    3  A    between atoms: C_18  and  C_19 
REMARK    4  A    between atoms: C_20  and  O_25 
REMARK    5  A    between atoms: C_27  and  C_28 
REMARK    6  A    between atoms: C_28  and  C_29 
REMARK       I    between atoms: C_29  and  N_31 
ROOT
ATOM      1 Cl   UNK d   1       3.438 -12.004 -39.925  0.00  0.00    -0.084 Cl
ATOM      2  C   UNK d   1       2.540 -13.397 -39.304  0.00  0.00     0.042 A 
ATOM      3  C   UNK d   1       2.290 -13.510 -37.958  0.00  0.00    -0.013 A 
ATOM      4  C   UNK d   1       1.584 -14.601 -37.468  0.00  0.00     0.051 A 
ATOM      5  C   UNK d   1       1.107 -15.606 -38.266  0.00  0.00     0.018 A 
ATOM      6  C   UNK d   1       1.377 -15.464 -39.636  0.00  0.00     0.014 A 
ATOM      7  C   UNK d   1       2.076 -14.386 -40.133  0.00  0.00     0.025 A 
ATOM      8  C   UNK d   1       0.421 -16.592 -37.447  0.00  0.00     0.279 A 
ATOM      9  N   UNK d   1      -0.980 -16.619 -37.858  0.00  0.00     0.113 N 
ATOM     10  C   UNK d   1      -1.067 -17.824 -38.637  0.00  0.00     0.237 C 
ATOM     11  C   UNK d   1      -0.284 -18.801 -37.791  0.00  0.00     0.128 C 
ATOM     12  C   UNK d   1       0.955 -17.980 -37.506  0.00  0.00     0.147 C 
ATOM     13  C   UNK d   1       1.863 -18.301 -38.589  0.00  0.00     0.235 C 
ATOM     14  O   UNK d   1       2.887 -17.665 -38.922  0.00  0.00    -0.272 OA
ATOM     15  N   UNK d   1       1.410 -19.480 -39.241  0.00  0.00    -0.283 N 
ATOM     16  C   UNK d   1       0.221 -19.941 -38.597  0.00  0.00     0.234 C 
ATOM     17  O   UNK d   1      -0.338 -21.062 -38.654  0.00  0.00    -0.272 OA
ATOM     18  C   UNK d   1       0.522 -16.077 -36.061  0.00  0.00     0.267 A 
ATOM     19  O   UNK d   1       0.063 -16.601 -35.003  0.00  0.00    -0.270 OA
ATOM     20  N   UNK d   1       1.241 -14.865 -36.114  0.00  0.00    -0.323 N 
ATOM     21  C   UNK d   1       2.789 -12.442 -37.048  0.00  0.00     0.052 C 
ATOM     22  H   UNK d   1      -1.209 -15.747 -38.381  0.00  0.00     0.318 HD
ATOM     23  H   UNK d   1       1.475 -14.267 -35.276  0.00  0.00     0.169 HD
ENDROOT
BRANCH  10  24
ATOM     24  C   UNK d   1      -2.503 -18.259 -38.826  0.00  0.00     0.045 C 
BRANCH  24  25
ATOM     25  C   UNK d   1      -3.345 -17.388 -37.917  0.00  0.00     0.105 C 
BRANCH  25  26
ATOM     26  C   UNK d   1      -3.723 -18.097 -36.670  0.00  0.00     0.215 C 
ATOM     27  O   UNK d   1      -2.955 -18.041 -35.667  0.00  0.00    -0.274 OA
ATOM     28  N   UNK d   1      -4.950 -18.813 -36.672  0.00  0.00    -0.370 N 
ATOM     29  H   UNK d   1      -5.751 -18.408 -37.186  0.00  0.00     0.159 HD
ATOM     30  H   UNK d   1      -4.974 -19.722 -36.144  0.00  0.00     0.159 HD
ENDBRANCH  25  26
ENDBRANCH  24  25
ENDBRANCH  10  24
BRANCH  15  31
ATOM     31  C   UNK d   1       1.993 -20.172 -40.375  0.00  0.00     0.176 C 
BRANCH  31  32
ATOM     32  C   UNK d   1       3.351 -20.665 -40.088  0.00  0.00    -0.006 A 
ATOM     33  C   UNK d   1       4.272 -20.651 -41.114  0.00  0.00     0.076 A 
ATOM     34  C   UNK d   1       5.550 -21.117 -40.838  0.00  0.00     0.037 A 
ATOM     35  C   UNK d   1       5.892 -21.575 -39.596  0.00  0.00     0.003 A 
ATOM     36  C   UNK d   1       4.945 -21.572 -38.600  0.00  0.00     0.001 A 
ATOM     37  C   UNK d   1       3.660 -21.123 -38.811  0.00  0.00     0.011 A 
BRANCH  33  38
ATOM     38  O   UNK d   1       3.905 -20.184 -42.359  0.00  0.00    -0.355 OA
ATOM     39  C   UNK d   1       4.750 -20.104 -43.463  0.00  0.00     0.210 C 
ENDBRANCH  33  38
ENDBRANCH  31  32
ENDBRANCH  15  31
TORSDOF 6
ENDMDL
