/Users/jonathanwahrer/Desktop/Msc/3_Semester/Drug_Design_Praktikum/waehrer_HTS_screening/HTS_experiment/out/docking_results/vina_output/6y4q/1630_docked.pdbqt
 OpenBabel03232218343D

 39 43  0  0  1  0  0  0  0  0999 V2000
    3.4380  -12.0040  -39.9250 Cl  0  0  0  0  0  0  0  0  0  0  0  0
    2.5400  -13.3970  -39.3040 C   0  0  0  0  0  0  0  0  0  0  0  0
    2.2900  -13.5100  -37.9580 C   0  0  0  0  0  0  0  0  0  0  0  0
    1.5840  -14.6010  -37.4680 C   0  0  0  0  0  0  0  0  0  0  0  0
    1.1070  -15.6060  -38.2660 C   0  0  0  0  0  0  0  0  0  0  0  0
    1.3770  -15.4640  -39.6360 C   0  0  0  0  0  3  0  0  0  0  0  0
    2.0760  -14.3860  -40.1330 C   0  0  0  0  0  3  0  0  0  0  0  0
    0.4210  -16.5920  -37.4470 C   0  0  1  0  0  0  0  0  0  0  0  0
   -0.9800  -16.6190  -37.8580 N   0  0  0  0  0  0  0  0  0  0  0  0
   -1.0670  -17.8240  -38.6370 C   0  0  1  0  0  3  0  0  0  0  0  0
   -0.2840  -18.8010  -37.7910 C   0  0  2  0  0  3  0  0  0  0  0  0
    0.9550  -17.9800  -37.5060 C   0  0  1  0  0  3  0  0  0  0  0  0
    1.8630  -18.3010  -38.5890 C   0  0  0  0  0  0  0  0  0  0  0  0
    2.8870  -17.6650  -38.9220 O   0  0  0  0  0  0  0  0  0  0  0  0
    1.4100  -19.4800  -39.2410 N   0  0  0  0  0  0  0  0  0  0  0  0
    0.2210  -19.9410  -38.5970 C   0  0  0  0  0  0  0  0  0  0  0  0
   -0.3380  -21.0620  -38.6540 O   0  0  0  0  0  0  0  0  0  0  0  0
    0.5220  -16.0770  -36.0610 C   0  0  0  0  0  0  0  0  0  0  0  0
    0.0630  -16.6010  -35.0030 O   0  0  0  0  0  0  0  0  0  0  0  0
    1.2410  -14.8650  -36.1140 N   0  0  0  0  0  0  0  0  0  0  0  0
    2.7890  -12.4420  -37.0480 C   0  0  0  0  0  1  0  0  0  0  0  0
   -1.2090  -15.7470  -38.3810 H   0  0  0  0  0  0  0  0  0  0  0  0
    1.4750  -14.2670  -35.2760 H   0  0  0  0  0  0  0  0  0  0  0  0
   -2.5030  -18.2590  -38.8260 C   0  0  0  0  0  2  0  0  0  0  0  0
   -3.3450  -17.3880  -37.9170 C   0  0  0  0  0  2  0  0  0  0  0  0
   -3.7230  -18.0970  -36.6700 C   0  0  0  0  0  0  0  0  0  0  0  0
   -2.9550  -18.0410  -35.6670 O   0  0  0  0  0  0  0  0  0  0  0  0
   -4.9500  -18.8130  -36.6720 N   0  0  0  0  0  0  0  0  0  0  0  0
   -5.7510  -18.4080  -37.1860 H   0  0  0  0  0  0  0  0  0  0  0  0
   -4.9740  -19.7220  -36.1440 H   0  0  0  0  0  0  0  0  0  0  0  0
    1.9930  -20.1720  -40.3750 C   0  0  0  0  0  2  0  0  0  0  0  0
    3.3510  -20.6650  -40.0880 C   0  0  0  0  0  0  0  0  0  0  0  0
    4.2720  -20.6510  -41.1140 C   0  0  0  0  0  0  0  0  0  0  0  0
    5.5500  -21.1170  -40.8380 C   0  0  0  0  0  3  0  0  0  0  0  0
    5.8920  -21.5750  -39.5960 C   0  0  0  0  0  3  0  0  0  0  0  0
    4.9450  -21.5720  -38.6000 C   0  0  0  0  0  3  0  0  0  0  0  0
    3.6600  -21.1230  -38.8110 C   0  0  0  0  0  3  0  0  0  0  0  0
    3.9050  -20.1840  -42.3590 O   0  0  0  0  0  0  0  0  0  0  0  0
    4.7500  -20.1040  -43.4630 C   0  0  0  0  0  1  0  0  0  0  0  0
  1  2  1  0  0  0  0
  2  3  1  0  0  0  0
  3  4  2  0  0  0  0
  3 21  1  0  0  0  0
  4 20  1  0  0  0  0
  5  4  1  0  0  0  0
  6  5  2  0  0  0  0
  7  6  1  0  0  0  0
  7  2  2  0  0  0  0
  8  5  1  6  0  0  0
  8 18  1  0  0  0  0
  9  8  1  0  0  0  0
 10 24  1  1  0  0  0
 10  9  1  0  0  0  0
 10 11  1  0  0  0  0
 11 16  1  6  0  0  0
 11 12  1  0  0  0  0
 12 13  1  6  0  0  0
 12  8  1  0  0  0  0
 14 13  2  0  0  0  0
 15 16  1  0  0  0  0
 15 13  1  0  0  0  0
 17 16  2  0  0  0  0
 18 19  2  0  0  0  0
 20 18  1  0  0  0  0
 20 23  1  0  0  0  0
 22  9  1  0  0  0  0
 24 25  1  0  0  0  0
 25 26  1  0  0  0  0
 26 27  2  0  0  0  0
 28 26  1  0  0  0  0
 28 30  1  0  0  0  0
 29 28  1  0  0  0  0
 31 32  1  0  0  0  0
 31 15  1  0  0  0  0
 32 37  1  0  0  0  0
 33 34  1  0  0  0  0
 33 32  2  0  0  0  0
 34 35  2  0  0  0  0
 35 36  1  0  0  0  0
 37 36  2  0  0  0  0
 38 33  1  0  0  0  0
 39 38  1  0  0  0  0
M  END
>  <Pose>
1

>  <Score>
-6.892

$$$$
