MODEL 1
REMARK VINA RESULT:    -7.806      0.000      0.000
REMARK INTER + INTRA:          -9.839
REMARK INTER:                  -9.175
REMARK INTRA:                  -0.663
REMARK UNBOUND:                -0.663
REMARK  3 active torsions:
REMARK  status: ('A' for Active; 'I' for Inactive)
REMARK    1  A    between atoms: C_4  and  C_8 
REMARK    2  A    between atoms: N_9  and  C_23 
REMARK    3  A    between atoms: C_15  and  C_17 
ROOT
ATOM      1  C   UNK d   1       0.855 -17.311 -37.069  0.00  0.00     0.185 C 
ATOM      2  N   UNK d   1      -0.264 -17.675 -37.891  0.00  0.00    -0.128 N 
ATOM      3  C   UNK d   1       0.179 -18.203 -39.137  0.00  0.00     0.314 C 
ATOM      4  O   UNK d   1      -0.503 -18.364 -40.190  0.00  0.00    -0.263 OA
ATOM      5  C   UNK d   1       1.611 -18.543 -38.994  0.00  0.00     0.251 C 
ATOM      6  O   UNK d   1       2.329 -19.029 -39.896  0.00  0.00    -0.282 OA
ATOM      7  C   UNK d   1       1.947 -18.186 -37.622  0.00  0.00     0.063 C 
ATOM      8  C   UNK d   1       3.055 -18.559 -37.017  0.00  0.00     0.130 C 
ATOM      9  O   UNK d   1       3.257 -18.087 -35.704  0.00  0.00    -0.190 OA
ENDROOT
BRANCH   1  10
ATOM     10  C   UNK d   1       1.211 -15.872 -37.143  0.00  0.00    -0.028 A 
ATOM     11  C   UNK d   1       1.815 -15.327 -38.269  0.00  0.00     0.033 A 
ATOM     12  C   UNK d   1       2.160 -14.001 -38.379  0.00  0.00     0.034 A 
ATOM     13 Cl   UNK d   1       2.917 -13.348 -39.815  0.00  0.00    -0.084 Cl
ATOM     14  C   UNK d   1       1.889 -13.175 -37.310  0.00  0.00     0.024 A 
ATOM     15  C   UNK d   1       1.290 -13.670 -36.171  0.00  0.00     0.002 A 
ATOM     16  C   UNK d   1       0.955 -15.003 -36.087  0.00  0.00     0.010 A 
ENDBRANCH   1  10
BRANCH   8  17
ATOM     17  C   UNK d   1       4.068 -19.420 -37.611  0.00  0.00     0.001 A 
ATOM     18  C   UNK d   1       5.356 -18.916 -37.840  0.00  0.00     0.014 A 
ATOM     19  C   UNK d   1       6.342 -19.717 -38.374  0.00  0.00     0.001 A 
ATOM     20  C   UNK d   1       6.121 -21.037 -38.706  0.00  0.00     0.000 A 
ATOM     21  C   UNK d   1       4.863 -21.551 -38.488  0.00  0.00     0.001 A 
ATOM     22  C   UNK d   1       3.865 -20.738 -37.948  0.00  0.00     0.014 A 
ENDBRANCH   8  17
BRANCH   2  23
ATOM     23  C   UNK d   1      -1.622 -17.533 -37.533  0.00  0.00     0.710 A 
ATOM     24  N   UNK d   1      -2.350 -16.669 -38.289  0.00  0.00    -0.200 N 
ATOM     25  C   UNK d   1      -3.642 -16.448 -38.053  0.00  0.00     0.107 A 
ATOM     26  H   UNK d   1      -1.902 -16.148 -39.093  0.00  0.00     0.183 HD
ATOM     27  C   UNK d   1      -4.237 -17.124 -37.013  0.00  0.00     0.037 A 
ATOM     28  C   UNK d   1      -3.479 -17.996 -36.259  0.00  0.00     0.138 A 
ATOM     29  N   UNK d   1      -2.175 -18.212 -36.503  0.00  0.00    -0.077 NA
ENDBRANCH   2  23
TORSDOF 3
ENDMDL
