MODEL 1
REMARK VINA RESULT:    -6.503      0.000      0.000
REMARK INTER + INTRA:          -8.879
REMARK INTER:                  -7.834
REMARK INTRA:                  -1.046
REMARK UNBOUND:                -1.046
REMARK  4 active torsions:
REMARK  status: ('A' for Active; 'I' for Inactive)
REMARK    1  A    between atoms: S_1  and  C_5 
REMARK    2  A    between atoms: C_9  and  O_11 
REMARK    3  A    between atoms: N_13  and  C_16 
REMARK    4  A    between atoms: C_16  and  C_17 
ROOT
ATOM      1  C   UNK d   1      -2.300 -17.602 -36.706  0.00  0.00     0.249 A 
ATOM      2  N   UNK d   1      -1.660 -17.886 -37.846  0.00  0.00    -0.223 NA
ATOM      3  C   UNK d   1      -0.337 -17.901 -37.979  0.00  0.00     0.051 A 
ATOM      4  C   UNK d   1       0.424 -17.587 -36.842  0.00  0.00     0.048 A 
ATOM      5  C   UNK d   1      -0.227 -17.301 -35.695  0.00  0.00     0.175 A 
ATOM      6  N   UNK d   1      -1.588 -17.313 -35.632  0.00  0.00    -0.194 NA
ATOM      7  C   UNK d   1       1.867 -17.478 -37.075  0.00  0.00     0.318 C 
ATOM      8  N   UNK d   1       2.010 -16.614 -38.206  0.00  0.00     0.097 N 
ATOM      9  C   UNK d   1       1.726 -17.554 -39.380  0.00  0.00     0.279 C 
ATOM     10  C   UNK d   1       0.391 -18.196 -39.242  0.00  0.00     0.090 C 
ENDROOT
BRANCH   8  11
ATOM     11  C   UNK d   1       0.925 -15.592 -38.428  0.00  0.00     0.319 C 
BRANCH  11  12
ATOM     12  C   UNK d   1       1.751 -14.319 -38.230  0.00  0.00     0.068 A 
ATOM     13  C   UNK d   1       2.505 -13.720 -39.162  0.00  0.00     0.061 A 
ATOM     14  C   UNK d   1       3.255 -12.534 -38.934  0.00  0.00     0.020 A 
ATOM     15 Cl   UNK d   1       2.524 -14.392 -40.757  0.00  0.00    -0.083 Cl
ATOM     16  C   UNK d   1       3.144 -12.021 -37.638  0.00  0.00     0.091 A 
ATOM     17  C   UNK d   1       4.031 -11.897 -39.841  0.00  0.00     0.016 A 
ATOM     18  C   UNK d   1       3.842 -10.883 -37.360  0.00  0.00     0.038 A 
ATOM     19  O   UNK d   1       2.412 -12.583 -36.739  0.00  0.00    -0.274 OA
ATOM     20  C   UNK d   1       4.660 -10.203 -38.289  0.00  0.00     0.003 A 
ATOM     21  C   UNK d   1       4.736 -10.755 -39.581  0.00  0.00     0.001 A 
ATOM     22  C   UNK d   1       1.716 -13.705 -36.980  0.00  0.00     0.298 A 
ATOM     23  O   UNK d   1       0.996 -14.263 -36.065  0.00  0.00    -0.259 OA
ENDBRANCH  11  12
ENDBRANCH   8  11
BRANCH   5  24
ATOM     24  O   UNK d   1       0.522 -17.003 -34.567  0.00  0.00    -0.344 OA
ATOM     25  H   UNK d   1       1.545 -17.062 -34.528  0.00  0.00     0.219 HD
ENDBRANCH   5  24
BRANCH   1  26
ATOM     26  S   UNK d   1      -4.072 -17.528 -36.732  0.00  0.00     0.207 S 
ATOM     27  O   UNK d   1      -4.570 -16.177 -36.602  0.00  0.00    -0.220 OA
ATOM     28  O   UNK d   1      -4.550 -18.413 -35.620  0.00  0.00    -0.220 OA
ATOM     29  C   UNK d   1      -4.560 -18.312 -38.289  0.00  0.00     0.170 C 
ENDBRANCH   1  26
TORSDOF 4
ENDMDL
