MODEL 1
REMARK VINA RESULT:    -5.704      0.000      0.000
REMARK INTER + INTRA:          -9.386
REMARK INTER:                  -7.871
REMARK INTRA:                  -1.515
REMARK UNBOUND:                -1.515
REMARK  7 active torsions:
REMARK  status: ('A' for Active; 'I' for Inactive)
REMARK    1  A    between atoms: S_1  and  C_4 
REMARK    2  A    between atoms: S_1  and  C_26 
REMARK    3  A    between atoms: C_5  and  N_25 
REMARK    4  A    between atoms: C_7  and  N_10 
REMARK    5  A    between atoms: C_13  and  N_16 
REMARK    6  A    between atoms: C_13  and  C_22 
REMARK       I    between atoms: C_22  and  N_24 
REMARK    7  A    between atoms: C_27  and  O_33 
ROOT
ATOM      1  C   UNK d   1       3.683 -20.183 -39.288  0.00  0.00     0.128 A 
ATOM      2  C   UNK d   1       4.197 -19.328 -38.323  0.00  0.00     0.164 A 
ATOM      3  N   UNK d   1       3.360 -18.499 -37.642  0.00  0.00    -0.044 NA
ATOM      4  C   UNK d   1       2.038 -18.467 -37.860  0.00  0.00     0.726 A 
ATOM      5  N   UNK d   1       1.535 -19.292 -38.793  0.00  0.00    -0.073 NA
ATOM      6  C   UNK d   1       2.321 -20.129 -39.492  0.00  0.00     0.164 A 
ENDROOT
BRANCH   4   7
ATOM      7  N   UNK d   1       1.162 -17.601 -37.142  0.00  0.00    -0.214 N 
ATOM      8  C   UNK d   1       1.606 -16.821 -36.013  0.00  0.00     0.144 C 
ATOM      9  C   UNK d   1       1.331 -15.347 -36.131  0.00  0.00     0.072 C 
ATOM     10  C   UNK d   1       0.165 -15.053 -37.061  0.00  0.00     0.241 C 
ATOM     11  C   UNK d   1      -0.776 -16.251 -36.845  0.00  0.00     0.072 C 
ATOM     12  C   UNK d   1      -0.234 -17.468 -37.517  0.00  0.00     0.144 C 
BRANCH  10  13
ATOM     13  N   UNK d   1       0.488 -14.969 -38.404  0.00  0.00     0.107 N 
ATOM     14  C   UNK d   1       1.720 -14.440 -38.846  0.00  0.00     0.274 C 
ATOM     15  C   UNK d   1       2.096 -15.184 -40.139  0.00  0.00     0.030 C 
ATOM     16  C   UNK d   1       0.831 -15.723 -40.748  0.00  0.00     0.003 C 
ATOM     17  C   UNK d   1      -0.323 -14.759 -40.632  0.00  0.00     0.030 C 
ATOM     18  C   UNK d   1      -0.541 -14.342 -39.187  0.00  0.00     0.274 C 
ENDBRANCH  10  13
BRANCH  10  19
ATOM     19  C   UNK d   1      -0.555 -13.876 -36.523  0.00  0.00     0.255 C 
ATOM     20  O   UNK d   1      -1.828 -13.879 -36.429  0.00  0.00    -0.271 OA
ATOM     21  N   UNK d   1       0.087 -12.710 -36.092  0.00  0.00    -0.368 N 
ATOM     22  H   UNK d   1       0.038 -11.856 -36.712  0.00  0.00     0.159 HD
ATOM     23  H   UNK d   1       0.616 -12.582 -35.206  0.00  0.00     0.159 HD
ENDBRANCH  10  19
ENDBRANCH   4   7
BRANCH   2  24
ATOM     24  N   UNK d   1       5.585 -19.366 -38.098  0.00  0.00    -0.382 N 
ATOM     25  H   UNK d   1       6.293 -19.082 -38.807  0.00  0.00     0.157 HD
ATOM     26  H   UNK d   1       5.940 -19.696 -37.177  0.00  0.00     0.157 HD
ENDBRANCH   2  24
BRANCH   1  27
ATOM     27  S   UNK d   1       4.721 -21.269 -40.189  0.00  0.00     0.214 S 
ATOM     28  O   UNK d   1       5.784 -21.864 -39.324  0.00  0.00    -0.217 OA
ATOM     29  O   UNK d   1       3.841 -22.326 -40.807  0.00  0.00    -0.217 OA
BRANCH  27  30
ATOM     30  C   UNK d   1       5.452 -20.343 -41.509  0.00  0.00     0.099 A 
ATOM     31  C   UNK d   1       6.396 -20.932 -42.325  0.00  0.00     0.090 A 
ATOM     32  C   UNK d   1       6.939 -20.173 -43.340  0.00  0.00     0.040 A 
ATOM     33  C   UNK d   1       6.556 -18.852 -43.549  0.00  0.00     0.026 A 
ATOM     34  C   UNK d   1       5.609 -18.300 -42.713  0.00  0.00     0.035 A 
ATOM     35  C   UNK d   1       5.048 -19.034 -41.688  0.00  0.00     0.050 A 
ATOM     36 Cl   UNK d   1       5.110 -16.622 -42.964  0.00  0.00    -0.084 Cl
BRANCH  31  37
ATOM     37  O   UNK d   1       6.748 -22.231 -42.089  0.00  0.00    -0.354 OA
ATOM     38  C   UNK d   1       6.973 -23.203 -43.072  0.00  0.00     0.210 C 
ENDBRANCH  31  37
ENDBRANCH  27  30
ENDBRANCH   1  27
TORSDOF 7
ENDMDL
