MODEL 1
REMARK VINA RESULT:    -6.434      0.000      0.000
REMARK INTER + INTRA:          -6.434
REMARK INTER:                  -6.434
REMARK INTRA:                   0.000
REMARK UNBOUND:                 0.000
REMARK  0 active torsions:
REMARK  status: ('A' for Active; 'I' for Inactive)
ROOT
ATOM      1 Cl   UNK d   1       1.537 -13.575 -36.080  0.00  0.00    -0.084 Cl
ATOM      2  C   UNK d   1       0.968 -15.189 -36.513  0.00  0.00     0.034 A 
ATOM      3  C   UNK d   1       1.689 -16.010 -37.345  0.00  0.00     0.034 A 
ATOM      4  C   UNK d   1       1.216 -17.289 -37.674  0.00  0.00    -0.006 A 
ATOM      5  C   UNK d   1       0.031 -17.759 -37.183  0.00  0.00     0.044 A 
ATOM      6  C   UNK d   1      -0.714 -16.924 -36.330  0.00  0.00     0.032 A 
ATOM      7  C   UNK d   1      -0.222 -15.678 -36.028  0.00  0.00     0.026 A 
ATOM      8  N   UNK d   1      -0.257 -19.070 -37.640  0.00  0.00    -0.321 N 
ATOM      9  C   UNK d   1       0.822 -19.449 -38.476  0.00  0.00     0.242 A 
ATOM     10  O   UNK d   1       0.900 -20.568 -39.062  0.00  0.00    -0.271 OA
ATOM     11  C   UNK d   1       1.803 -18.343 -38.537  0.00  0.00     0.111 A 
ATOM     12  C   UNK d   1       1.874 -17.901 -39.983  0.00  0.00     0.132 C 
ATOM     13  C   UNK d   1       2.584 -19.015 -40.698  0.00  0.00     0.225 C 
ATOM     14  O   UNK d   1       2.120 -19.587 -41.702  0.00  0.00    -0.273 OA
ATOM     15  N   UNK d   1       3.853 -19.404 -40.158  0.00  0.00    -0.311 N 
ATOM     16  C   UNK d   1       4.098 -19.246 -38.766  0.00  0.00     0.133 A 
ATOM     17  N   UNK d   1       5.177 -19.509 -37.980  0.00  0.00    -0.262 N 
ATOM     18  N   UNK d   1       4.880 -19.169 -36.750  0.00  0.00    -0.185 NA
ATOM     19  C   UNK d   1       3.632 -18.682 -36.672  0.00  0.00     0.151 A 
ATOM     20  C   UNK d   1       3.109 -18.726 -37.971  0.00  0.00     0.030 A 
ATOM     21  C   UNK d   1      -1.445 -19.861 -37.301  0.00  0.00     0.159 C 
ATOM     22  H   UNK d   1       4.600 -19.801 -40.769  0.00  0.00     0.170 HD
ATOM     23  H   UNK d   1       6.067 -19.915 -38.353  0.00  0.00     0.191 HD
ENDROOT
TORSDOF 0
ENDMDL
