MODEL 1
REMARK VINA RESULT:    -7.038      0.000      0.000
REMARK INTER + INTRA:          -8.324
REMARK INTER:                  -7.860
REMARK INTRA:                  -0.464
REMARK UNBOUND:                -0.464
REMARK  2 active torsions:
REMARK  status: ('A' for Active; 'I' for Inactive)
REMARK    1  A    between atoms: N_15  and  C_20 
REMARK       I    between atoms: C_21  and  N_23 
REMARK    2  A    between atoms: N_26  and  C_29 
ROOT
ATOM      1 Cl   UNK d   1      -0.234 -11.845 -36.014  0.00  0.00    -0.084 Cl
ATOM      2  C   UNK d   1      -0.117 -13.583 -36.321  0.00  0.00     0.035 A 
ATOM      3  C   UNK d   1      -1.231 -14.295 -36.710  0.00  0.00     0.043 A 
ATOM      4  C   UNK d   1      -1.137 -15.628 -36.947  0.00  0.00     0.060 A 
ATOM      5  C   UNK d   1       0.089 -16.290 -36.798  0.00  0.00     0.045 A 
ATOM      6  C   UNK d   1       1.187 -15.560 -36.409  0.00  0.00     0.032 A 
ATOM      7  C   UNK d   1       1.108 -14.195 -36.163  0.00  0.00     0.026 A 
ATOM      8  N   UNK d   1       0.196 -17.688 -37.045  0.00  0.00    -0.363 N 
ATOM      9  C   UNK d   1      -0.741 -18.313 -37.967  0.00  0.00     0.108 C 
ATOM     10  N   UNK d   1      -2.056 -17.855 -37.583  0.00  0.00    -0.330 N 
ATOM     11  C   UNK d   1      -2.257 -16.469 -37.361  0.00  0.00     0.255 C 
ATOM     12  O   UNK d   1      -3.373 -15.905 -37.504  0.00  0.00    -0.268 OA
ATOM     13  C   UNK d   1      -0.643 -19.793 -37.809  0.00  0.00     0.074 C 
ATOM     14  C   UNK d   1       0.434 -20.419 -38.665  0.00  0.00     0.130 C 
ATOM     15  N   UNK d   1       1.690 -19.705 -38.564  0.00  0.00    -0.344 N 
ATOM     16  C   UNK d   1       1.844 -18.317 -38.950  0.00  0.00     0.220 C 
ATOM     17  O   UNK d   1       2.952 -17.805 -38.670  0.00  0.00    -0.273 OA
ATOM     18  C   UNK d   1       0.898 -17.411 -39.621  0.00  0.00     0.107 C 
ATOM     19  C   UNK d   1      -0.523 -17.829 -39.386  0.00  0.00     0.063 C 
ATOM     20  H   UNK d   1       0.952 -18.201 -36.546  0.00  0.00     0.162 HD
ATOM     21  H   UNK d   1      -2.868 -18.492 -37.461  0.00  0.00     0.165 HD
ENDROOT
BRANCH  15  22
ATOM     22  C   UNK d   1       2.842 -20.331 -38.053  0.00  0.00     0.212 C 
ATOM     23  C   UNK d   1       3.839 -20.932 -38.909  0.00  0.00     0.171 C 
ATOM     24  O   UNK d   1       4.849 -21.429 -38.193  0.00  0.00    -0.175 OA
ATOM     25  N   UNK d   1       3.897 -21.064 -40.278  0.00  0.00    -0.359 N 
ATOM     26  C   UNK d   1       5.076 -21.741 -40.875  0.00  0.00     0.144 C 
ATOM     27  C   UNK d   1       2.937 -20.642 -41.221  0.00  0.00     0.144 C 
ATOM     28  C   UNK d   1       4.469 -22.695 -41.917  0.00  0.00     0.137 C 
ATOM     29  N   UNK d   1       3.104 -22.981 -41.627  0.00  0.00    -0.406 N 
ATOM     30  C   UNK d   1       2.190 -21.887 -41.777  0.00  0.00     0.137 C 
BRANCH  29  31
ATOM     31  C   UNK d   1       2.614 -24.235 -42.088  0.00  0.00     0.071 C 
ATOM     32  C   UNK d   1       1.231 -24.161 -42.703  0.00  0.00     0.031 C 
ATOM     33  C   UNK d   1       3.543 -24.929 -43.046  0.00  0.00     0.031 C 
ENDBRANCH  29  31
ENDBRANCH  15  22
TORSDOF 2
ENDMDL
