/Users/jonathanwahrer/Desktop/Msc/3_Semester/Drug_Design_Praktikum/waehrer_HTS_screening/HTS_experiment/out/docking_results/vina_output/6y4q/1657_docked.pdbqt
 OpenBabel03232218353D

 33 36  0  0  1  0  0  0  0  0999 V2000
   -0.2340  -11.8450  -36.0140 Cl  0  0  0  0  0  0  0  0  0  0  0  0
   -0.1170  -13.5830  -36.3210 C   0  0  0  0  0  0  0  0  0  0  0  0
   -1.2310  -14.2950  -36.7100 C   0  0  0  0  0  3  0  0  0  0  0  0
   -1.1370  -15.6280  -36.9470 C   0  0  0  0  0  0  0  0  0  0  0  0
    0.0890  -16.2900  -36.7980 C   0  0  0  0  0  0  0  0  0  0  0  0
    1.1870  -15.5600  -36.4090 C   0  0  0  0  0  3  0  0  0  0  0  0
    1.1080  -14.1950  -36.1630 C   0  0  0  0  0  3  0  0  0  0  0  0
    0.1960  -17.6880  -37.0450 N   0  0  0  0  0  0  0  0  0  0  0  0
   -0.7410  -18.3130  -37.9670 C   0  0  2  0  0  0  0  0  0  0  0  0
   -2.0560  -17.8550  -37.5830 N   0  0  0  0  0  0  0  0  0  0  0  0
   -2.2570  -16.4690  -37.3610 C   0  0  0  0  0  0  0  0  0  0  0  0
   -3.3730  -15.9050  -37.5040 O   0  0  0  0  0  0  0  0  0  0  0  0
   -0.6430  -19.7930  -37.8090 C   0  0  0  0  0  2  0  0  0  0  0  0
    0.4340  -20.4190  -38.6650 C   0  0  0  0  0  2  0  0  0  0  0  0
    1.6900  -19.7050  -38.5640 N   0  0  0  0  0  0  0  0  0  0  0  0
    1.8440  -18.3170  -38.9500 C   0  0  0  0  0  0  0  0  0  0  0  0
    2.9520  -17.8050  -38.6700 O   0  0  0  0  0  0  0  0  0  0  0  0
    0.8980  -17.4110  -39.6210 C   0  0  0  0  0  2  0  0  0  0  0  0
   -0.5230  -17.8290  -39.3860 C   0  0  0  0  0  2  0  0  0  0  0  0
    0.9520  -18.2010  -36.5460 H   0  0  0  0  0  0  0  0  0  0  0  0
   -2.8680  -18.4920  -37.4610 H   0  0  0  0  0  0  0  0  0  0  0  0
    2.8420  -20.3310  -38.0530 C   0  0  0  0  0  2  0  0  0  0  0  0
    3.8390  -20.9320  -38.9090 C   0  0  0  0  0  0  0  0  0  0  0  0
    4.8490  -21.4290  -38.1930 O   0  0  0  0  0  0  0  0  0  0  0  0
    3.8970  -21.0640  -40.2780 N   0  0  0  0  0  0  0  0  0  0  0  0
    5.0760  -21.7410  -40.8750 C   0  0  0  0  0  2  0  0  0  0  0  0
    2.9370  -20.6420  -41.2210 C   0  0  0  0  0  2  0  0  0  0  0  0
    4.4690  -22.6950  -41.9170 C   0  0  0  0  0  2  0  0  0  0  0  0
    3.1040  -22.9810  -41.6270 N   0  0  0  0  0  0  0  0  0  0  0  0
    2.1900  -21.8870  -41.7770 C   0  0  0  0  0  2  0  0  0  0  0  0
    2.6140  -24.2350  -42.0880 C   0  0  0  0  0  3  0  0  0  0  0  0
    1.2310  -24.1610  -42.7030 C   0  0  0  0  0  1  0  0  0  0  0  0
    3.5430  -24.9290  -43.0460 C   0  0  0  0  0  1  0  0  0  0  0  0
  2  7  1  0  0  0  0
  2  1  1  0  0  0  0
  3  2  2  0  0  0  0
  4  5  2  0  0  0  0
  4  3  1  0  0  0  0
  5  6  1  0  0  0  0
  6  7  2  0  0  0  0
  8  5  1  0  0  0  0
  8 20  1  0  0  0  0
  9 19  1  6  0  0  0
  9 13  1  0  0  0  0
  9 10  1  0  0  0  0
  9  8  1  0  0  0  0
 10 21  1  0  0  0  0
 10 11  1  0  0  0  0
 11  4  1  0  0  0  0
 12 11  2  0  0  0  0
 14 15  1  0  0  0  0
 14 13  1  0  0  0  0
 15 22  1  0  0  0  0
 16 17  2  0  0  0  0
 16 15  1  0  0  0  0
 18 19  1  0  0  0  0
 18 16  1  0  0  0  0
 23 24  2  0  0  0  0
 23 22  1  0  0  0  0
 25 23  1  0  0  0  0
 26 25  1  0  0  0  0
 27 25  1  0  0  0  0
 28 29  1  0  0  0  0
 28 26  1  0  0  0  0
 30 29  1  0  0  0  0
 30 27  1  0  0  0  0
 31 29  1  0  0  0  0
 32 31  1  0  0  0  0
 33 31  1  0  0  0  0
M  END
>  <Pose>
1

>  <Score>
-7.038

$$$$
