/Users/jonathanwahrer/Desktop/Msc/3_Semester/Drug_Design_Praktikum/waehrer_HTS_screening/HTS_experiment/out/docking_results/vina_output/6y4q/1660_docked.pdbqt
 OpenBabel03232218353D

 31 34  0  0  0  0  0  0  0  0999 V2000
    3.7960  -22.2290  -41.1610 N   0  0  0  0  0  0  0  0  0  0  0  0
    2.8130  -22.9220  -41.6700 N   0  0  0  0  0  0  0  0  0  0  0  0
    3.1990  -23.6830  -42.7000 C   0  0  0  0  0  3  0  0  0  0  0  0
    4.5580  -23.4590  -42.8740 C   0  0  0  0  0  0  0  0  0  0  0  0
    4.8950  -22.5380  -41.8870 C   0  0  0  0  0  0  0  0  0  0  0  0
    6.1730  -22.1530  -41.8490 N   0  0  0  0  0  0  0  0  0  0  0  0
    7.0850  -22.6330  -42.7230 C   0  0  0  0  0  3  0  0  0  0  0  0
    6.7900  -23.5210  -43.6850 N   0  0  0  0  0  0  0  0  0  0  0  0
    5.4990  -23.9370  -43.7550 C   0  0  0  0  0  0  0  0  0  0  0  0
    5.1760  -24.7670  -44.6410 O   0  0  0  0  0  0  0  0  0  0  0  0
    7.7800  -24.0570  -44.6250 C   0  0  0  0  0  2  0  0  0  0  0  0
    8.5300  -25.1890  -44.0550 C   0  0  0  0  0  0  0  0  0  0  0  0
    7.8570  -25.9230  -43.2480 O   0  0  0  0  0  0  0  0  0  0  0  0
    9.8580  -25.5280  -44.3030 N   0  0  0  0  0  0  0  0  0  0  0  0
   10.4960  -26.6570  -43.6080 C   0  0  0  0  0  2  0  0  0  0  0  0
   10.6860  -24.8320  -45.2630 C   0  0  0  0  0  2  0  0  0  0  0  0
   11.5870  -26.0020  -42.7510 C   0  0  0  0  0  2  0  0  0  0  0  0
   12.4140  -25.1470  -43.5610 N   0  0  0  0  0  0  0  0  0  0  0  0
   12.1410  -25.1060  -44.9860 C   0  0  0  0  0  2  0  0  0  0  0  0
   13.4370  -24.3570  -42.9910 C   0  0  0  0  0  0  0  0  0  0  0  0
   13.5800  -24.4040  -41.7130 O   0  0  0  0  0  0  0  0  0  0  0  0
   14.3070  -23.5360  -43.6730 O   0  0  0  0  0  0  0  0  0  0  0  0
   14.3930  -22.1320  -43.3620 C   0  0  0  0  0  2  0  0  0  0  0  0
   13.0350  -21.5410  -43.6920 C   0  0  0  0  0  1  0  0  0  0  0  0
    3.7410  -21.3390  -40.0570 C   0  0  0  0  0  0  0  0  0  0  0  0
    4.4360  -21.4910  -38.8860 C   0  0  0  0  0  3  0  0  0  0  0  0
    4.2840  -20.5790  -37.8590 C   0  0  0  0  0  3  0  0  0  0  0  0
    3.4480  -19.4880  -37.9410 C   0  0  0  0  0  0  0  0  0  0  0  0
    3.2350  -18.3320  -36.6660 Cl  0  0  0  0  0  0  0  0  0  0  0  0
    2.7390  -19.3180  -39.1150 C   0  0  0  0  0  3  0  0  0  0  0  0
    2.9050  -20.2380  -40.1270 C   0  0  0  0  0  3  0  0  0  0  0  0
  1 25  1  0  0  0  0
  2  1  1  0  0  0  0
  3  2  2  0  0  0  0
  4  3  1  0  0  0  0
  4  5  2  0  0  0  0
  5  6  1  0  0  0  0
  5  1  1  0  0  0  0
  7  6  2  0  0  0  0
  8  7  1  0  0  0  0
  9  8  1  0  0  0  0
  9  4  1  0  0  0  0
 10  9  2  0  0  0  0
 11 12  1  0  0  0  0
 11  8  1  0  0  0  0
 12 13  2  0  0  0  0
 14 12  1  0  0  0  0
 14 15  1  0  0  0  0
 15 17  1  0  0  0  0
 16 19  1  0  0  0  0
 16 14  1  0  0  0  0
 18 20  1  0  0  0  0
 18 17  1  0  0  0  0
 19 18  1  0  0  0  0
 20 21  2  0  0  0  0
 22 23  1  0  0  0  0
 22 20  1  0  0  0  0
 24 23  1  0  0  0  0
 25 26  1  0  0  0  0
 26 27  2  0  0  0  0
 28 27  1  0  0  0  0
 28 29  1  0  0  0  0
 30 28  2  0  0  0  0
 31 25  2  0  0  0  0
 31 30  1  0  0  0  0
M  END
>  <Pose>
1

>  <Score>
-6.527

$$$$
