MODEL 1
REMARK VINA RESULT:    -6.527      0.000      0.000
REMARK INTER + INTRA:          -9.060
REMARK INTER:                  -8.435
REMARK INTRA:                  -0.625
REMARK UNBOUND:                -0.625
REMARK  5 active torsions:
REMARK  status: ('A' for Active; 'I' for Inactive)
REMARK    1  A    between atoms: C_5  and  N_8 
REMARK    2  A    between atoms: N_15  and  C_18 
REMARK    3  A    between atoms: C_18  and  C_19 
REMARK       I    between atoms: C_19  and  N_21 
REMARK       I    between atoms: N_24  and  C_27 
REMARK    4  A    between atoms: C_27  and  O_29 
REMARK    5  A    between atoms: O_29  and  C_30 
ROOT
ATOM      1  N   UNK d   1       3.796 -22.229 -41.161  0.00  0.00    -0.215 N 
ATOM      2  N   UNK d   1       2.813 -22.922 -41.670  0.00  0.00    -0.177 NA
ATOM      3  C   UNK d   1       3.199 -23.683 -42.700  0.00  0.00     0.160 A 
ATOM      4  C   UNK d   1       4.558 -23.459 -42.874  0.00  0.00     0.099 A 
ATOM      5  C   UNK d   1       4.895 -22.538 -41.887  0.00  0.00     0.169 A 
ATOM      6  N   UNK d   1       6.173 -22.153 -41.849  0.00  0.00    -0.223 NA
ATOM      7  C   UNK d   1       7.085 -22.633 -42.723  0.00  0.00     0.215 A 
ATOM      8  N   UNK d   1       6.790 -23.521 -43.685  0.00  0.00    -0.299 N 
ATOM      9  C   UNK d   1       5.499 -23.937 -43.755  0.00  0.00     0.264 A 
ATOM     10  O   UNK d   1       5.176 -24.767 -44.641  0.00  0.00    -0.267 OA
ENDROOT
BRANCH   8  11
ATOM     11  C   UNK d   1       7.780 -24.057 -44.625  0.00  0.00     0.236 C 
BRANCH  11  12
ATOM     12  C   UNK d   1       8.530 -25.189 -44.055  0.00  0.00     0.238 C 
ATOM     13  O   UNK d   1       7.857 -25.923 -43.248  0.00  0.00    -0.272 OA
ATOM     14  N   UNK d   1       9.858 -25.528 -44.303  0.00  0.00    -0.348 N 
ATOM     15  C   UNK d   1      10.496 -26.657 -43.608  0.00  0.00     0.145 C 
ATOM     16  C   UNK d   1      10.686 -24.832 -45.263  0.00  0.00     0.145 C 
ATOM     17  C   UNK d   1      11.587 -26.002 -42.751  0.00  0.00     0.148 C 
ATOM     18  N   UNK d   1      12.414 -25.147 -43.561  0.00  0.00    -0.325 N 
ATOM     19  C   UNK d   1      12.141 -25.106 -44.986  0.00  0.00     0.148 C 
ATOM     20  C   UNK d   1      13.437 -24.357 -42.991  0.00  0.00     0.362 C 
ATOM     21  O   UNK d   1      13.580 -24.404 -41.713  0.00  0.00    -0.238 OA
BRANCH  20  22
ATOM     22  O   UNK d   1      14.307 -23.536 -43.673  0.00  0.00    -0.304 OA
BRANCH  22  23
ATOM     23  C   UNK d   1      14.393 -22.132 -43.362  0.00  0.00     0.176 C 
ATOM     24  C   UNK d   1      13.035 -21.541 -43.692  0.00  0.00     0.034 C 
ENDBRANCH  22  23
ENDBRANCH  20  22
ENDBRANCH  11  12
ENDBRANCH   8  11
BRANCH   1  25
ATOM     25  C   UNK d   1       3.741 -21.339 -40.057  0.00  0.00     0.060 A 
ATOM     26  C   UNK d   1       4.436 -21.491 -38.886  0.00  0.00     0.033 A 
ATOM     27  C   UNK d   1       4.284 -20.579 -37.859  0.00  0.00     0.026 A 
ATOM     28  C   UNK d   1       3.448 -19.488 -37.941  0.00  0.00     0.034 A 
ATOM     29 Cl   UNK d   1       3.235 -18.332 -36.666  0.00  0.00    -0.084 Cl
ATOM     30  C   UNK d   1       2.739 -19.318 -39.115  0.00  0.00     0.026 A 
ATOM     31  C   UNK d   1       2.905 -20.238 -40.127  0.00  0.00     0.033 A 
ENDBRANCH   1  25
TORSDOF 5
ENDMDL
