MODEL 1
REMARK VINA RESULT:    -7.119      0.000      0.000
REMARK INTER + INTRA:         -10.188
REMARK INTER:                  -9.199
REMARK INTRA:                  -0.988
REMARK UNBOUND:                -0.988
REMARK  5 active torsions:
REMARK  status: ('A' for Active; 'I' for Inactive)
REMARK    1  A    between atoms: S_1  and  N_4 
REMARK    2  A    between atoms: S_1  and  C_24 
REMARK    3  A    between atoms: N_7  and  C_10 
REMARK    4  A    between atoms: C_10  and  C_11 
REMARK    5  A    between atoms: C_11  and  N_12 
ROOT
ATOM      1  N   UNK d   1       0.939 -14.903 -36.584  0.00  0.00    -0.303 N 
ATOM      2  C   UNK d   1      -0.287 -15.619 -36.349  0.00  0.00     0.165 C 
ATOM      3  C   UNK d   1      -0.273 -16.979 -37.010  0.00  0.00     0.293 C 
ATOM      4  N   UNK d   1       0.033 -16.838 -38.455  0.00  0.00     0.093 N 
ATOM      5  C   UNK d   1       1.386 -16.311 -38.566  0.00  0.00     0.293 C 
ATOM      6  C   UNK d   1       1.901 -15.712 -37.268  0.00  0.00     0.165 C 
ENDROOT
BRANCH   4   7
ATOM      7  C   UNK d   1       0.004 -18.199 -38.946  0.00  0.00     0.293 C 
BRANCH   7   8
ATOM      8  C   UNK d   1       0.588 -19.248 -38.100  0.00  0.00     0.165 C 
BRANCH   8   9
ATOM      9  N   UNK d   1       1.898 -19.732 -38.374  0.00  0.00    -0.286 N 
ATOM     10  C   UNK d   1       3.108 -19.610 -37.635  0.00  0.00     0.232 C 
ATOM     11  O   UNK d   1       3.368 -18.703 -36.831  0.00  0.00    -0.272 OA
ATOM     12  C   UNK d   1       3.999 -20.741 -37.986  0.00  0.00     0.100 C 
ATOM     13  C   UNK d   1       3.551 -21.008 -39.441  0.00  0.00     0.100 C 
ATOM     14  C   UNK d   1       5.385 -20.253 -38.217  0.00  0.00     0.022 C 
ATOM     15  C   UNK d   1       4.549 -20.324 -40.297  0.00  0.00     0.022 C 
ATOM     16  C   UNK d   1       2.177 -20.535 -39.543  0.00  0.00     0.232 C 
ATOM     17  C   UNK d   1       5.107 -19.249 -39.349  0.00  0.00     0.018 C 
ATOM     18  C   UNK d   1       5.779 -21.209 -40.305  0.00  0.00    -0.025 C 
ATOM     19  C   UNK d   1       6.089 -21.314 -39.012  0.00  0.00    -0.025 C 
ATOM     20  O   UNK d   1       1.400 -20.797 -40.495  0.00  0.00    -0.272 OA
ENDBRANCH   8   9
ENDBRANCH   7   8
ENDBRANCH   4   7
BRANCH   1  21
ATOM     21  S   UNK d   1       0.798 -13.294 -37.045  0.00  0.00     0.260 S 
ATOM     22  O   UNK d   1      -0.494 -13.146 -37.837  0.00  0.00    -0.200 OA
ATOM     23  O   UNK d   1       0.546 -12.471 -35.781  0.00  0.00    -0.200 OA
BRANCH  21  24
ATOM     24  C   UNK d   1       2.134 -12.584 -37.858  0.00  0.00     0.079 A 
ATOM     25  C   UNK d   1       2.297 -12.740 -39.213  0.00  0.00     0.026 A 
ATOM     26  C   UNK d   1       3.379 -12.144 -39.835  0.00  0.00     0.020 A 
ATOM     27  C   UNK d   1       4.313 -11.392 -39.145  0.00  0.00     0.011 A 
ATOM     28  C   UNK d   1       4.144 -11.238 -37.785  0.00  0.00     0.020 A 
ATOM     29 Br   UNK d   1       5.806 -10.572 -40.001  0.00  0.00    -0.051 Br
ATOM     30  C   UNK d   1       3.056 -11.837 -37.160  0.00  0.00     0.026 A 
ENDBRANCH  21  24
ENDBRANCH   1  21
TORSDOF 5
ENDMDL
