MODEL 1
REMARK VINA RESULT:    -6.659      0.000      0.000
REMARK INTER + INTRA:         -11.156
REMARK INTER:                  -9.383
REMARK INTRA:                  -1.773
REMARK UNBOUND:                -1.773
REMARK  7 active torsions:
REMARK  status: ('A' for Active; 'I' for Inactive)
REMARK    1  A    between atoms: C_5  and  C_8 
REMARK    2  A    between atoms: C_8  and  C_10 
REMARK    3  A    between atoms: N_12  and  C_17 
REMARK    4  A    between atoms: C_17  and  C_18 
REMARK    5  A    between atoms: C_18  and  N_19 
REMARK    6  A    between atoms: C_27  and  O_32 
REMARK    7  A    between atoms: O_32  and  C_33 
ROOT
ATOM      1  C   UNK d   1       0.503 -16.794 -37.469  0.00  0.00     0.167 C 
ATOM      2  C   UNK d   1       0.798 -18.236 -37.784  0.00  0.00     0.140 C 
ATOM      3  N   UNK d   1      -0.271 -18.716 -38.541  0.00  0.00    -0.334 N 
ATOM      4  C   UNK d   1      -1.429 -18.081 -37.867  0.00  0.00     0.291 C 
ATOM      5  O   UNK d   1      -2.588 -18.559 -37.736  0.00  0.00    -0.264 OA
ATOM      6  C   UNK d   1      -0.974 -16.787 -37.383  0.00  0.00     0.230 C 
ATOM      7  O   UNK d   1      -1.718 -15.853 -36.971  0.00  0.00    -0.286 OA
ATOM      8  C   UNK d   1       2.189 -18.574 -37.948  0.00  0.00    -0.031 A 
ATOM      9  C   UNK d   1       2.803 -18.857 -39.127  0.00  0.00     0.049 A 
ATOM     10  C   UNK d   1       4.156 -19.152 -39.181  0.00  0.00     0.105 A 
ATOM     11  C   UNK d   1       4.902 -19.160 -37.992  0.00  0.00     0.140 A 
ATOM     12  C   UNK d   1       4.283 -18.875 -36.809  0.00  0.00     0.043 A 
ATOM     13  C   UNK d   1       2.956 -18.584 -36.758  0.00  0.00     0.012 A 
ATOM     14  O   UNK d   1       6.252 -19.448 -37.990  0.00  0.00    -0.189 OA
ENDROOT
BRANCH   1  15
ATOM     15  C   UNK d   1       0.980 -15.835 -38.466  0.00  0.00     0.173 C 
ATOM     16  O   UNK d   1       0.773 -16.063 -39.708  0.00  0.00    -0.291 OA
BRANCH  15  17
ATOM     17  C   UNK d   1       1.693 -14.597 -38.187  0.00  0.00     0.011 A 
ATOM     18  C   UNK d   1       1.685 -14.016 -36.939  0.00  0.00     0.016 A 
ATOM     19  C   UNK d   1       2.366 -12.816 -36.765  0.00  0.00     0.020 A 
ATOM     20  C   UNK d   1       3.047 -12.178 -37.770  0.00  0.00     0.011 A 
ATOM     21 Br   UNK d   1       3.969 -10.515 -37.455  0.00  0.00    -0.051 Br
ATOM     22  C   UNK d   1       3.059 -12.756 -39.022  0.00  0.00     0.020 A 
ATOM     23  C   UNK d   1       2.385 -13.942 -39.194  0.00  0.00     0.016 A 
ENDBRANCH  15  17
ENDBRANCH   1  15
BRANCH   3  24
ATOM     24  C   UNK d   1      -0.585 -19.644 -39.582  0.00  0.00     0.154 C 
BRANCH  24  25
ATOM     25  C   UNK d   1      -0.899 -21.036 -39.180  0.00  0.00     0.255 C 
BRANCH  25  26
ATOM     26  N   UNK d   1      -2.213 -21.484 -38.990  0.00  0.00    -0.066 N 
ATOM     27  C   UNK d   1      -3.087 -21.197 -40.135  0.00  0.00     0.261 C 
ATOM     28  C   UNK d   1      -2.663 -21.906 -41.377  0.00  0.00     0.195 C 
ATOM     29  O   UNK d   1      -1.661 -22.802 -41.083  0.00  0.00    -0.388 OA
ATOM     30  C   UNK d   1      -2.134 -23.657 -40.074  0.00  0.00     0.195 C 
ATOM     31  C   UNK d   1      -2.211 -22.938 -38.744  0.00  0.00     0.261 C 
ATOM     32  H   UNK d   1      -2.659 -21.067 -38.177  0.00  0.00     0.280 HD
ENDBRANCH  25  26
ENDBRANCH  24  25
ENDBRANCH   3  24
BRANCH  10  33
ATOM     33  O   UNK d   1       4.798 -19.436 -40.343  0.00  0.00    -0.349 OA
BRANCH  33  34
ATOM     34  C   UNK d   1       4.582 -20.584 -41.098  0.00  0.00     0.171 C 
ATOM     35  C   UNK d   1       5.359 -21.792 -40.608  0.00  0.00     0.034 C 
ENDBRANCH  33  34
ENDBRANCH  10  33
TORSDOF 7
ENDMDL
