MODEL 1
REMARK VINA RESULT:    -6.008      0.000      0.000
REMARK INTER + INTRA:          -7.794
REMARK INTER:                  -7.061
REMARK INTRA:                  -0.733
REMARK UNBOUND:                -0.733
REMARK  3 active torsions:
REMARK  status: ('A' for Active; 'I' for Inactive)
REMARK    1  A    between atoms: C_9  and  C_11 
REMARK       I    between atoms: C_11  and  N_13 
REMARK    2  A    between atoms: N_13  and  C_14 
REMARK    3  A    between atoms: C_14  and  C_15 
ROOT
ATOM      1  C   UNK d   1       2.121 -14.005 -38.565  0.00  0.00     0.254 C 
ATOM      2  O   UNK d   1       1.519 -13.631 -37.540  0.00  0.00    -0.268 OA
ATOM      3  N   UNK d   1       1.948 -15.340 -39.009  0.00  0.00    -0.350 N 
ATOM      4  H   UNK d   1       2.441 -15.664 -39.857  0.00  0.00     0.163 HD
ENDROOT
BRANCH   1   5
ATOM      5  C   UNK d   1       2.977 -13.050 -39.260  0.00  0.00     0.063 A 
ATOM      6  C   UNK d   1       3.566 -12.039 -38.522  0.00  0.00     0.098 A 
ATOM      7  C   UNK d   1       4.376 -11.127 -39.154  0.00  0.00     0.111 A 
ATOM      8  N   UNK d   1       3.525 -11.710 -37.203  0.00  0.00    -0.257 N 
ATOM      9  C   UNK d   1       4.587 -11.237 -40.509  0.00  0.00     0.055 A 
ATOM     10  N   UNK d   1       4.805 -10.268 -38.198  0.00  0.00    -0.130 NA
ATOM     11  C   UNK d   1       4.002 -12.242 -41.250  0.00  0.00     0.014 A 
ATOM     12 Br   UNK d   1       4.313 -12.369 -43.132  0.00  0.00    -0.051 Br
ATOM     13  C   UNK d   1       3.193 -13.155 -40.626  0.00  0.00     0.038 A 
ATOM     14  N   UNK d   1       4.274 -10.653 -37.053  0.00  0.00    -0.067 NA
ATOM     15  H   UNK d   1       2.966 -12.266 -36.523  0.00  0.00     0.191 HD
ENDBRANCH   1   5
BRANCH   3  16
ATOM     16  C   UNK d   1       1.095 -16.262 -38.301  0.00  0.00     0.203 C 
BRANCH  16  17
ATOM     17  C   UNK d   1       1.952 -17.307 -37.638  0.00  0.00     0.148 A 
ATOM     18  N   UNK d   1       2.511 -18.381 -38.217  0.00  0.00    -0.319 N 
ATOM     19  C   UNK d   1       3.214 -19.098 -37.314  0.00  0.00     0.130 A 
ATOM     20  C   UNK d   1       2.498 -18.888 -39.571  0.00  0.00     0.132 C 
ATOM     21  N   UNK d   1       3.085 -18.451 -36.150  0.00  0.00    -0.135 NA
ATOM     22  C   UNK d   1       3.889 -20.323 -37.825  0.00  0.00     0.081 C 
ATOM     23  N   UNK d   1       2.320 -17.365 -36.343  0.00  0.00    -0.133 NA
ATOM     24  C   UNK d   1       4.736 -19.834 -39.009  0.00  0.00     0.009 C 
ATOM     25  C   UNK d   1       3.930 -19.084 -40.019  0.00  0.00     0.021 C 
ENDBRANCH  16  17
ENDBRANCH   3  16
TORSDOF 3
ENDMDL
