MODEL 1
REMARK VINA RESULT:    -6.284      0.000      0.000
REMARK INTER + INTRA:          -9.013
REMARK INTER:                  -8.120
REMARK INTRA:                  -0.893
REMARK UNBOUND:                -0.893
REMARK  5 active torsions:
REMARK  status: ('A' for Active; 'I' for Inactive)
REMARK    1  A    between atoms: N_7  and  C_11 
REMARK    2  A    between atoms: C_11  and  C_12 
REMARK    3  A    between atoms: C_12  and  N_13 
REMARK    4  A    between atoms: C_21  and  C_23 
REMARK    5  A    between atoms: C_23  and  O_25 
ROOT
ATOM      1  N   UNK d   1       1.436 -17.460 -36.839  0.00  0.00    -0.363 N 
ATOM      2  C   UNK d   1       2.751 -17.772 -36.816  0.00  0.00     0.110 A 
ATOM      3  C   UNK d   1       3.269 -18.823 -37.540  0.00  0.00     0.080 A 
ATOM      4  C   UNK d   1       2.381 -19.635 -38.363  0.00  0.00     0.111 A 
ATOM      5  N   UNK d   1       3.152 -20.567 -38.941  0.00  0.00    -0.170 NA
ATOM      6  N   UNK d   1       4.430 -20.416 -38.560  0.00  0.00    -0.242 N 
ATOM      7  C   UNK d   1       4.520 -19.373 -37.720  0.00  0.00     0.275 A 
ATOM      8  O   UNK d   1       5.588 -18.985 -37.194  0.00  0.00    -0.266 OA
ATOM      9  C   UNK d   1       1.040 -19.289 -38.363  0.00  0.00     0.086 A 
ATOM     10  C   UNK d   1       0.641 -18.223 -37.604  0.00  0.00     0.110 A 
ATOM     11  H   UNK d   1       5.197 -21.048 -38.903  0.00  0.00     0.192 HD
ENDROOT
BRANCH   1  12
ATOM     12  C   UNK d   1       0.922 -16.340 -36.060  0.00  0.00     0.148 C 
BRANCH  12  13
ATOM     13  C   UNK d   1       0.371 -15.314 -37.027  0.00  0.00     0.150 C 
BRANCH  13  14
ATOM     14  N   UNK d   1       1.299 -14.225 -37.241  0.00  0.00    -0.338 N 
ATOM     15  C   UNK d   1       1.667 -13.310 -36.320  0.00  0.00     0.210 A 
ATOM     16  N   UNK d   1       2.544 -12.442 -36.855  0.00  0.00    -0.242 NA
ATOM     17  C   UNK d   1       2.766 -12.782 -38.154  0.00  0.00     0.086 A 
ATOM     18  C   UNK d   1       3.557 -12.245 -39.149  0.00  0.00     0.057 A 
ATOM     19  C   UNK d   1       1.975 -13.895 -38.356  0.00  0.00     0.064 A 
ATOM     20  C   UNK d   1       3.570 -12.829 -40.398  0.00  0.00     0.036 A 
ATOM     21 Cl   UNK d   1       4.556 -12.198 -41.717  0.00  0.00    -0.084 Cl
ATOM     22  C   UNK d   1       2.774 -13.942 -40.589  0.00  0.00     0.026 A 
ATOM     23  C   UNK d   1       1.980 -14.485 -39.599  0.00  0.00     0.034 A 
ENDBRANCH  13  14
ENDBRANCH  12  13
ENDBRANCH   1  12
BRANCH   9  24
ATOM     24  C   UNK d   1       0.121 -20.078 -39.174  0.00  0.00     0.296 C 
ATOM     25  O   UNK d   1       0.062 -19.866 -40.412  0.00  0.00    -0.259 OA
BRANCH  24  26
ATOM     26  O   UNK d   1      -0.681 -21.043 -38.624  0.00  0.00    -0.322 OA
ATOM     27  C   UNK d   1      -2.022 -20.771 -38.250  0.00  0.00     0.213 C 
ENDBRANCH  24  26
ENDBRANCH   9  24
TORSDOF 5
ENDMDL
