MODEL 1
REMARK VINA RESULT:    -7.341      0.000      0.000
REMARK INTER + INTRA:         -10.444
REMARK INTER:                  -9.272
REMARK INTRA:                  -1.173
REMARK UNBOUND:                -1.173
REMARK  5 active torsions:
REMARK  status: ('A' for Active; 'I' for Inactive)
REMARK    1  A    between atoms: C_6  and  C_11 
REMARK    2  A    between atoms: C_11  and  C_12 
REMARK    3  A    between atoms: C_12  and  C_13 
REMARK       I    between atoms: C_13  and  N_15 
REMARK    4  A    between atoms: C_17  and  N_21 
REMARK    5  A    between atoms: C_18  and  O_20 
ROOT
ATOM      1  C   UNK d   1      -2.049 -17.674 -36.520  0.00  0.00     0.220 C 
ATOM      2  O   UNK d   1      -2.797 -18.070 -35.593  0.00  0.00    -0.273 OA
ATOM      3  N   UNK d   1      -1.800 -18.547 -37.600  0.00  0.00    -0.348 N 
ATOM      4  C   UNK d   1      -0.986 -18.375 -38.786  0.00  0.00     0.154 C 
ATOM      5  C   UNK d   1      -0.352 -19.683 -38.956  0.00  0.00     0.142 C 
ATOM      6  C   UNK d   1      -1.061 -20.656 -38.012  0.00  0.00     0.161 C 
ATOM      7  C   UNK d   1      -2.358 -19.867 -37.732  0.00  0.00     0.159 C 
ENDROOT
BRANCH   1   8
ATOM      8  C   UNK d   1      -1.471 -16.317 -36.424  0.00  0.00     0.110 C 
BRANCH   8   9
ATOM      9  C   UNK d   1      -0.044 -16.387 -35.974  0.00  0.00     0.087 C 
BRANCH   9  10
ATOM     10  C   UNK d   1       0.784 -15.368 -36.647  0.00  0.00     0.105 A 
ATOM     11  N   UNK d   1       1.338 -14.277 -36.049  0.00  0.00    -0.343 N 
ATOM     12  C   UNK d   1       2.025 -13.536 -36.932  0.00  0.00     0.064 A 
ATOM     13  H   UNK d   1       1.270 -14.003 -35.038  0.00  0.00     0.167 HD
ATOM     14  C   UNK d   1       2.759 -12.364 -36.858  0.00  0.00     0.055 A 
ATOM     15  C   UNK d   1       1.909 -14.176 -38.142  0.00  0.00     0.085 A 
ATOM     16  C   UNK d   1       3.370 -11.836 -37.987  0.00  0.00     0.036 A 
ATOM     17 Cl   UNK d   1       4.289 -10.355 -37.872  0.00  0.00    -0.084 Cl
ATOM     18  C   UNK d   1       3.256 -12.474 -39.203  0.00  0.00     0.026 A 
ATOM     19  C   UNK d   1       2.518 -13.647 -39.260  0.00  0.00     0.036 A 
ATOM     20  N   UNK d   1       1.162 -15.270 -37.949  0.00  0.00    -0.233 NA
ENDBRANCH   9  10
ENDBRANCH   8   9
ENDBRANCH   1   8
BRANCH   5  21
ATOM     21  N   UNK d   1       1.049 -19.839 -38.903  0.00  0.00    -0.300 N 
ATOM     22  C   UNK d   1       1.699 -19.314 -37.829  0.00  0.00     0.108 A 
ATOM     23  C   UNK d   1       3.064 -19.417 -37.683  0.00  0.00     0.022 A 
ATOM     24  C   UNK d   1       3.815 -20.065 -38.635  0.00  0.00     0.256 A 
ATOM     25  C   UNK d   1       3.765 -18.833 -36.493  0.00  0.00     0.056 C 
ATOM     26  O   UNK d   1       5.074 -20.174 -38.526  0.00  0.00    -0.267 OA
ATOM     27  N   UNK d   1       3.175 -20.583 -39.694  0.00  0.00    -0.275 N 
ATOM     28  C   UNK d   1       1.849 -20.452 -39.781  0.00  0.00     0.329 A 
ATOM     29  H   UNK d   1       3.734 -21.089 -40.448  0.00  0.00     0.173 HD
ATOM     30  O   UNK d   1       1.306 -20.956 -40.786  0.00  0.00    -0.246 OA
ENDBRANCH   5  21
BRANCH   6  31
ATOM     31  O   UNK d   1      -1.340 -21.867 -38.595  0.00  0.00    -0.392 OA
ATOM     32  H   UNK d   1      -0.784 -21.953 -39.409  0.00  0.00     0.210 HD
ENDBRANCH   6  31
TORSDOF 5
ENDMDL
