MODEL 1
REMARK VINA RESULT:    -7.183      0.000      0.000
REMARK INTER + INTRA:          -9.723
REMARK INTER:                  -9.073
REMARK INTRA:                  -0.651
REMARK UNBOUND:                -0.651
REMARK  5 active torsions:
REMARK  status: ('A' for Active; 'I' for Inactive)
REMARK    1  A    between atoms: C_6  and  C_11 
REMARK    2  A    between atoms: C_11  and  C_12 
REMARK    3  A    between atoms: C_12  and  C_13 
REMARK       I    between atoms: C_13  and  N_15 
REMARK    4  A    between atoms: C_17  and  N_21 
REMARK    5  A    between atoms: C_18  and  O_20 
ROOT
ATOM      1  C   UNK d   1      -0.420 -16.397 -36.373  0.00  0.00     0.220 C 
ATOM      2  O   UNK d   1      -0.253 -16.834 -35.218  0.00  0.00    -0.273 OA
ATOM      3  N   UNK d   1      -0.599 -17.286 -37.445  0.00  0.00    -0.348 N 
ATOM      4  C   UNK d   1      -0.624 -18.713 -37.502  0.00  0.00     0.154 C 
ATOM      5  C   UNK d   1       0.166 -19.061 -38.787  0.00  0.00     0.140 C 
ATOM      6  C   UNK d   1      -0.231 -17.912 -39.645  0.00  0.00     0.161 C 
ATOM      7  C   UNK d   1      -0.835 -16.839 -38.804  0.00  0.00     0.159 C 
ENDROOT
BRANCH   1   8
ATOM      8  C   UNK d   1      -0.428 -14.943 -36.600  0.00  0.00     0.110 C 
BRANCH   8   9
ATOM      9  C   UNK d   1       0.780 -14.300 -35.955  0.00  0.00     0.087 C 
BRANCH   9  10
ATOM     10  C   UNK d   1       1.634 -13.687 -37.025  0.00  0.00     0.105 A 
ATOM     11  N   UNK d   1       2.434 -12.622 -36.845  0.00  0.00    -0.343 N 
ATOM     12  C   UNK d   1       3.074 -12.304 -37.983  0.00  0.00     0.064 A 
ATOM     13  H   UNK d   1       2.567 -12.085 -35.946  0.00  0.00     0.167 HD
ATOM     14  C   UNK d   1       3.992 -11.309 -38.321  0.00  0.00     0.055 A 
ATOM     15  C   UNK d   1       2.649 -13.219 -38.923  0.00  0.00     0.085 A 
ATOM     16  C   UNK d   1       4.481 -11.235 -39.604  0.00  0.00     0.036 A 
ATOM     17 Cl   UNK d   1       5.640  -9.999 -40.081  0.00  0.00    -0.084 Cl
ATOM     18  C   UNK d   1       4.059 -12.144 -40.533  0.00  0.00     0.026 A 
ATOM     19  C   UNK d   1       3.142 -13.144 -40.209  0.00  0.00     0.036 A 
ATOM     20  N   UNK d   1       1.778 -14.041 -38.302  0.00  0.00    -0.233 NA
ENDBRANCH   9  10
ENDBRANCH   8   9
ENDBRANCH   1   8
BRANCH   5  21
ATOM     21  N   UNK d   1       1.564 -19.109 -38.466  0.00  0.00    -0.316 N 
ATOM     22  C   UNK d   1       2.526 -19.833 -39.061  0.00  0.00     0.149 A 
ATOM     23  C   UNK d   1       3.753 -19.566 -38.419  0.00  0.00     0.170 A 
ATOM     24  N   UNK d   1       2.497 -20.701 -40.092  0.00  0.00    -0.287 N 
ATOM     25  N   UNK d   1       3.477 -18.680 -37.448  0.00  0.00    -0.234 NA
ATOM     26  C   UNK d   1       4.919 -20.176 -38.824  0.00  0.00     0.283 A 
ATOM     27  C   UNK d   1       2.177 -18.397 -37.462  0.00  0.00     0.212 A 
ATOM     28  O   UNK d   1       6.000 -19.917 -38.230  0.00  0.00    -0.265 OA
ATOM     29  N   UNK d   1       4.848 -21.031 -39.851  0.00  0.00    -0.269 N 
ATOM     30  C   UNK d   1       3.684 -21.278 -40.453  0.00  0.00     0.332 A 
ATOM     31  C   UNK d   1       6.072 -21.695 -40.305  0.00  0.00     0.164 C 
ATOM     32  O   UNK d   1       3.635 -22.086 -41.417  0.00  0.00    -0.246 OA
ATOM     33  C   UNK d   1       1.286 -21.014 -40.782  0.00  0.00     0.163 C 
ENDBRANCH   5  21
BRANCH   6  34
ATOM     34  O   UNK d   1      -1.175 -18.248 -40.615  0.00  0.00    -0.392 OA
ATOM     35  H   UNK d   1      -0.894 -19.050 -41.139  0.00  0.00     0.210 HD
ENDBRANCH   6  34
TORSDOF 5
ENDMDL
