/Users/jonathanwahrer/Desktop/Msc/3_Semester/Drug_Design_Praktikum/waehrer_HTS_screening/HTS_experiment/out/docking_results/vina_output/6y4q/1699_docked.pdbqt
 OpenBabel03232218373D

 31 34  0  0  1  0  0  0  0  0999 V2000
    4.1990  -22.8220  -41.7930 Cl  0  0  0  0  0  0  0  0  0  0  0  0
    4.2280  -21.6840  -40.4860 C   0  0  0  0  0  0  0  0  0  0  0  0
    3.0840  -20.9920  -40.1180 C   0  0  0  0  0  3  0  0  0  0  0  0
    3.0920  -20.0830  -39.0800 C   0  0  0  0  0  0  0  0  0  0  0  0
    4.2690  -19.8790  -38.4140 C   0  0  0  0  0  0  0  0  0  0  0  0
    5.4430  -20.5570  -38.7540 C   0  0  0  0  0  3  0  0  0  0  0  0
    5.3990  -21.4580  -39.7950 C   0  0  0  0  0  3  0  0  0  0  0  0
    4.0830  -18.9000  -37.4000 N   0  0  0  0  0  0  0  0  0  0  0  0
    2.7300  -18.4750  -37.4400 C   0  0  0  0  0  0  0  0  0  0  0  0
    2.2980  -17.5700  -36.6540 O   0  0  0  0  0  0  0  0  0  0  0  0
    2.0570  -19.2450  -38.4780 C   0  0  2  0  0  0  0  0  0  0  0  0
    0.9520  -20.0440  -37.9410 N   0  0  0  0  0  0  0  0  0  0  0  0
   -0.0560  -19.0270  -37.7410 C   0  0  1  0  0  3  0  0  0  0  0  0
    0.0400  -18.1040  -38.9120 C   0  0  2  0  0  3  0  0  0  0  0  0
    1.3590  -18.4580  -39.5310 C   0  0  1  0  0  3  0  0  0  0  0  0
    2.0360  -17.1940  -39.9110 C   0  0  0  0  0  0  0  0  0  0  0  0
    3.1100  -17.1980  -40.5680 O   0  0  0  0  0  0  0  0  0  0  0  0
    1.2570  -16.1200  -39.4090 N   0  0  0  0  0  0  0  0  0  0  0  0
    0.2860  -16.6800  -38.5160 C   0  0  0  0  0  0  0  0  0  0  0  0
   -0.2810  -16.1280  -37.5680 O   0  0  0  0  0  0  0  0  0  0  0  0
    4.8240  -18.5460  -36.7250 H   0  0  0  0  0  0  0  0  0  0  0  0
    0.6390  -20.6480  -38.7340 H   0  0  0  0  0  0  0  0  0  0  0  0
   -1.4340  -19.6100  -37.5590 C   0  0  2  0  0  3  0  0  0  0  0  0
   -2.2800  -18.8080  -36.6050 C   0  0  0  0  0  1  0  0  0  0  0  0
   -1.2850  -20.9100  -37.0910 O   0  0  0  0  0  0  0  0  0  0  0  0
   -0.7230  -21.4680  -37.6860 H   0  0  0  0  0  0  0  0  0  0  0  0
    1.3990  -14.7500  -39.7280 C   0  0  0  0  0  2  0  0  0  0  0  0
    2.3410  -13.9210  -38.9480 C   0  0  0  0  0  2  0  0  0  0  0  0
    1.7920  -13.0960  -37.8490 C   0  0  0  0  0  2  0  0  0  0  0  0
    1.7200  -13.7050  -36.6050 O   0  0  0  0  0  0  0  0  0  0  0  0
    0.6910  -13.0600  -35.8780 C   0  0  0  0  0  1  0  0  0  0  0  0
  1  2  1  0  0  0  0
  2  3  2  0  0  0  0
  2  7  1  0  0  0  0
  3  4  1  0  0  0  0
  4  5  2  0  0  0  0
  5  8  1  0  0  0  0
  6  5  1  0  0  0  0
  7  6  2  0  0  0  0
  8 21  1  0  0  0  0
  9  8  1  0  0  0  0
  9 10  2  0  0  0  0
 11  4  1  6  0  0  0
 11 12  1  0  0  0  0
 11  9  1  0  0  0  0
 12 13  1  0  0  0  0
 13 23  1  6  0  0  0
 14 19  1  1  0  0  0
 14 13  1  0  0  0  0
 15 16  1  1  0  0  0
 15 14  1  0  0  0  0
 15 11  1  0  0  0  0
 16 18  1  0  0  0  0
 17 16  2  0  0  0  0
 18 19  1  0  0  0  0
 19 20  2  0  0  0  0
 22 12  1  0  0  0  0
 23 25  1  0  0  0  0
 23 24  1  1  0  0  0
 26 25  1  0  0  0  0
 27 18  1  0  0  0  0
 27 28  1  0  0  0  0
 28 29  1  0  0  0  0
 29 30  1  0  0  0  0
 30 31  1  0  0  0  0
M  END
>  <Pose>
1

>  <Score>
-6.087

$$$$
