MODEL 1
REMARK VINA RESULT:    -6.087      0.000      0.000
REMARK INTER + INTRA:          -8.828
REMARK INTER:                  -8.044
REMARK INTRA:                  -0.784
REMARK UNBOUND:                -0.784
REMARK  6 active torsions:
REMARK  status: ('A' for Active; 'I' for Inactive)
REMARK    1  A    between atoms: C_13  and  C_26 
REMARK    2  A    between atoms: N_18  and  C_21 
REMARK    3  A    between atoms: C_21  and  C_22 
REMARK    4  A    between atoms: C_22  and  C_23 
REMARK    5  A    between atoms: C_23  and  O_24 
REMARK    6  A    between atoms: C_26  and  O_27 
ROOT
ATOM      1 Cl   UNK d   1       4.199 -22.822 -41.793  0.00  0.00    -0.084 Cl
ATOM      2  C   UNK d   1       4.228 -21.684 -40.486  0.00  0.00     0.034 A 
ATOM      3  C   UNK d   1       3.084 -20.992 -40.118  0.00  0.00     0.036 A 
ATOM      4  C   UNK d   1       3.092 -20.083 -39.080  0.00  0.00     0.019 A 
ATOM      5  C   UNK d   1       4.269 -19.879 -38.414  0.00  0.00     0.044 A 
ATOM      6  C   UNK d   1       5.443 -20.557 -38.754  0.00  0.00     0.032 A 
ATOM      7  C   UNK d   1       5.399 -21.458 -39.795  0.00  0.00     0.026 A 
ATOM      8  N   UNK d   1       4.083 -18.900 -37.400  0.00  0.00    -0.324 N 
ATOM      9  C   UNK d   1       2.730 -18.475 -37.440  0.00  0.00     0.267 A 
ATOM     10  O   UNK d   1       2.298 -17.570 -36.654  0.00  0.00    -0.270 OA
ATOM     11  C   UNK d   1       2.057 -19.245 -38.478  0.00  0.00     0.279 A 
ATOM     12  N   UNK d   1       0.952 -20.044 -37.941  0.00  0.00     0.116 N 
ATOM     13  C   UNK d   1      -0.056 -19.027 -37.741  0.00  0.00     0.264 C 
ATOM     14  C   UNK d   1       0.040 -18.104 -38.912  0.00  0.00     0.130 C 
ATOM     15  C   UNK d   1       1.359 -18.458 -39.531  0.00  0.00     0.147 C 
ATOM     16  C   UNK d   1       2.036 -17.194 -39.911  0.00  0.00     0.234 C 
ATOM     17  O   UNK d   1       3.110 -17.198 -40.568  0.00  0.00    -0.272 OA
ATOM     18  N   UNK d   1       1.257 -16.120 -39.409  0.00  0.00    -0.287 N 
ATOM     19  C   UNK d   1       0.286 -16.680 -38.516  0.00  0.00     0.233 C 
ATOM     20  O   UNK d   1      -0.281 -16.128 -37.568  0.00  0.00    -0.272 OA
ATOM     21  H   UNK d   1       4.824 -18.546 -36.725  0.00  0.00     0.169 HD
ATOM     22  H   UNK d   1       0.639 -20.648 -38.734  0.00  0.00     0.318 HD
ENDROOT
BRANCH  13  23
ATOM     23  C   UNK d   1      -1.434 -19.610 -37.559  0.00  0.00     0.148 C 
ATOM     24  C   UNK d   1      -2.280 -18.808 -36.605  0.00  0.00     0.041 C 
BRANCH  23  25
ATOM     25  O   UNK d   1      -1.285 -20.910 -37.091  0.00  0.00    -0.394 OA
ATOM     26  H   UNK d   1      -0.723 -21.468 -37.686  0.00  0.00     0.210 HD
ENDBRANCH  23  25
ENDBRANCH  13  23
BRANCH  18  27
ATOM     27  C   UNK d   1       1.399 -14.750 -39.728  0.00  0.00     0.137 C 
BRANCH  27  28
ATOM     28  C   UNK d   1       2.341 -13.921 -38.948  0.00  0.00     0.046 C 
BRANCH  28  29
ATOM     29  C   UNK d   1       1.792 -13.096 -37.849  0.00  0.00     0.168 C 
BRANCH  29  30
ATOM     30  O   UNK d   1       1.720 -13.705 -36.605  0.00  0.00    -0.396 OA
ATOM     31  C   UNK d   1       0.691 -13.060 -35.878  0.00  0.00     0.201 C 
ENDBRANCH  29  30
ENDBRANCH  28  29
ENDBRANCH  27  28
ENDBRANCH  18  27
TORSDOF 6
ENDMDL
