/Users/jonathanwahrer/Desktop/Msc/3_Semester/Drug_Design_Praktikum/waehrer_HTS_screening/HTS_experiment/out/docking_results/vina_output/6y4q/1706_docked.pdbqt
 OpenBabel03232218373D

 25 28  0  0  1  0  0  0  0  0999 V2000
    3.2290  -21.6910  -39.9810 F   0  0  0  0  0  0  0  0  0  0  0  0
    3.2160  -20.5710  -39.1830 C   0  0  0  0  0  0  0  0  0  0  0  0
    2.1150  -19.7080  -39.2570 C   0  0  0  0  0  0  0  0  0  0  0  0
    2.0830  -18.5930  -38.4750 C   0  0  0  0  0  0  0  0  0  0  0  0
    3.1430  -18.3130  -37.6020 C   0  0  0  0  0  3  0  0  0  0  0  0
    4.2050  -19.1730  -37.5490 C   0  0  0  0  0  3  0  0  0  0  0  0
    4.2580  -20.3020  -38.3300 C   0  0  0  0  0  0  0  0  0  0  0  0
    5.6340  -21.4110  -38.2580 Cl  0  0  0  0  0  0  0  0  0  0  0  0
    0.8190  -17.8600  -38.7450 C   0  0  2  0  0  0  0  0  0  0  0  0
    1.1250  -16.5420  -39.2020 N   0  0  0  0  0  0  0  0  0  0  0  0
    1.3290  -15.4840  -38.2900 C   0  0  0  0  0  0  0  0  0  0  0  0
    1.9350  -14.3250  -38.6550 N   0  0  0  0  0  0  0  0  0  0  0  0
    2.1520  -13.2940  -37.8320 C   0  0  0  0  0  3  0  0  0  0  0  0
    1.7380  -13.3860  -36.5080 C   0  0  0  0  0  3  0  0  0  0  0  0
    1.1200  -14.5190  -36.0600 C   0  0  0  0  0  3  0  0  0  0  0  0
    0.9290  -15.5420  -36.9630 C   0  0  0  0  0  0  0  0  0  0  0  0
    0.2750  -16.7980  -36.5820 C   0  0  0  0  0  0  0  0  0  0  0  0
   -0.1100  -16.8970  -35.3680 O   0  0  0  0  0  0  0  0  0  0  0  0
    0.0760  -17.8480  -37.4970 N   0  0  0  0  0  0  0  0  0  0  0  0
    0.1360  -18.6680  -39.7620 C   0  0  0  0  0  0  0  0  0  0  0  0
   -1.0020  -18.4270  -40.3100 O   0  0  0  0  0  0  0  0  0  0  0  0
    0.9320  -19.7860  -40.0630 N   0  0  0  0  0  0  0  0  0  0  0  0
    1.2060  -16.3240  -40.2250 H   0  0  0  0  0  0  0  0  0  0  0  0
   -0.6120  -18.5910  -37.2350 H   0  0  0  0  0  0  0  0  0  0  0  0
    0.7500  -20.5700  -40.7430 H   0  0  0  0  0  0  0  0  0  0  0  0
  1  2  1  0  0  0  0
  2  7  1  0  0  0  0
  3  2  2  0  0  0  0
  3  4  1  0  0  0  0
  4  5  2  0  0  0  0
  5  6  1  0  0  0  0
  7  8  1  0  0  0  0
  7  6  2  0  0  0  0
  9 20  1  6  0  0  0
  9  4  1  0  0  0  0
  9 19  1  0  0  0  0
 10  9  1  0  0  0  0
 10 11  1  0  0  0  0
 11 16  1  0  0  0  0
 12 11  2  0  0  0  0
 12 13  1  0  0  0  0
 13 14  2  0  0  0  0
 14 15  1  0  0  0  0
 16 17  1  0  0  0  0
 16 15  2  0  0  0  0
 17 18  2  0  0  0  0
 19 24  1  0  0  0  0
 19 17  1  0  0  0  0
 21 20  2  0  0  0  0
 22 20  1  0  0  0  0
 22  3  1  0  0  0  0
 23 10  1  0  0  0  0
 25 22  1  0  0  0  0
M  END
>  <Pose>
1

>  <Score>
-6.566

$$$$
