MODEL 1
REMARK VINA RESULT:    -6.566      0.000      0.000
REMARK INTER + INTRA:          -6.566
REMARK INTER:                  -6.566
REMARK INTRA:                   0.000
REMARK UNBOUND:                 0.000
REMARK  0 active torsions:
REMARK  status: ('A' for Active; 'I' for Inactive)
ROOT
ATOM      1  F   UNK d   1       3.229 -21.691 -39.981  0.00  0.00    -0.202 F 
ATOM      2  C   UNK d   1       3.216 -20.571 -39.183  0.00  0.00     0.165 A 
ATOM      3  C   UNK d   1       2.115 -19.708 -39.257  0.00  0.00     0.086 A 
ATOM      4  C   UNK d   1       2.083 -18.593 -38.475  0.00  0.00     0.030 A 
ATOM      5  C   UNK d   1       3.143 -18.313 -37.602  0.00  0.00     0.016 A 
ATOM      6  C   UNK d   1       4.205 -19.173 -37.549  0.00  0.00     0.028 A 
ATOM      7  C   UNK d   1       4.258 -20.302 -38.330  0.00  0.00     0.074 A 
ATOM      8 Cl   UNK d   1       5.634 -21.411 -38.258  0.00  0.00    -0.081 Cl
ATOM      9  C   UNK d   1       0.819 -17.860 -38.745  0.00  0.00     0.222 A 
ATOM     10  N   UNK d   1       1.125 -16.542 -39.202  0.00  0.00    -0.336 N 
ATOM     11  C   UNK d   1       1.329 -15.484 -38.290  0.00  0.00     0.141 A 
ATOM     12  N   UNK d   1       1.935 -14.325 -38.655  0.00  0.00    -0.243 NA
ATOM     13  C   UNK d   1       2.152 -13.294 -37.832  0.00  0.00     0.119 A 
ATOM     14  C   UNK d   1       1.738 -13.386 -36.508  0.00  0.00     0.020 A 
ATOM     15  C   UNK d   1       1.120 -14.519 -36.060  0.00  0.00     0.022 A 
ATOM     16  C   UNK d   1       0.929 -15.542 -36.963  0.00  0.00     0.077 A 
ATOM     17  C   UNK d   1       0.275 -16.798 -36.582  0.00  0.00     0.258 C 
ATOM     18  O   UNK d   1      -0.110 -16.897 -35.368  0.00  0.00    -0.267 OA
ATOM     19  N   UNK d   1       0.076 -17.848 -37.497  0.00  0.00    -0.318 N 
ATOM     20  C   UNK d   1       0.136 -18.668 -39.762  0.00  0.00     0.277 A 
ATOM     21  O   UNK d   1      -1.002 -18.427 -40.310  0.00  0.00    -0.268 OA
ATOM     22  N   UNK d   1       0.932 -19.786 -40.063  0.00  0.00    -0.320 N 
ATOM     23  H   UNK d   1       1.206 -16.324 -40.225  0.00  0.00     0.164 HD
ATOM     24  H   UNK d   1      -0.612 -18.591 -37.235  0.00  0.00     0.166 HD
ATOM     25  H   UNK d   1       0.750 -20.570 -40.743  0.00  0.00     0.169 HD
ENDROOT
TORSDOF 0
ENDMDL
