MODEL 1
REMARK VINA RESULT:    -7.513      0.000      0.000
REMARK INTER + INTRA:          -9.543
REMARK INTER:                  -9.270
REMARK INTRA:                  -0.273
REMARK UNBOUND:                -0.273
REMARK  4 active torsions:
REMARK  status: ('A' for Active; 'I' for Inactive)
REMARK    1  A    between atoms: S_1  and  N_4 
REMARK    2  A    between atoms: S_1  and  C_24 
REMARK       I    between atoms: N_7  and  C_10 
REMARK    3  A    between atoms: C_10  and  C_12 
REMARK    4  A    between atoms: C_12  and  N_13 
ROOT
ATOM      1  N   UNK d   1      -0.280 -14.023 -37.546  0.00  0.00    -0.304 N 
ATOM      2  C   UNK d   1      -0.228 -14.041 -38.965  0.00  0.00     0.155 C 
ATOM      3  C   UNK d   1      -0.741 -15.324 -39.567  0.00  0.00     0.146 C 
ATOM      4  N   UNK d   1      -0.482 -16.468 -38.731  0.00  0.00    -0.348 N 
ATOM      5  C   UNK d   1      -0.839 -16.417 -37.334  0.00  0.00     0.146 C 
ATOM      6  C   UNK d   1      -1.133 -14.995 -36.967  0.00  0.00     0.155 C 
ATOM      7  C   UNK d   1       0.113 -17.651 -39.233  0.00  0.00     0.238 C 
ATOM      8  O   UNK d   1       0.424 -17.704 -40.439  0.00  0.00    -0.272 OA
ENDROOT
BRANCH   7   9
ATOM      9  C   UNK d   1       0.376 -18.823 -38.368  0.00  0.00     0.238 C 
BRANCH   9  10
ATOM     10  N   UNK d   1       1.750 -19.226 -38.442  0.00  0.00    -0.271 N 
ATOM     11  C   UNK d   1       2.369 -20.195 -39.278  0.00  0.00     0.262 A 
ATOM     12  O   UNK d   1       1.761 -20.881 -40.127  0.00  0.00    -0.267 OA
ATOM     13  C   UNK d   1       3.789 -20.229 -38.967  0.00  0.00     0.048 A 
ATOM     14  C   UNK d   1       4.053 -19.317 -37.973  0.00  0.00     0.048 A 
ATOM     15  C   UNK d   1       4.824 -20.974 -39.473  0.00  0.00     0.018 A 
ATOM     16  C   UNK d   1       5.353 -19.173 -37.507  0.00  0.00     0.018 A 
ATOM     17  C   UNK d   1       2.791 -18.675 -37.627  0.00  0.00     0.262 A 
ATOM     18  C   UNK d   1       6.382 -19.917 -38.013  0.00  0.00     0.001 A 
ATOM     19  C   UNK d   1       6.129 -20.846 -39.022  0.00  0.00     0.001 A 
ATOM     20  O   UNK d   1       2.706 -17.785 -36.741  0.00  0.00    -0.267 OA
ENDBRANCH   9  10
ENDBRANCH   7   9
BRANCH   1  21
ATOM     21  S   UNK d   1       1.149 -13.664 -36.740  0.00  0.00     0.260 S 
ATOM     22  O   UNK d   1       0.810 -12.890 -35.474  0.00  0.00    -0.200 OA
ATOM     23  O   UNK d   1       1.766 -14.962 -36.255  0.00  0.00    -0.200 OA
BRANCH  21  24
ATOM     24  C   UNK d   1       2.342 -12.832 -37.663  0.00  0.00     0.079 A 
ATOM     25  C   UNK d   1       3.016 -11.757 -37.108  0.00  0.00     0.026 A 
ATOM     26  C   UNK d   1       3.981 -11.057 -37.803  0.00  0.00     0.020 A 
ATOM     27  C   UNK d   1       4.270 -11.459 -39.094  0.00  0.00     0.011 A 
ATOM     28  C   UNK d   1       3.590 -12.531 -39.634  0.00  0.00     0.020 A 
ATOM     29 Br   UNK d   1       5.606 -10.525 -40.120  0.00  0.00    -0.051 Br
ATOM     30  C   UNK d   1       2.623 -13.241 -38.951  0.00  0.00     0.026 A 
ENDBRANCH  21  24
ENDBRANCH   1  21
TORSDOF 4
ENDMDL
