/Users/jonathanwahrer/Desktop/Msc/3_Semester/Drug_Design_Praktikum/waehrer_HTS_screening/HTS_experiment/out/docking_results/vina_output/6y4q/1718_docked.pdbqt
 OpenBabel03232218383D

 34 38  0  0  1  0  0  0  0  0999 V2000
    3.7820  -21.7980  -41.3460 Cl  0  0  0  0  0  0  0  0  0  0  0  0
    3.5580  -21.0230  -39.7940 C   0  0  0  0  0  0  0  0  0  0  0  0
    2.5260  -20.0900  -39.6900 C   0  0  0  0  0  0  0  0  0  0  0  0
    2.3180  -19.4580  -38.4840 C   0  0  0  0  0  0  0  0  0  0  0  0
    3.1590  -19.7870  -37.4190 C   0  0  0  0  0  3  0  0  0  0  0  0
    4.1760  -20.7100  -37.5300 C   0  0  0  0  0  3  0  0  0  0  0  0
    4.3830  -21.3420  -38.7380 C   0  0  0  0  0  3  0  0  0  0  0  0
    1.2000  -18.5200  -38.5750 C   0  0  1  0  0  0  0  0  0  0  0  0
    0.1550  -18.7910  -37.6070 N   0  0  0  0  0  0  0  0  0  0  0  0
   -0.5730  -17.5370  -37.4700 C   0  0  2  0  0  3  0  0  0  0  0  0
    0.4400  -16.4400  -37.6520 C   0  0  1  0  0  3  0  0  0  0  0  0
    1.6140  -17.0830  -38.3490 C   0  0  2  0  0  3  0  0  0  0  0  0
    1.7760  -16.3510  -39.6300 C   0  0  0  0  0  0  0  0  0  0  0  0
    2.5940  -16.7340  -40.5120 O   0  0  0  0  0  0  0  0  0  0  0  0
    0.9010  -15.2360  -39.6530 N   0  0  0  0  0  0  0  0  0  0  0  0
   -0.0900  -15.4600  -38.6610 C   0  0  0  0  0  0  0  0  0  0  0  0
   -1.2450  -14.9560  -38.5770 O   0  0  0  0  0  0  0  0  0  0  0  0
    0.7260  -18.6390  -39.9630 C   0  0  0  0  0  0  0  0  0  0  0  0
   -0.2510  -18.0100  -40.5120 O   0  0  0  0  0  0  0  0  0  0  0  0
    1.5550  -19.5950  -40.6030 N   0  0  0  0  0  0  0  0  0  0  0  0
    0.5430  -19.1100  -36.6910 H   0  0  0  0  0  0  0  0  0  0  0  0
    1.4730  -19.9020  -41.6100 H   0  0  0  0  0  0  0  0  0  0  0  0
   -1.2230  -17.4960  -36.1180 C   0  0  0  0  0  2  0  0  0  0  0  0
   -2.7030  -17.4550  -36.3440 C   0  0  0  0  0  0  0  0  0  0  0  0
   -3.3880  -18.3260  -35.7480 O   0  0  0  0  0  0  0  0  0  0  0  0
   -3.3220  -16.4930  -37.1820 N   0  0  0  0  0  0  0  0  0  0  0  0
   -3.3980  -15.5180  -36.8330 H   0  0  0  0  0  0  0  0  0  0  0  0
   -3.7050  -16.7010  -38.1250 H   0  0  0  0  0  0  0  0  0  0  0  0
    1.0000  -14.1060  -40.5030 C   0  0  0  0  0  2  0  0  0  0  0  0
    2.0670  -13.1270  -40.2110 C   0  0  2  0  0  3  0  0  0  0  0  0
    3.2860  -13.3790  -40.8220 O   0  0  0  0  0  0  0  0  0  0  0  0
    4.0120  -12.2490  -40.4450 C   0  0  0  0  0  2  0  0  0  0  0  0
    3.7150  -12.0740  -38.9510 C   0  0  0  0  0  2  0  0  0  0  0  0
    2.4440  -12.9260  -38.7890 C   0  0  0  0  0  2  0  0  0  0  0  0
  1  2  1  0  0  0  0
  2  3  2  0  0  0  0
  2  7  1  0  0  0  0
  3  4  1  0  0  0  0
  4  5  2  0  0  0  0
  6  5  1  0  0  0  0
  7  6  2  0  0  0  0
  8 18  1  6  0  0  0
  8  4  1  0  0  0  0
  8 12  1  0  0  0  0
  8  9  1  0  0  0  0
  9 10  1  0  0  0  0
  9 21  1  0  0  0  0
 10 23  1  1  0  0  0
 11 16  1  6  0  0  0
 11 10  1  0  0  0  0
 12 13  1  6  0  0  0
 12 11  1  0  0  0  0
 14 13  2  0  0  0  0
 15 13  1  0  0  0  0
 15 16  1  0  0  0  0
 16 17  2  0  0  0  0
 19 18  2  0  0  0  0
 20 18  1  0  0  0  0
 20  3  1  0  0  0  0
 22 20  1  0  0  0  0
 24 23  1  0  0  0  0
 24 25  2  0  0  0  0
 26 27  1  0  0  0  0
 26 24  1  0  0  0  0
 28 26  1  0  0  0  0
 29 15  1  0  0  0  0
 30 29  1  1  0  0  0
 30 34  1  0  0  0  0
 31 32  1  0  0  0  0
 31 30  1  0  0  0  0
 32 33  1  0  0  0  0
 33 34  1  0  0  0  0
M  END
>  <Pose>
1

>  <Score>
-6.100

$$$$
