MODEL 1
REMARK VINA RESULT:    -6.100      0.000      0.000
REMARK INTER + INTRA:          -8.613
REMARK INTER:                  -7.527
REMARK INTRA:                  -1.086
REMARK UNBOUND:                -1.086
REMARK  4 active torsions:
REMARK  status: ('A' for Active; 'I' for Inactive)
REMARK    1  A    between atoms: C_10  and  C_24 
REMARK    2  A    between atoms: N_15  and  C_18 
REMARK    3  A    between atoms: C_18  and  C_19 
REMARK    4  A    between atoms: C_24  and  C_25 
REMARK       I    between atoms: C_25  and  N_27 
ROOT
ATOM      1 Cl   UNK d   1       3.782 -21.798 -41.346  0.00  0.00    -0.082 Cl
ATOM      2  C   UNK d   1       3.558 -21.023 -39.794  0.00  0.00     0.061 A 
ATOM      3  C   UNK d   1       2.526 -20.090 -39.690  0.00  0.00     0.066 A 
ATOM      4  C   UNK d   1       2.318 -19.458 -38.484  0.00  0.00     0.019 A 
ATOM      5  C   UNK d   1       3.159 -19.787 -37.419  0.00  0.00     0.013 A 
ATOM      6  C   UNK d   1       4.176 -20.710 -37.530  0.00  0.00     0.002 A 
ATOM      7  C   UNK d   1       4.383 -21.342 -38.738  0.00  0.00     0.026 A 
ATOM      8  C   UNK d   1       1.200 -18.520 -38.575  0.00  0.00     0.279 A 
ATOM      9  N   UNK d   1       0.155 -18.791 -37.607  0.00  0.00     0.114 N 
ATOM     10  C   UNK d   1      -0.573 -17.537 -37.470  0.00  0.00     0.245 C 
ATOM     11  C   UNK d   1       0.440 -16.440 -37.652  0.00  0.00     0.128 C 
ATOM     12  C   UNK d   1       1.614 -17.083 -38.349  0.00  0.00     0.147 C 
ATOM     13  C   UNK d   1       1.776 -16.351 -39.630  0.00  0.00     0.235 C 
ATOM     14  O   UNK d   1       2.594 -16.734 -40.512  0.00  0.00    -0.272 OA
ATOM     15  N   UNK d   1       0.901 -15.236 -39.653  0.00  0.00    -0.285 N 
ATOM     16  C   UNK d   1      -0.090 -15.460 -38.661  0.00  0.00     0.233 C 
ATOM     17  O   UNK d   1      -1.245 -14.956 -38.577  0.00  0.00    -0.272 OA
ATOM     18  C   UNK d   1       0.726 -18.639 -39.963  0.00  0.00     0.267 A 
ATOM     19  O   UNK d   1      -0.251 -18.010 -40.512  0.00  0.00    -0.270 OA
ATOM     20  N   UNK d   1       1.555 -19.595 -40.603  0.00  0.00    -0.323 N 
ATOM     21  H   UNK d   1       0.543 -19.110 -36.691  0.00  0.00     0.318 HD
ATOM     22  H   UNK d   1       1.473 -19.902 -41.610  0.00  0.00     0.169 HD
ENDROOT
BRANCH  10  23
ATOM     23  C   UNK d   1      -1.223 -17.496 -36.118  0.00  0.00     0.139 C 
BRANCH  23  24
ATOM     24  C   UNK d   1      -2.703 -17.455 -36.344  0.00  0.00     0.217 C 
ATOM     25  O   UNK d   1      -3.388 -18.326 -35.748  0.00  0.00    -0.274 OA
ATOM     26  N   UNK d   1      -3.322 -16.493 -37.182  0.00  0.00    -0.370 N 
ATOM     27  H   UNK d   1      -3.398 -15.518 -36.833  0.00  0.00     0.159 HD
ATOM     28  H   UNK d   1      -3.705 -16.701 -38.125  0.00  0.00     0.159 HD
ENDBRANCH  23  24
ENDBRANCH  10  23
BRANCH  15  29
ATOM     29  C   UNK d   1       1.000 -14.106 -40.503  0.00  0.00     0.166 C 
BRANCH  29  30
ATOM     30  C   UNK d   1       2.067 -13.127 -40.211  0.00  0.00     0.140 C 
ATOM     31  O   UNK d   1       3.286 -13.379 -40.822  0.00  0.00    -0.384 OA
ATOM     32  C   UNK d   1       4.012 -12.249 -40.445  0.00  0.00     0.168 C 
ATOM     33  C   UNK d   1       3.715 -12.074 -38.951  0.00  0.00     0.029 C 
ATOM     34  C   UNK d   1       2.444 -12.926 -38.789  0.00  0.00     0.035 C 
ENDBRANCH  29  30
ENDBRANCH  15  29
TORSDOF 4
ENDMDL
