MODEL 1
REMARK VINA RESULT:    -6.553      0.000      0.000
REMARK INTER + INTRA:          -9.496
REMARK INTER:                  -8.469
REMARK INTRA:                  -1.027
REMARK UNBOUND:                -1.027
REMARK  5 active torsions:
REMARK  status: ('A' for Active; 'I' for Inactive)
REMARK    1  A    between atoms: C_3  and  N_8 
REMARK       I    between atoms: N_8  and  C_9 
REMARK    2  A    between atoms: C_9  and  C_11 
REMARK    3  A    between atoms: C_11  and  N_12 
REMARK    4  A    between atoms: C_15  and  C_17 
REMARK    5  A    between atoms: C_18  and  N_23 
ROOT
ATOM      1  N   UNK d   1       0.859 -16.110 -37.118  0.00  0.00    -0.182 N 
ATOM      2  N   UNK d   1       1.178 -16.469 -35.885  0.00  0.00     0.025 NA
ATOM      3  N   UNK d   1       2.032 -17.485 -35.917  0.00  0.00    -0.136 NA
ATOM      4  C   UNK d   1       2.272 -17.792 -37.209  0.00  0.00     0.200 A 
ATOM      5  N   UNK d   1       1.531 -16.922 -37.916  0.00  0.00    -0.136 NA
ENDROOT
BRANCH   1   6
ATOM      6  C   UNK d   1      -0.054 -15.029 -37.521  0.00  0.00     0.272 C 
BRANCH   6   7
ATOM      7  C   UNK d   1       0.702 -13.778 -37.796  0.00  0.00     0.243 C 
ATOM      8  N   UNK d   1       2.096 -13.760 -37.829  0.00  0.00    -0.324 N 
ATOM      9  H   UNK d   1       2.572 -14.694 -37.646  0.00  0.00     0.169 HD
ATOM     10  O   UNK d   1       0.029 -12.750 -37.993  0.00  0.00    -0.271 OA
BRANCH   8  11
ATOM     11  C   UNK d   1       2.961 -12.672 -38.071  0.00  0.00     0.052 A 
ATOM     12  C   UNK d   1       3.445 -12.423 -39.356  0.00  0.00     0.037 A 
ATOM     13 Br   UNK d   1       2.909 -13.584 -40.752  0.00  0.00    -0.049 Br
ATOM     14  C   UNK d   1       4.288 -11.384 -39.666  0.00  0.00     0.021 A 
ATOM     15  C   UNK d   1       4.693 -10.525 -38.669  0.00  0.00     0.002 A 
ATOM     16  C   UNK d   1       4.250 -10.718 -37.385  0.00  0.00     0.002 A 
ATOM     17  C   UNK d   1       3.393 -11.784 -37.103  0.00  0.00     0.031 A 
ENDBRANCH   8  11
ENDBRANCH   6   7
ENDBRANCH   1   6
BRANCH   4  18
ATOM     18  C   UNK d   1       3.146 -18.840 -37.714  0.00  0.00     0.044 A 
ATOM     19  C   UNK d   1       2.583 -19.847 -38.464  0.00  0.00     0.075 A 
ATOM     20  C   UNK d   1       3.416 -20.844 -38.943  0.00  0.00     0.032 A 
ATOM     21  C   UNK d   1       4.765 -20.853 -38.693  0.00  0.00     0.002 A 
ATOM     22  C   UNK d   1       5.331 -19.845 -37.940  0.00  0.00     0.001 A 
ATOM     23  C   UNK d   1       4.498 -18.849 -37.463  0.00  0.00     0.018 A 
BRANCH  19  24
ATOM     24  N   UNK d   1       1.190 -19.905 -38.766  0.00  0.00    -0.205 N 
ATOM     25  N   UNK d   1       0.258 -20.291 -37.904  0.00  0.00    -0.040 NA
ATOM     26  N   UNK d   1      -0.915 -20.231 -38.493  0.00  0.00    -0.023 NA
ATOM     27  N   UNK d   1      -0.728 -19.806 -39.741  0.00  0.00    -0.122 NA
ATOM     28  C   UNK d   1       0.595 -19.602 -39.911  0.00  0.00     0.262 A 
ENDBRANCH  19  24
ENDBRANCH   4  18
TORSDOF 5
ENDMDL
