/Users/jonathanwahrer/Desktop/Msc/3_Semester/Drug_Design_Praktikum/waehrer_HTS_screening/HTS_experiment/out/docking_results/vina_output/6y4q/1732_docked.pdbqt
 OpenBabel03232218393D

 28 31  0  0  0  0  0  0  0  0999 V2000
    0.8590  -16.1100  -37.1180 N   0  0  0  0  0  0  0  0  0  0  0  0
    1.1780  -16.4690  -35.8850 N   0  0  0  0  0  2  0  0  0  0  0  0
    2.0320  -17.4850  -35.9170 N   0  0  0  0  0  0  0  0  0  0  0  0
    2.2720  -17.7920  -37.2090 C   0  0  0  0  0  0  0  0  0  0  0  0
    1.5310  -16.9220  -37.9160 N   0  0  0  0  0  2  0  0  0  0  0  0
   -0.0540  -15.0290  -37.5210 C   0  0  0  0  0  2  0  0  0  0  0  0
    0.7020  -13.7780  -37.7960 C   0  0  0  0  0  0  0  0  0  0  0  0
    2.0960  -13.7600  -37.8290 N   0  0  0  0  0  0  0  0  0  0  0  0
    2.5720  -14.6940  -37.6460 H   0  0  0  0  0  0  0  0  0  0  0  0
    0.0290  -12.7500  -37.9930 O   0  0  0  0  0  0  0  0  0  0  0  0
    2.9610  -12.6720  -38.0710 C   0  0  0  0  0  0  0  0  0  0  0  0
    3.4450  -12.4230  -39.3560 C   0  0  0  0  0  0  0  0  0  0  0  0
    2.9090  -13.5840  -40.7520 Br  0  0  0  0  0  0  0  0  0  0  0  0
    4.2880  -11.3840  -39.6660 C   0  0  0  0  0  3  0  0  0  0  0  0
    4.6930  -10.5250  -38.6690 C   0  0  0  0  0  3  0  0  0  0  0  0
    4.2500  -10.7180  -37.3850 C   0  0  0  0  0  3  0  0  0  0  0  0
    3.3930  -11.7840  -37.1030 C   0  0  0  0  0  3  0  0  0  0  0  0
    3.1460  -18.8400  -37.7140 C   0  0  0  0  0  0  0  0  0  0  0  0
    2.5830  -19.8470  -38.4640 C   0  0  0  0  0  0  0  0  0  0  0  0
    3.4160  -20.8440  -38.9430 C   0  0  0  0  0  3  0  0  0  0  0  0
    4.7650  -20.8530  -38.6930 C   0  0  0  0  0  3  0  0  0  0  0  0
    5.3310  -19.8450  -37.9400 C   0  0  0  0  0  3  0  0  0  0  0  0
    4.4980  -18.8490  -37.4630 C   0  0  0  0  0  3  0  0  0  0  0  0
    1.1900  -19.9050  -38.7660 N   0  0  0  0  0  0  0  0  0  0  0  0
    0.2580  -20.2910  -37.9040 N   0  0  0  0  0  0  0  0  0  0  0  0
   -0.9150  -20.2310  -38.4930 N   0  0  0  0  0  0  0  0  0  0  0  0
   -0.7280  -19.8060  -39.7410 N   0  0  0  0  0  0  0  0  0  0  0  0
    0.5950  -19.6020  -39.9110 C   0  0  0  0  0  3  0  0  0  0  0  0
  1  2  1  0  0  0  0
  3  2  1  0  0  0  0
  4  3  2  0  0  0  0
  5  4  1  0  0  0  0
  5  1  1  0  0  0  0
  6  1  1  0  0  0  0
  7  6  1  0  0  0  0
  8  7  1  0  0  0  0
  8  9  1  0  0  0  0
 10  7  2  0  0  0  0
 11  8  1  0  0  0  0
 11 17  1  0  0  0  0
 12 11  2  0  0  0  0
 13 12  1  0  0  0  0
 14 12  1  0  0  0  0
 14 15  2  0  0  0  0
 15 16  1  0  0  0  0
 16 17  2  0  0  0  0
 18 23  1  0  0  0  0
 18  4  1  0  0  0  0
 19 18  2  0  0  0  0
 20 21  2  0  0  0  0
 20 19  1  0  0  0  0
 21 22  1  0  0  0  0
 22 23  2  0  0  0  0
 24 19  1  0  0  0  0
 24 25  1  0  0  0  0
 26 25  2  0  0  0  0
 27 26  1  0  0  0  0
 28 27  2  0  0  0  0
 28 24  1  0  0  0  0
M  END
>  <Pose>
1

>  <Score>
-6.553

$$$$
