MODEL 1
REMARK VINA RESULT:    -6.867      0.000      0.000
REMARK INTER + INTRA:          -9.431
REMARK INTER:                  -8.673
REMARK INTRA:                  -0.758
REMARK UNBOUND:                -0.758
REMARK  5 active torsions:
REMARK  status: ('A' for Active; 'I' for Inactive)
REMARK    1  A    between atoms: C_13  and  C_30 
REMARK    2  A    between atoms: N_18  and  C_21 
REMARK    3  A    between atoms: C_21  and  C_22 
REMARK    4  A    between atoms: C_23  and  O_28 
REMARK    5  A    between atoms: C_30  and  O_31 
ROOT
ATOM      1 Cl   UNK d   1       3.521 -15.157 -42.341  0.00  0.00    -0.084 Cl
ATOM      2  C   UNK d   1       3.599 -16.913 -42.556  0.00  0.00     0.034 A 
ATOM      3  C   UNK d   1       3.856 -17.743 -41.493  0.00  0.00     0.036 A 
ATOM      4  C   UNK d   1       3.914 -19.100 -41.667  0.00  0.00     0.019 A 
ATOM      5  C   UNK d   1       3.712 -19.625 -42.919  0.00  0.00     0.044 A 
ATOM      6  C   UNK d   1       3.448 -18.808 -44.017  0.00  0.00     0.032 A 
ATOM      7  C   UNK d   1       3.396 -17.448 -43.809  0.00  0.00     0.026 A 
ATOM      8  N   UNK d   1       3.813 -21.037 -42.903  0.00  0.00    -0.324 N 
ATOM      9  C   UNK d   1       4.095 -21.407 -41.561  0.00  0.00     0.267 A 
ATOM     10  O   UNK d   1       4.260 -22.575 -41.147  0.00  0.00    -0.270 OA
ATOM     11  C   UNK d   1       4.167 -20.203 -40.713  0.00  0.00     0.279 A 
ATOM     12  N   UNK d   1       5.440 -20.071 -40.046  0.00  0.00     0.116 N 
ATOM     13  C   UNK d   1       5.197 -19.527 -38.747  0.00  0.00     0.264 C 
ATOM     14  C   UNK d   1       3.850 -20.044 -38.299  0.00  0.00     0.130 C 
ATOM     15  C   UNK d   1       3.166 -20.289 -39.619  0.00  0.00     0.147 C 
ATOM     16  C   UNK d   1       2.066 -19.298 -39.714  0.00  0.00     0.235 C 
ATOM     17  O   UNK d   1       1.459 -18.883 -40.733  0.00  0.00    -0.272 OA
ATOM     18  N   UNK d   1       1.804 -18.873 -38.360  0.00  0.00    -0.283 N 
ATOM     19  C   UNK d   1       3.027 -19.016 -37.610  0.00  0.00     0.234 C 
ATOM     20  O   UNK d   1       3.358 -18.398 -36.565  0.00  0.00    -0.272 OA
ATOM     21  H   UNK d   1       3.708 -21.724 -43.706  0.00  0.00     0.169 HD
ATOM     22  H   UNK d   1       6.076 -19.493 -40.604  0.00  0.00     0.318 HD
ENDROOT
BRANCH  13  23
ATOM     23  C   UNK d   1       6.291 -19.894 -37.768  0.00  0.00     0.148 C 
ATOM     24  C   UNK d   1       6.968 -21.143 -38.324  0.00  0.00     0.041 C 
BRANCH  23  25
ATOM     25  O   UNK d   1       7.246 -18.882 -37.805  0.00  0.00    -0.394 OA
ATOM     26  H   UNK d   1       8.023 -19.180 -38.329  0.00  0.00     0.210 HD
ENDBRANCH  23  25
ENDBRANCH  13  23
BRANCH  18  27
ATOM     27  C   UNK d   1       0.548 -18.387 -37.830  0.00  0.00     0.176 C 
BRANCH  27  28
ATOM     28  C   UNK d   1       0.651 -16.929 -37.523  0.00  0.00    -0.006 A 
ATOM     29  C   UNK d   1       0.024 -16.394 -36.417  0.00  0.00     0.076 A 
ATOM     30  C   UNK d   1       0.135 -15.040 -36.154  0.00  0.00     0.037 A 
ATOM     31  C   UNK d   1       0.862 -14.193 -36.969  0.00  0.00     0.003 A 
ATOM     32  C   UNK d   1       1.491 -14.717 -38.076  0.00  0.00     0.001 A 
ATOM     33  C   UNK d   1       1.373 -16.065 -38.327  0.00  0.00     0.011 A 
BRANCH  29  34
ATOM     34  O   UNK d   1      -0.711 -17.253 -35.593  0.00  0.00    -0.355 OA
ATOM     35  C   UNK d   1      -2.067 -17.539 -35.950  0.00  0.00     0.210 C 
ENDBRANCH  29  34
ENDBRANCH  27  28
ENDBRANCH  18  27
TORSDOF 5
ENDMDL
