/Users/jonathanwahrer/Desktop/Msc/3_Semester/Drug_Design_Praktikum/waehrer_HTS_screening/HTS_experiment/out/docking_results/vina_output/6y4q/1736_docked.pdbqt
 OpenBabel03232218393D

 35 39  0  0  1  0  0  0  0  0999 V2000
    3.5210  -15.1570  -42.3410 Cl  0  0  0  0  0  0  0  0  0  0  0  0
    3.5990  -16.9130  -42.5560 C   0  0  0  0  0  0  0  0  0  0  0  0
    3.8560  -17.7430  -41.4930 C   0  0  0  0  0  3  0  0  0  0  0  0
    3.9140  -19.1000  -41.6670 C   0  0  0  0  0  0  0  0  0  0  0  0
    3.7120  -19.6250  -42.9190 C   0  0  0  0  0  0  0  0  0  0  0  0
    3.4480  -18.8080  -44.0170 C   0  0  0  0  0  3  0  0  0  0  0  0
    3.3960  -17.4480  -43.8090 C   0  0  0  0  0  3  0  0  0  0  0  0
    3.8130  -21.0370  -42.9030 N   0  0  0  0  0  0  0  0  0  0  0  0
    4.0950  -21.4070  -41.5610 C   0  0  0  0  0  0  0  0  0  0  0  0
    4.2600  -22.5750  -41.1470 O   0  0  0  0  0  0  0  0  0  0  0  0
    4.1670  -20.2030  -40.7130 C   0  0  1  0  0  0  0  0  0  0  0  0
    5.4400  -20.0710  -40.0460 N   0  0  0  0  0  0  0  0  0  0  0  0
    5.1970  -19.5270  -38.7470 C   0  0  1  0  0  3  0  0  0  0  0  0
    3.8500  -20.0440  -38.2990 C   0  0  2  0  0  3  0  0  0  0  0  0
    3.1660  -20.2890  -39.6190 C   0  0  1  0  0  3  0  0  0  0  0  0
    2.0660  -19.2980  -39.7140 C   0  0  0  0  0  0  0  0  0  0  0  0
    1.4590  -18.8830  -40.7330 O   0  0  0  0  0  0  0  0  0  0  0  0
    1.8040  -18.8730  -38.3600 N   0  0  0  0  0  0  0  0  0  0  0  0
    3.0270  -19.0160  -37.6100 C   0  0  0  0  0  0  0  0  0  0  0  0
    3.3580  -18.3980  -36.5650 O   0  0  0  0  0  0  0  0  0  0  0  0
    3.7080  -21.7240  -43.7060 H   0  0  0  0  0  0  0  0  0  0  0  0
    6.0760  -19.4930  -40.6040 H   0  0  0  0  0  0  0  0  0  0  0  0
    6.2910  -19.8940  -37.7680 C   0  0  1  0  0  3  0  0  0  0  0  0
    6.9680  -21.1430  -38.3240 C   0  0  0  0  0  1  0  0  0  0  0  0
    7.2460  -18.8820  -37.8050 O   0  0  0  0  0  0  0  0  0  0  0  0
    8.0230  -19.1800  -38.3290 H   0  0  0  0  0  0  0  0  0  0  0  0
    0.5480  -18.3870  -37.8300 C   0  0  0  0  0  2  0  0  0  0  0  0
    0.6510  -16.9290  -37.5230 C   0  0  0  0  0  0  0  0  0  0  0  0
    0.0240  -16.3940  -36.4170 C   0  0  0  0  0  0  0  0  0  0  0  0
    0.1350  -15.0400  -36.1540 C   0  0  0  0  0  3  0  0  0  0  0  0
    0.8620  -14.1930  -36.9690 C   0  0  0  0  0  3  0  0  0  0  0  0
    1.4910  -14.7170  -38.0760 C   0  0  0  0  0  3  0  0  0  0  0  0
    1.3730  -16.0650  -38.3270 C   0  0  0  0  0  3  0  0  0  0  0  0
   -0.7110  -17.2530  -35.5930 O   0  0  0  0  0  0  0  0  0  0  0  0
   -2.0670  -17.5390  -35.9500 C   0  0  0  0  0  1  0  0  0  0  0  0
  2  1  1  0  0  0  0
  2  3  1  0  0  0  0
  4  3  2  0  0  0  0
  5  8  1  0  0  0  0
  5  4  1  0  0  0  0
  6  7  1  0  0  0  0
  6  5  2  0  0  0  0
  7  2  2  0  0  0  0
  8  9  1  0  0  0  0
  9 10  2  0  0  0  0
  9 11  1  0  0  0  0
 11  4  1  6  0  0  0
 11 12  1  0  0  0  0
 11 15  1  0  0  0  0
 12 13  1  0  0  0  0
 13 14  1  0  0  0  0
 13 23  1  1  0  0  0
 14 19  1  1  0  0  0
 15 16  1  6  0  0  0
 15 14  1  0  0  0  0
 16 18  1  0  0  0  0
 17 16  2  0  0  0  0
 18 27  1  0  0  0  0
 18 19  1  0  0  0  0
 19 20  2  0  0  0  0
 21  8  1  0  0  0  0
 22 12  1  0  0  0  0
 23 24  1  6  0  0  0
 25 23  1  0  0  0  0
 26 25  1  0  0  0  0
 27 28  1  0  0  0  0
 28 29  1  0  0  0  0
 29 30  2  0  0  0  0
 29 34  1  0  0  0  0
 31 30  1  0  0  0  0
 32 31  2  0  0  0  0
 33 32  1  0  0  0  0
 33 28  2  0  0  0  0
 35 34  1  0  0  0  0
M  END
>  <Pose>
1

>  <Score>
-6.867

$$$$
