MODEL 1
REMARK VINA RESULT:    -6.748      0.000      0.000
REMARK INTER + INTRA:          -8.862
REMARK INTER:                  -8.326
REMARK INTRA:                  -0.536
REMARK UNBOUND:                -0.536
REMARK  4 active torsions:
REMARK  status: ('A' for Active; 'I' for Inactive)
REMARK    1  A    between atoms: N_6  and  C_9 
REMARK    2  A    between atoms: C_9  and  C_10 
REMARK       I    between atoms: C_10  and  N_12 
REMARK    3  A    between atoms: N_15  and  C_18 
REMARK    4  A    between atoms: C_18  and  C_19 
REMARK       I    between atoms: C_19  and  N_21 
ROOT
ATOM      1  C   UNK d   1       0.037 -14.795 -36.552  0.00  0.00     0.238 C 
ATOM      2  O   UNK d   1      -1.124 -14.435 -36.827  0.00  0.00    -0.272 OA
ATOM      3  N   UNK d   1       0.310 -16.137 -36.249  0.00  0.00    -0.348 N 
ATOM      4  C   UNK d   1      -0.700 -17.172 -36.240  0.00  0.00     0.145 C 
ATOM      5  C   UNK d   1      -0.186 -18.297 -37.123  0.00  0.00     0.137 C 
ATOM      6  N   UNK d   1       0.994 -17.937 -37.791  0.00  0.00    -0.401 N 
ATOM      7  C   UNK d   1       2.114 -17.505 -37.061  0.00  0.00     0.137 C 
ATOM      8  C   UNK d   1       1.665 -16.605 -35.916  0.00  0.00     0.145 C 
ENDROOT
BRANCH   1   9
ATOM      9  C   UNK d   1       1.130 -13.764 -36.551  0.00  0.00     0.231 C 
BRANCH   9  10
ATOM     10  N   UNK d   1       1.712 -13.597 -37.866  0.00  0.00    -0.347 N 
ATOM     11  C   UNK d   1       2.683 -12.695 -38.190  0.00  0.00     0.045 A 
ATOM     12  C   UNK d   1       3.005 -12.798 -39.523  0.00  0.00    -0.007 A 
ATOM     13  C   UNK d   1       3.329 -11.770 -37.404  0.00  0.00     0.032 A 
ATOM     14  C   UNK d   1       3.972 -11.989 -40.111  0.00  0.00     0.032 A 
ATOM     15  C   UNK d   1       2.211 -13.794 -40.048  0.00  0.00     0.031 A 
ATOM     16  C   UNK d   1       4.632 -11.047 -39.320  0.00  0.00     0.011 A 
ATOM     17 Br   UNK d   1       5.971  -9.917 -40.100  0.00  0.00    -0.051 Br
ATOM     18  C   UNK d   1       4.297 -10.957 -37.986  0.00  0.00     0.021 A 
ATOM     19  C   UNK d   1       1.438 -14.252 -39.001  0.00  0.00     0.092 A 
ENDBRANCH   9  10
ENDBRANCH   1   9
BRANCH   6  20
ATOM     20  C   UNK d   1       0.999 -17.843 -39.192  0.00  0.00     0.220 C 
BRANCH  20  21
ATOM     21  C   UNK d   1       2.342 -17.992 -39.814  0.00  0.00     0.237 C 
ATOM     22  O   UNK d   1       2.767 -17.012 -40.474  0.00  0.00    -0.272 OA
ATOM     23  N   UNK d   1       3.132 -19.146 -39.700  0.00  0.00    -0.347 N 
ATOM     24  C   UNK d   1       4.427 -19.214 -40.346  0.00  0.00     0.152 C 
ATOM     25  C   UNK d   1       2.739 -20.327 -38.957  0.00  0.00     0.152 C 
ATOM     26  C   UNK d   1       5.437 -19.587 -39.281  0.00  0.00     0.187 C 
ATOM     27  O   UNK d   1       5.097 -20.889 -38.883  0.00  0.00    -0.388 OA
ATOM     28  C   UNK d   1       3.892 -20.920 -38.224  0.00  0.00     0.187 C 
ENDBRANCH  20  21
ENDBRANCH   6  20
TORSDOF 4
ENDMDL
