/Users/jonathanwahrer/Desktop/Msc/3_Semester/Drug_Design_Praktikum/waehrer_HTS_screening/HTS_experiment/out/docking_results/vina_output/6y4q/1744_docked.pdbqt
 OpenBabel03232218403D

 34 37  0  0  1  0  0  0  0  0999 V2000
    1.3800  -18.3660  -37.9180 N   0  0  0  0  0  0  0  0  0  0  0  0
    0.0690  -18.6910  -38.3780 C   0  0  0  0  0  0  0  0  0  0  0  0
   -0.1580  -19.3630  -39.4140 O   0  0  0  0  0  0  0  0  0  0  0  0
   -1.0460  -18.2290  -37.6180 N   0  0  0  0  0  0  0  0  0  0  0  0
   -0.8170  -17.4590  -36.4280 C   0  0  0  0  0  0  0  0  0  0  0  0
   -1.8330  -17.2840  -35.6760 O   0  0  0  0  0  0  0  0  0  0  0  0
    0.5040  -16.8990  -36.0850 C   0  0  1  0  0  3  0  0  0  0  0  0
    1.6280  -17.6100  -36.7410 C   0  0  0  0  0  0  0  0  0  0  0  0
    2.7710  -17.5170  -36.2280 O   0  0  0  0  0  0  0  0  0  0  0  0
   -2.0390  -18.4320  -37.9000 H   0  0  0  0  0  0  0  0  0  0  0  0
    0.5590  -15.4270  -36.4220 C   0  0  1  0  0  3  0  0  0  0  0  0
   -0.1580  -14.8580  -37.3740 C   0  0  0  0  0  2  0  0  0  0  0  0
    0.2220  -13.4280  -37.3440 C   0  0  1  0  0  3  0  0  0  0  0  0
    0.5990  -13.2470  -35.9540 N   0  0  0  0  0  0  0  0  0  0  0  0
    1.3500  -14.4340  -35.7690 N   0  0  0  0  0  0  0  0  0  0  0  0
    1.1170  -12.3890  -35.7490 H   0  0  0  0  0  0  0  0  0  0  0  0
    2.2370  -14.6200  -35.3020 H   0  0  0  0  0  0  0  0  0  0  0  0
    1.3830  -13.1720  -38.2420 C   0  0  0  0  0  0  0  0  0  0  0  0
    1.6850  -13.8960  -39.3600 C   0  0  0  0  0  3  0  0  0  0  0  0
    2.7530  -13.5930  -40.1810 C   0  0  0  0  0  0  0  0  0  0  0  0
    3.5730  -12.5170  -39.8910 C   0  0  0  0  0  0  0  0  0  0  0  0
    3.2570  -11.7770  -38.7410 C   0  0  0  0  0  3  0  0  0  0  0  0
    2.1900  -12.0940  -37.9330 C   0  0  0  0  0  3  0  0  0  0  0  0
    3.0220  -14.3720  -41.3200 O   0  0  0  0  0  0  0  0  0  0  0  0
    3.0620  -15.3800  -41.2090 H   0  0  0  0  0  0  0  0  0  0  0  0
    4.6410  -12.1820  -40.6880 O   0  0  0  0  0  0  0  0  0  0  0  0
    5.3580  -10.9790  -40.5080 C   0  0  0  0  0  1  0  0  0  0  0  0
    2.4770  -18.8240  -38.7010 C   0  0  0  0  0  0  0  0  0  0  0  0
    3.1800  -19.9660  -38.3590 C   0  0  0  0  0  3  0  0  0  0  0  0
    4.2320  -20.4430  -39.0990 C   0  0  0  0  0  0  0  0  0  0  0  0
    5.0910  -21.8830  -38.6250 Cl  0  0  0  0  0  0  0  0  0  0  0  0
    4.5900  -19.7360  -40.2330 C   0  0  0  0  0  3  0  0  0  0  0  0
    3.9150  -18.5920  -40.6090 C   0  0  0  0  0  3  0  0  0  0  0  0
    2.8550  -18.1500  -39.8230 C   0  0  0  0  0  3  0  0  0  0  0  0
  1  8  1  0  0  0  0
  2  1  1  0  0  0  0
  2  4  1  0  0  0  0
  3  2  2  0  0  0  0
  4  5  1  0  0  0  0
  5  7  1  0  0  0  0
  5  6  2  0  0  0  0
  7  8  1  6  0  0  0
  8  9  2  0  0  0  0
 10  4  1  0  0  0  0
 11 12  1  1  0  0  0
 11  7  1  0  0  0  0
 11 15  1  0  0  0  0
 12 13  1  0  0  0  0
 13 18  1  6  0  0  0
 13 14  1  0  0  0  0
 14 15  1  0  0  0  0
 14 16  1  0  0  0  0
 15 17  1  0  0  0  0
 18 23  1  0  0  0  0
 19 18  2  0  0  0  0
 20 21  2  0  0  0  0
 20 19  1  0  0  0  0
 21 22  1  0  0  0  0
 22 23  2  0  0  0  0
 24 25  1  0  0  0  0
 24 20  1  0  0  0  0
 26 27  1  0  0  0  0
 26 21  1  0  0  0  0
 28 29  1  0  0  0  0
 28  1  1  0  0  0  0
 30 31  1  0  0  0  0
 30 29  2  0  0  0  0
 32 30  1  0  0  0  0
 33 32  2  0  0  0  0
 33 34  1  0  0  0  0
 34 28  2  0  0  0  0
M  END
>  <Pose>
1

>  <Score>
-6.608

$$$$
