MODEL 1
REMARK VINA RESULT:    -6.608      0.000      0.000
REMARK INTER + INTRA:          -9.462
REMARK INTER:                  -8.347
REMARK INTRA:                  -1.115
REMARK UNBOUND:                -1.115
REMARK  5 active torsions:
REMARK  status: ('A' for Active; 'I' for Inactive)
REMARK    1  A    between atoms: C_4  and  N_8 
REMARK    2  A    between atoms: C_14  and  C_17 
REMARK    3  A    between atoms: C_19  and  C_22 
REMARK    4  A    between atoms: C_24  and  O_30 
REMARK    5  A    between atoms: C_25  and  O_28 
ROOT
ATOM      1  N   UNK d   1       1.380 -18.366 -37.918  0.00  0.00    -0.233 N 
ATOM      2  C   UNK d   1       0.069 -18.691 -38.378  0.00  0.00     0.336 C 
ATOM      3  O   UNK d   1      -0.158 -19.363 -39.414  0.00  0.00    -0.246 OA
ATOM      4  N   UNK d   1      -1.046 -18.229 -37.618  0.00  0.00    -0.277 N 
ATOM      5  C   UNK d   1      -0.817 -17.459 -36.428  0.00  0.00     0.244 C 
ATOM      6  O   UNK d   1      -1.833 -17.284 -35.676  0.00  0.00    -0.272 OA
ATOM      7  C   UNK d   1       0.504 -16.899 -36.085  0.00  0.00     0.221 C 
ATOM      8  C   UNK d   1       1.628 -17.610 -36.741  0.00  0.00     0.251 C 
ATOM      9  O   UNK d   1       2.771 -17.517 -36.228  0.00  0.00    -0.271 OA
ATOM     10  H   UNK d   1      -2.039 -18.432 -37.900  0.00  0.00     0.173 HD
ENDROOT
BRANCH   7  11
ATOM     11  C   UNK d   1       0.559 -15.427 -36.422  0.00  0.00     0.041 C 
ATOM     12  C   UNK d   1      -0.158 -14.858 -37.374  0.00  0.00     0.026 C 
ATOM     13  C   UNK d   1       0.222 -13.428 -37.344  0.00  0.00     0.134 C 
ATOM     14  N   UNK d   1       0.599 -13.247 -35.954  0.00  0.00    -0.228 NA
ATOM     15  N   UNK d   1       1.350 -14.434 -35.769  0.00  0.00    -0.323 N 
ATOM     16  H   UNK d   1       1.117 -12.389 -35.749  0.00  0.00     0.147 HD
ATOM     17  H   UNK d   1       2.237 -14.620 -35.302  0.00  0.00     0.180 HD
BRANCH  13  18
ATOM     18  C   UNK d   1       1.383 -13.172 -38.242  0.00  0.00    -0.032 A 
ATOM     19  C   UNK d   1       1.685 -13.896 -39.360  0.00  0.00     0.048 A 
ATOM     20  C   UNK d   1       2.753 -13.593 -40.181  0.00  0.00     0.099 A 
ATOM     21  C   UNK d   1       3.573 -12.517 -39.891  0.00  0.00     0.101 A 
ATOM     22  C   UNK d   1       3.257 -11.777 -38.741  0.00  0.00     0.040 A 
ATOM     23  C   UNK d   1       2.190 -12.094 -37.933  0.00  0.00     0.012 A 
BRANCH  20  24
ATOM     24  O   UNK d   1       3.022 -14.372 -41.320  0.00  0.00    -0.358 OA
ATOM     25  H   UNK d   1       3.062 -15.380 -41.209  0.00  0.00     0.217 HD
ENDBRANCH  20  24
BRANCH  21  26
ATOM     26  O   UNK d   1       4.641 -12.182 -40.688  0.00  0.00    -0.353 OA
ATOM     27  C   UNK d   1       5.358 -10.979 -40.508  0.00  0.00     0.210 C 
ENDBRANCH  21  26
ENDBRANCH  13  18
ENDBRANCH   7  11
BRANCH   1  28
ATOM     28  C   UNK d   1       2.477 -18.824 -38.701  0.00  0.00     0.048 A 
ATOM     29  C   UNK d   1       3.180 -19.966 -38.359  0.00  0.00     0.054 A 
ATOM     30  C   UNK d   1       4.232 -20.443 -39.099  0.00  0.00     0.036 A 
ATOM     31 Cl   UNK d   1       5.091 -21.883 -38.625  0.00  0.00    -0.084 Cl
ATOM     32  C   UNK d   1       4.590 -19.736 -40.233  0.00  0.00     0.024 A 
ATOM     33  C   UNK d   1       3.915 -18.592 -40.609  0.00  0.00     0.004 A 
ATOM     34  C   UNK d   1       2.855 -18.150 -39.823  0.00  0.00     0.030 A 
ENDBRANCH   1  28
TORSDOF 5
ENDMDL
