/Users/jonathanwahrer/Desktop/Msc/3_Semester/Drug_Design_Praktikum/waehrer_HTS_screening/HTS_experiment/out/docking_results/vina_output/6y4q/1745_docked.pdbqt
 OpenBabel03232218403D

 34 37  0  0  1  0  0  0  0  0999 V2000
    2.1380  -19.1330  -38.0710 N   0  0  0  0  0  0  0  0  0  0  0  0
    0.8180  -19.4850  -38.4520 C   0  0  0  0  0  0  0  0  0  0  0  0
    0.6020  -20.3540  -39.3070 O   0  0  0  0  0  0  0  0  0  0  0  0
   -0.3030  -18.8270  -37.8430 N   0  0  0  0  0  0  0  0  0  0  0  0
   -0.1130  -17.8200  -36.8510 C   0  0  0  0  0  0  0  0  0  0  0  0
   -0.9880  -17.5360  -36.0160 O   0  0  0  0  0  0  0  0  0  0  0  0
    1.2010  -17.0830  -36.8280 C   0  0  1  0  0  3  0  0  0  0  0  0
    2.2450  -18.1010  -37.0660 C   0  0  0  0  0  0  0  0  0  0  0  0
    3.3250  -18.1140  -36.3720 O   0  0  0  0  0  0  0  0  0  0  0  0
   -1.2510  -19.0960  -38.1350 H   0  0  0  0  0  0  0  0  0  0  0  0
    1.1790  -16.0090  -37.8650 C   0  0  2  0  0  3  0  0  0  0  0  0
    0.4240  -14.9310  -37.9290 C   0  0  0  0  0  2  0  0  0  0  0  0
    0.7820  -14.1720  -39.1590 C   0  0  2  0  0  3  0  0  0  0  0  0
    1.3550  -15.2600  -39.9930 N   0  0  0  0  0  0  0  0  0  0  0  0
    2.0210  -16.0240  -39.0260 N   0  0  0  0  0  0  0  0  0  0  0  0
    0.5890  -15.7830  -40.4620 H   0  0  0  0  0  0  0  0  0  0  0  0
    2.9130  -16.5000  -39.1040 H   0  0  0  0  0  0  0  0  0  0  0  0
    1.9210  -13.2640  -38.8540 C   0  0  0  0  0  0  0  0  0  0  0  0
    2.8530  -12.8920  -39.8460 C   0  0  0  0  0  3  0  0  0  0  0  0
    3.8880  -12.0380  -39.6230 C   0  0  0  0  0  0  0  0  0  0  0  0
    4.0590  -11.4900  -38.3660 C   0  0  0  0  0  0  0  0  0  0  0  0
    3.1690  -11.8310  -37.3730 C   0  0  0  0  0  3  0  0  0  0  0  0
    2.1250  -12.6970  -37.6140 C   0  0  0  0  0  3  0  0  0  0  0  0
    4.7890  -11.7050  -40.6450 O   0  0  0  0  0  0  0  0  0  0  0  0
    4.6780  -12.3390  -41.9010 C   0  0  0  0  0  1  0  0  0  0  0  0
    5.1110  -10.6140  -38.1200 O   0  0  0  0  0  0  0  0  0  0  0  0
    5.1790  -10.1710  -37.2140 H   0  0  0  0  0  0  0  0  0  0  0  0
    3.3160  -19.7430  -38.5810 C   0  0  0  0  0  0  0  0  0  0  0  0
    3.9360  -19.1380  -39.6810 C   0  0  0  0  0  3  0  0  0  0  0  0
    5.0740  -19.6580  -40.2580 C   0  0  0  0  0  0  0  0  0  0  0  0
    5.7740  -18.8390  -41.6280 Cl  0  0  0  0  0  0  0  0  0  0  0  0
    5.6540  -20.8020  -39.7780 C   0  0  0  0  0  3  0  0  0  0  0  0
    5.0440  -21.4130  -38.6790 C   0  0  0  0  0  3  0  0  0  0  0  0
    3.9050  -20.8850  -38.1080 C   0  0  0  0  0  3  0  0  0  0  0  0
  1  8  1  0  0  0  0
  2  1  1  0  0  0  0
  2  4  1  0  0  0  0
  3  2  2  0  0  0  0
  4  5  1  0  0  0  0
  5  7  1  0  0  0  0
  5  6  2  0  0  0  0
  7  8  1  6  0  0  0
  8  9  2  0  0  0  0
 10  4  1  0  0  0  0
 11 12  1  6  0  0  0
 11  7  1  0  0  0  0
 13 18  1  1  0  0  0
 13 12  1  0  0  0  0
 14 13  1  0  0  0  0
 14 15  1  0  0  0  0
 15 11  1  0  0  0  0
 16 14  1  0  0  0  0
 17 15  1  0  0  0  0
 18 23  1  0  0  0  0
 19 20  1  0  0  0  0
 19 18  2  0  0  0  0
 20 21  2  0  0  0  0
 21 26  1  0  0  0  0
 21 22  1  0  0  0  0
 23 22  2  0  0  0  0
 24 20  1  0  0  0  0
 25 24  1  0  0  0  0
 26 27  1  0  0  0  0
 28 34  1  0  0  0  0
 28  1  1  0  0  0  0
 29 28  2  0  0  0  0
 30 32  2  0  0  0  0
 30 29  1  0  0  0  0
 31 30  1  0  0  0  0
 32 33  1  0  0  0  0
 33 34  2  0  0  0  0
M  END
>  <Pose>
1

>  <Score>
-7.065

$$$$
