MODEL 1
REMARK VINA RESULT:    -7.065      0.000      0.000
REMARK INTER + INTRA:          -9.991
REMARK INTER:                  -8.924
REMARK INTRA:                  -1.067
REMARK UNBOUND:                -1.067
REMARK  5 active torsions:
REMARK  status: ('A' for Active; 'I' for Inactive)
REMARK    1  A    between atoms: C_4  and  N_8 
REMARK    2  A    between atoms: C_14  and  C_17 
REMARK    3  A    between atoms: C_19  and  C_22 
REMARK    4  A    between atoms: C_24  and  O_29 
REMARK    5  A    between atoms: C_25  and  O_28 
ROOT
ATOM      1  N   UNK d   1       2.138 -19.133 -38.071  0.00  0.00    -0.233 N 
ATOM      2  C   UNK d   1       0.818 -19.485 -38.452  0.00  0.00     0.336 C 
ATOM      3  O   UNK d   1       0.602 -20.354 -39.307  0.00  0.00    -0.246 OA
ATOM      4  N   UNK d   1      -0.303 -18.827 -37.843  0.00  0.00    -0.277 N 
ATOM      5  C   UNK d   1      -0.113 -17.820 -36.851  0.00  0.00     0.244 C 
ATOM      6  O   UNK d   1      -0.988 -17.536 -36.016  0.00  0.00    -0.272 OA
ATOM      7  C   UNK d   1       1.201 -17.083 -36.828  0.00  0.00     0.221 C 
ATOM      8  C   UNK d   1       2.245 -18.101 -37.066  0.00  0.00     0.251 C 
ATOM      9  O   UNK d   1       3.325 -18.114 -36.372  0.00  0.00    -0.271 OA
ATOM     10  H   UNK d   1      -1.251 -19.096 -38.135  0.00  0.00     0.173 HD
ENDROOT
BRANCH   7  11
ATOM     11  C   UNK d   1       1.179 -16.009 -37.865  0.00  0.00     0.041 C 
ATOM     12  C   UNK d   1       0.424 -14.931 -37.929  0.00  0.00     0.026 C 
ATOM     13  C   UNK d   1       0.782 -14.172 -39.159  0.00  0.00     0.134 C 
ATOM     14  N   UNK d   1       1.355 -15.260 -39.993  0.00  0.00    -0.228 NA
ATOM     15  N   UNK d   1       2.021 -16.024 -39.026  0.00  0.00    -0.323 N 
ATOM     16  H   UNK d   1       0.589 -15.783 -40.462  0.00  0.00     0.147 HD
ATOM     17  H   UNK d   1       2.913 -16.500 -39.104  0.00  0.00     0.180 HD
BRANCH  13  18
ATOM     18  C   UNK d   1       1.921 -13.264 -38.854  0.00  0.00    -0.032 A 
ATOM     19  C   UNK d   1       2.853 -12.892 -39.846  0.00  0.00     0.048 A 
ATOM     20  C   UNK d   1       3.888 -12.038 -39.623  0.00  0.00     0.101 A 
ATOM     21  C   UNK d   1       4.059 -11.490 -38.366  0.00  0.00     0.099 A 
ATOM     22  C   UNK d   1       3.169 -11.831 -37.373  0.00  0.00     0.040 A 
ATOM     23  C   UNK d   1       2.125 -12.697 -37.614  0.00  0.00     0.012 A 
BRANCH  20  24
ATOM     24  O   UNK d   1       4.789 -11.705 -40.645  0.00  0.00    -0.353 OA
ATOM     25  C   UNK d   1       4.678 -12.339 -41.901  0.00  0.00     0.210 C 
ENDBRANCH  20  24
BRANCH  21  26
ATOM     26  O   UNK d   1       5.111 -10.614 -38.120  0.00  0.00    -0.358 OA
ATOM     27  H   UNK d   1       5.179 -10.171 -37.214  0.00  0.00     0.217 HD
ENDBRANCH  21  26
ENDBRANCH  13  18
ENDBRANCH   7  11
BRANCH   1  28
ATOM     28  C   UNK d   1       3.316 -19.743 -38.581  0.00  0.00     0.048 A 
ATOM     29  C   UNK d   1       3.936 -19.138 -39.681  0.00  0.00     0.054 A 
ATOM     30  C   UNK d   1       5.074 -19.658 -40.258  0.00  0.00     0.036 A 
ATOM     31 Cl   UNK d   1       5.774 -18.839 -41.628  0.00  0.00    -0.084 Cl
ATOM     32  C   UNK d   1       5.654 -20.802 -39.778  0.00  0.00     0.024 A 
ATOM     33  C   UNK d   1       5.044 -21.413 -38.679  0.00  0.00     0.004 A 
ATOM     34  C   UNK d   1       3.905 -20.885 -38.108  0.00  0.00     0.030 A 
ENDBRANCH   1  28
TORSDOF 5
ENDMDL
