MODEL 1
REMARK VINA RESULT:    -6.076      0.000      0.000
REMARK INTER + INTRA:          -7.679
REMARK INTER:                  -7.142
REMARK INTRA:                  -0.537
REMARK UNBOUND:                -0.537
REMARK  3 active torsions:
REMARK  status: ('A' for Active; 'I' for Inactive)
REMARK    1  A    between atoms: S_1  and  N_4 
REMARK    2  A    between atoms: S_1  and  N_22 
REMARK       I    between atoms: N_7  and  C_10 
REMARK    3  A    between atoms: C_10  and  C_12 
ROOT
ATOM      1  N   UNK d   1      -0.198 -12.294 -36.890  0.00  0.00    -0.295 N 
ATOM      2  C   UNK d   1       0.615 -13.018 -35.961  0.00  0.00     0.156 C 
ATOM      3  C   UNK d   1       0.915 -14.430 -36.425  0.00  0.00     0.147 C 
ATOM      4  N   UNK d   1      -0.310 -15.052 -36.851  0.00  0.00    -0.344 N 
ATOM      5  C   UNK d   1      -1.549 -14.327 -36.651  0.00  0.00     0.147 C 
ATOM      6  C   UNK d   1      -1.384 -12.968 -37.296  0.00  0.00     0.156 C 
ATOM      7  C   UNK d   1      -0.353 -16.341 -37.456  0.00  0.00     0.274 C 
ATOM      8  O   UNK d   1      -1.434 -16.861 -37.819  0.00  0.00    -0.266 OA
ENDROOT
BRANCH   7   9
ATOM      9  C   UNK d   1       0.878 -17.104 -37.673  0.00  0.00     0.142 A 
ATOM     10  N   UNK d   1       1.734 -17.546 -36.710  0.00  0.00    -0.224 NA
ATOM     11  C   UNK d   1       2.746 -18.205 -37.295  0.00  0.00     0.134 A 
ATOM     12  N   UNK d   1       2.527 -18.176 -38.610  0.00  0.00    -0.313 N 
ATOM     13  C   UNK d   1       3.871 -18.847 -36.802  0.00  0.00     0.052 A 
ATOM     14  C   UNK d   1       1.393 -17.510 -38.866  0.00  0.00     0.135 A 
ATOM     15  C   UNK d   1       3.412 -18.777 -39.428  0.00  0.00     0.122 A 
ATOM     16  C   UNK d   1       4.537 -19.424 -38.996  0.00  0.00     0.050 A 
ATOM     17  C   UNK d   1       4.783 -19.464 -37.628  0.00  0.00     0.029 A 
ATOM     18 Cl   UNK d   1       5.673 -20.198 -40.095  0.00  0.00    -0.083 Cl
ENDBRANCH   7   9
BRANCH   1  19
ATOM     19  S   UNK d   1       0.636 -11.499 -38.126  0.00  0.00     0.301 S 
ATOM     20  O   UNK d   1       0.961 -12.460 -39.223  0.00  0.00    -0.188 OA
ATOM     21  O   UNK d   1      -0.250 -10.422 -38.686  0.00  0.00    -0.188 OA
BRANCH  19  22
ATOM     22  N   UNK d   1       2.093 -10.749 -37.613  0.00  0.00    -0.189 NA
ATOM     23  C   UNK d   1       2.251  -9.415 -38.162  0.00  0.00     0.135 C 
ATOM     24  C   UNK d   1       3.728  -9.098 -38.148  0.00  0.00     0.183 C 
ATOM     25  O   UNK d   1       4.368  -9.679 -37.059  0.00  0.00    -0.389 OA
ATOM     26  C   UNK d   1       4.409 -11.069 -37.138  0.00  0.00     0.183 C 
ATOM     27  C   UNK d   1       3.261 -11.504 -38.027  0.00  0.00     0.135 C 
ENDBRANCH  19  22
ENDBRANCH   1  19
TORSDOF 3
ENDMDL
