/Users/jonathanwahrer/Desktop/Msc/3_Semester/Drug_Design_Praktikum/waehrer_HTS_screening/HTS_experiment/out/docking_results/vina_output/6y4q/1758_docked.pdbqt
 OpenBabel03232218403D

 28 32  0  0  1  0  0  0  0  0999 V2000
    1.1370  -16.0610  -38.3120 N   0  0  0  0  0  0  0  0  0  0  0  0
   -0.0090  -16.3500  -38.9020 N   0  0  0  0  0  0  0  0  0  0  0  0
   -0.2160  -17.6800  -38.9690 C   0  0  0  0  0  0  0  0  0  0  0  0
   -1.2300  -18.3370  -39.4790 C   0  0  0  0  0  2  0  0  0  0  0  0
    0.8820  -18.2750  -38.3780 C   0  0  1  0  0  3  0  0  0  0  0  0
    1.6970  -17.2370  -37.9840 C   0  0  0  0  0  0  0  0  0  0  0  0
    2.8040  -17.3630  -37.4020 O   0  0  0  0  0  0  0  0  0  0  0  0
   -0.6900  -15.6480  -39.2790 H   0  0  0  0  0  0  0  0  0  0  0  0
    1.0850  -19.5930  -38.2310 C   0  0  0  0  0  2  0  0  0  0  0  0
    1.6820  -20.2670  -39.3310 N   0  0  0  0  0  0  0  0  0  0  0  0
    1.1470  -20.6880  -40.1160 H   0  0  0  0  0  0  0  0  0  0  0  0
    3.1310  -20.3840  -39.3750 C   0  0  2  0  0  0  0  0  0  0  0  0
    3.5270  -21.6330  -40.1470 C   0  0  0  0  0  2  0  0  0  0  0  0
    4.9600  -21.6980  -40.2320 N   0  0  2  0  0  0  0  0  0  0  0  0
    5.4740  -21.7730  -38.8680 C   0  0  0  0  0  2  0  0  0  0  0  0
    5.4370  -20.5110  -40.9030 C   0  0  0  0  0  2  0  0  0  0  0  0
    5.1560  -20.5890  -38.1190 N   0  0  1  0  0  0  0  0  0  0  0  0
    5.6450  -19.4100  -38.7980 C   0  0  0  0  0  2  0  0  0  0  0  0
    3.7230  -20.4920  -38.0020 C   0  0  0  0  0  2  0  0  0  0  0  0
    5.1340  -19.3060  -40.1380 N   0  0  2  0  0  0  0  0  0  0  0  0
    3.6960  -19.1740  -40.0860 C   0  0  0  0  0  2  0  0  0  0  0  0
    1.6740  -14.7450  -38.0720 C   0  0  0  0  0  0  0  0  0  0  0  0
    1.5840  -14.1080  -36.8750 C   0  0  0  0  0  3  0  0  0  0  0  0
    2.1360  -12.8330  -36.7420 C   0  0  0  0  0  3  0  0  0  0  0  0
    2.7720  -12.2020  -37.7910 C   0  0  0  0  0  0  0  0  0  0  0  0
    3.6040  -10.2780  -37.5840 I   0  0  0  0  0  0  0  0  0  0  0  0
    2.8640  -12.8440  -39.0050 C   0  0  0  0  0  3  0  0  0  0  0  0
    2.3130  -14.1020  -39.1160 C   0  0  0  0  0  3  0  0  0  0  0  0
  1 22  1  0  0  0  0
  1  6  1  0  0  0  0
  2  1  1  0  0  0  0
  3  2  1  0  0  0  0
  3  5  1  0  0  0  0
  4  3  2  0  0  0  0
  5  9  1  1  0  0  0
  5  6  1  0  0  0  0
  6  7  2  0  0  0  0
  8  2  1  0  0  0  0
 10  9  1  0  0  0  0
 11 10  1  0  0  0  0
 12 10  1  1  0  0  0
 12 19  1  0  0  0  0
 13 12  1  0  0  0  0
 14 16  1  1  0  0  0
 14 13  1  0  0  0  0
 14 15  1  0  0  0  0
 17 15  1  6  0  0  0
 17 19  1  0  0  0  0
 18 17  1  0  0  0  0
 20 16  1  6  0  0  0
 20 21  1  0  0  0  0
 20 18  1  0  0  0  0
 21 12  1  0  0  0  0
 22 23  1  0  0  0  0
 23 24  2  0  0  0  0
 25 26  1  0  0  0  0
 25 24  1  0  0  0  0
 27 25  2  0  0  0  0
 28 27  1  0  0  0  0
 28 22  2  0  0  0  0
M  END
>  <Pose>
1

>  <Score>
-6.396

$$$$
