MODEL 1
REMARK VINA RESULT:    -6.396      0.000      0.000
REMARK INTER + INTRA:          -8.597
REMARK INTER:                  -7.892
REMARK INTRA:                  -0.705
REMARK UNBOUND:                -0.705
REMARK  4 active torsions:
REMARK  status: ('A' for Active; 'I' for Inactive)
REMARK    1  A    between atoms: C_5  and  N_8 
REMARK    2  A    between atoms: C_12  and  C_13 
REMARK    3  A    between atoms: C_13  and  N_14 
REMARK    4  A    between atoms: N_14  and  C_15 
ROOT
ATOM      1  N   UNK d   1       1.137 -16.061 -38.312  0.00  0.00    -0.220 N 
ATOM      2  N   UNK d   1      -0.009 -16.350 -38.902  0.00  0.00    -0.291 N 
ATOM      3  C   UNK d   1      -0.216 -17.680 -38.969  0.00  0.00     0.056 A 
ATOM      4  C   UNK d   1      -1.230 -18.337 -39.479  0.00  0.00     0.045 C 
ATOM      5  C   UNK d   1       0.882 -18.275 -38.378  0.00  0.00     0.076 A 
ATOM      6  C   UNK d   1       1.697 -17.237 -37.984  0.00  0.00     0.280 A 
ATOM      7  O   UNK d   1       2.804 -17.363 -37.402  0.00  0.00    -0.265 OA
ATOM      8  H   UNK d   1      -0.690 -15.648 -39.279  0.00  0.00     0.187 HD
ENDROOT
BRANCH   5   9
ATOM      9  C   UNK d   1       1.085 -19.593 -38.231  0.00  0.00     0.103 C 
BRANCH   9  10
ATOM     10  N   UNK d   1       1.682 -20.267 -39.331  0.00  0.00    -0.384 N 
ATOM     11  H   UNK d   1       1.147 -20.688 -40.116  0.00  0.00     0.159 HD
BRANCH  10  12
ATOM     12  C   UNK d   1       3.131 -20.384 -39.375  0.00  0.00     0.109 C 
ATOM     13  C   UNK d   1       3.527 -21.633 -40.147  0.00  0.00     0.311 C 
ATOM     14  N   UNK d   1       4.960 -21.698 -40.232  0.00  0.00     0.147 N 
ATOM     15  C   UNK d   1       5.474 -21.773 -38.868  0.00  0.00     0.547 C 
ATOM     16  C   UNK d   1       5.437 -20.511 -40.903  0.00  0.00     0.547 C 
ATOM     17  N   UNK d   1       5.156 -20.589 -38.119  0.00  0.00     0.147 N 
ATOM     18  C   UNK d   1       5.645 -19.410 -38.798  0.00  0.00     0.547 C 
ATOM     19  C   UNK d   1       3.723 -20.492 -38.002  0.00  0.00     0.311 C 
ATOM     20  N   UNK d   1       5.134 -19.306 -40.138  0.00  0.00     0.147 N 
ATOM     21  C   UNK d   1       3.696 -19.174 -40.086  0.00  0.00     0.311 C 
ENDBRANCH  10  12
ENDBRANCH   9  10
ENDBRANCH   5   9
BRANCH   1  22
ATOM     22  C   UNK d   1       1.674 -14.745 -38.072  0.00  0.00     0.060 A 
ATOM     23  C   UNK d   1       1.584 -14.108 -36.875  0.00  0.00     0.033 A 
ATOM     24  C   UNK d   1       2.136 -12.833 -36.742  0.00  0.00     0.020 A 
ATOM     25  C   UNK d   1       2.772 -12.202 -37.791  0.00  0.00     0.006 A 
ATOM     26  I   UNK d   1       3.604 -10.278 -37.584  0.00  0.00    -0.045 I 
ATOM     27  C   UNK d   1       2.864 -12.844 -39.005  0.00  0.00     0.020 A 
ATOM     28  C   UNK d   1       2.313 -14.102 -39.116  0.00  0.00     0.033 A 
ENDBRANCH   1  22
TORSDOF 4
ENDMDL
