MODEL 1
REMARK VINA RESULT:    -7.036      0.000      0.000
REMARK INTER + INTRA:         -10.540
REMARK INTER:                  -9.504
REMARK INTRA:                  -1.036
REMARK UNBOUND:                -1.036
REMARK  6 active torsions:
REMARK  status: ('A' for Active; 'I' for Inactive)
REMARK    1  A    between atoms: S_1  and  N_4 
REMARK    2  A    between atoms: S_1  and  C_21 
REMARK    3  A    between atoms: C_5  and  C_9 
REMARK       I    between atoms: C_9  and  N_11 
REMARK    4  A    between atoms: N_11  and  C_12 
REMARK    5  A    between atoms: C_12  and  C_13 
REMARK    6  A    between atoms: C_13  and  N_14 
ROOT
ATOM      1  N   UNK d   1       0.523 -15.989 -37.956  0.00  0.00    -0.293 N 
ATOM      2  C   UNK d   1       1.551 -16.297 -37.086  0.00  0.00     0.188 C 
ATOM      3  C   UNK d   1       0.881 -16.532 -35.725  0.00  0.00     0.037 C 
ATOM      4  C   UNK d   1      -0.408 -17.211 -36.135  0.00  0.00     0.023 C 
ATOM      5  C   UNK d   1      -0.695 -16.662 -37.512  0.00  0.00     0.136 C 
ENDROOT
BRANCH   1   6
ATOM      6  S   UNK d   1       0.260 -14.508 -38.659  0.00  0.00     0.263 S 
ATOM      7  O   UNK d   1      -1.007 -13.828 -38.144  0.00  0.00    -0.200 OA
ATOM      8  O   UNK d   1      -0.030 -14.724 -40.145  0.00  0.00    -0.200 OA
BRANCH   6   9
ATOM      9  C   UNK d   1       1.587 -13.389 -38.556  0.00  0.00     0.104 A 
ATOM     10  C   UNK d   1       2.346 -13.133 -39.710  0.00  0.00     0.066 A 
ATOM     11  C   UNK d   1       3.444 -12.322 -39.733  0.00  0.00     0.097 A 
ATOM     12  C   UNK d   1       3.814 -11.727 -38.540  0.00  0.00     0.070 A 
ATOM     13  O   UNK d   1       4.189 -12.073 -40.875  0.00  0.00    -0.340 OA
ATOM     14  C   UNK d   1       3.123 -11.930 -37.384  0.00  0.00     0.058 A 
ATOM     15  N   UNK d   1       4.964 -10.867 -38.551  0.00  0.00    -0.323 N 
ATOM     16  C   UNK d   1       2.012 -12.765 -37.417  0.00  0.00     0.059 A 
ATOM     17 Cl   UNK d   1       1.118 -12.892 -35.919  0.00  0.00    -0.083 Cl
ATOM     18  C   UNK d   1       5.673 -10.658 -39.770  0.00  0.00     0.246 C 
ATOM     19  H   UNK d   1       5.257 -10.408 -37.654  0.00  0.00     0.169 HD
ATOM     20  O   UNK d   1       6.869 -10.317 -39.745  0.00  0.00    -0.271 OA
ATOM     21  C   UNK d   1       4.926 -10.864 -41.036  0.00  0.00     0.278 C 
ENDBRANCH   6   9
ENDBRANCH   1   6
BRANCH   2  22
ATOM     22  C   UNK d   1       2.187 -17.602 -37.535  0.00  0.00     0.241 C 
ATOM     23  O   UNK d   1       1.845 -18.010 -38.653  0.00  0.00    -0.271 OA
ATOM     24  N   UNK d   1       3.098 -18.256 -36.688  0.00  0.00    -0.358 N 
ATOM     25  H   UNK d   1       3.353 -17.893 -35.747  0.00  0.00     0.162 HD
BRANCH  24  26
ATOM     26  C   UNK d   1       3.719 -19.490 -37.103  0.00  0.00     0.152 C 
BRANCH  26  27
ATOM     27  C   UNK d   1       5.061 -19.363 -37.714  0.00  0.00     0.292 C 
BRANCH  27  28
ATOM     28  N   UNK d   1       5.237 -19.958 -38.991  0.00  0.00     0.090 N 
ATOM     29  C   UNK d   1       4.710 -19.223 -40.095  0.00  0.00     0.272 C 
ATOM     30  C   UNK d   1       5.687 -19.353 -41.246  0.00  0.00     0.030 C 
ATOM     31  C   UNK d   1       5.986 -20.821 -41.471  0.00  0.00     0.002 C 
ATOM     32  C   UNK d   1       4.683 -21.575 -41.470  0.00  0.00     0.002 C 
ATOM     33  C   UNK d   1       4.135 -21.861 -40.122  0.00  0.00     0.030 C 
ATOM     34  C   UNK d   1       4.921 -21.348 -38.975  0.00  0.00     0.272 C 
ENDBRANCH  27  28
ENDBRANCH  26  27
ENDBRANCH  24  26
ENDBRANCH   2  22
TORSDOF 6
ENDMDL
