MODEL 1
REMARK VINA RESULT:    -7.238      0.000      0.000
REMARK INTER + INTRA:          -8.518
REMARK INTER:                  -8.085
REMARK INTRA:                  -0.433
REMARK UNBOUND:                -0.433
REMARK  2 active torsions:
REMARK  status: ('A' for Active; 'I' for Inactive)
REMARK    1  A    between atoms: C_5  and  C_8 
REMARK       I    between atoms: C_8  and  N_10 
REMARK    2  A    between atoms: N_13  and  C_16 
ROOT
ATOM      1  C   UNK d   1       2.369 -17.819 -36.732  0.00  0.00     0.187 C 
ATOM      2  O   UNK d   1       2.818 -17.578 -35.525  0.00  0.00    -0.171 OA
ATOM      3  N   UNK d   1       1.266 -17.065 -37.103  0.00  0.00    -0.356 N 
ATOM      4  C   UNK d   1       0.471 -17.078 -38.286  0.00  0.00     0.145 C 
ATOM      5  C   UNK d   1       0.973 -15.878 -39.115  0.00  0.00     0.144 C 
ATOM      6  N   UNK d   1       1.197 -14.766 -38.173  0.00  0.00    -0.361 N 
ATOM      7  C   UNK d   1       0.451 -14.766 -36.948  0.00  0.00     0.144 C 
ATOM      8  C   UNK d   1       0.827 -15.997 -36.144  0.00  0.00     0.145 C 
ENDROOT
BRANCH   1   9
ATOM      9  C   UNK d   1       3.117 -18.823 -37.434  0.00  0.00     0.018 A 
ATOM     10  C   UNK d   1       4.513 -18.846 -37.329  0.00  0.00     0.017 A 
ATOM     11  C   UNK d   1       5.308 -19.746 -37.999  0.00  0.00     0.025 A 
ATOM     12  C   UNK d   1       4.756 -20.693 -38.826  0.00  0.00     0.034 A 
ATOM     13 Cl   UNK d   1       5.776 -21.854 -39.688  0.00  0.00    -0.084 Cl
ATOM     14  C   UNK d   1       3.393 -20.709 -38.959  0.00  0.00     0.025 A 
ATOM     15  C   UNK d   1       2.591 -19.782 -38.269  0.00  0.00     0.017 A 
ENDBRANCH   1   9
BRANCH   6  16
ATOM     16  C   UNK d   1       2.129 -13.742 -38.508  0.00  0.00     0.146 A 
ATOM     17  N   UNK d   1       2.561 -12.859 -37.581  0.00  0.00    -0.147 NA
ATOM     18  N   UNK d   1       3.423 -11.896 -37.856  0.00  0.00    -0.204 N 
ATOM     19  C   UNK d   1       3.937 -11.720 -39.081  0.00  0.00     0.174 A 
ATOM     20  C   UNK d   1       3.982 -10.916 -37.091  0.00  0.00     0.261 A 
ATOM     21  N   UNK d   1       4.790 -10.666 -39.085  0.00  0.00    -0.129 NA
ATOM     22  C   UNK d   1       3.544 -12.585 -40.086  0.00  0.00     0.058 A 
ATOM     23  N   UNK d   1       4.808 -10.182 -37.857  0.00  0.00    -0.141 NA
ATOM     24  C   UNK d   1       2.646 -13.579 -39.774  0.00  0.00     0.056 A 
ENDBRANCH   6  16
TORSDOF 2
ENDMDL
