MODEL 1
REMARK VINA RESULT:    -6.383      0.000      0.000
REMARK INTER + INTRA:          -8.906
REMARK INTER:                  -7.875
REMARK INTRA:                  -1.031
REMARK UNBOUND:                -1.031
REMARK  4 active torsions:
REMARK  status: ('A' for Active; 'I' for Inactive)
REMARK    1  A    between atoms: C_5  and  N_8 
REMARK    2  A    between atoms: C_10  and  C_24 
REMARK    3  A    between atoms: N_11  and  C_14 
REMARK    4  A    between atoms: C_14  and  C_15 
REMARK       I    between atoms: C_15  and  N_17 
ROOT
ATOM      1  N   UNK d   1       0.956 -16.412 -37.809  0.00  0.00    -0.181 N 
ATOM      2  N   UNK d   1      -0.270 -16.737 -38.019  0.00  0.00    -0.144 NA
ATOM      3  C   UNK d   1      -0.424 -18.112 -38.102  0.00  0.00     0.165 A 
ATOM      4  N   UNK d   1       0.780 -18.624 -37.933  0.00  0.00    -0.272 N 
ATOM      5  C   UNK d   1       1.634 -17.561 -37.748  0.00  0.00     0.352 A 
ATOM      6  O   UNK d   1       2.861 -17.695 -37.555  0.00  0.00    -0.244 OA
ENDROOT
BRANCH   4   7
ATOM      7  C   UNK d   1       1.211 -19.984 -38.024  0.00  0.00     0.222 C 
BRANCH   7   8
ATOM      8  C   UNK d   1       2.021 -20.314 -39.211  0.00  0.00     0.172 C 
ATOM      9  O   UNK d   1       1.350 -20.244 -40.324  0.00  0.00    -0.175 OA
ATOM     10  N   UNK d   1       3.344 -20.676 -39.339  0.00  0.00    -0.351 N 
ATOM     11  C   UNK d   1       4.270 -20.861 -38.254  0.00  0.00     0.145 C 
ATOM     12  C   UNK d   1       3.902 -20.891 -40.685  0.00  0.00     0.227 C 
ATOM     13  C   UNK d   1       5.656 -21.319 -38.743  0.00  0.00     0.142 C 
ATOM     14  N   UNK d   1       6.133 -20.384 -39.766  0.00  0.00    -0.358 N 
ATOM     15  C   UNK d   1       5.134 -20.069 -40.761  0.00  0.00     0.235 C 
ATOM     16  H   UNK d   1       7.078 -19.990 -39.780  0.00  0.00     0.162 HD
ATOM     17  O   UNK d   1       5.340 -19.162 -41.599  0.00  0.00    -0.272 OA
ENDBRANCH   7   8
ENDBRANCH   4   7
BRANCH   3  18
ATOM     18  C   UNK d   1      -1.742 -18.688 -38.365  0.00  0.00     0.012 A 
ATOM     19  C   UNK d   1      -2.705 -18.617 -37.350  0.00  0.00     0.015 A 
ATOM     20  C   UNK d   1      -3.953 -19.167 -37.442  0.00  0.00     0.001 A 
ATOM     21  C   UNK d   1      -4.340 -19.849 -38.588  0.00  0.00     0.000 A 
ATOM     22  C   UNK d   1      -3.408 -19.927 -39.584  0.00  0.00     0.001 A 
ATOM     23  C   UNK d   1      -2.133 -19.362 -39.484  0.00  0.00     0.015 A 
ENDBRANCH   3  18
BRANCH   1  24
ATOM     24  C   UNK d   1       1.452 -15.084 -37.674  0.00  0.00     0.063 A 
ATOM     25  C   UNK d   1       2.027 -14.447 -38.756  0.00  0.00     0.033 A 
ATOM     26  C   UNK d   1       2.515 -13.156 -38.644  0.00  0.00     0.026 A 
ATOM     27  C   UNK d   1       2.456 -12.444 -37.461  0.00  0.00     0.034 A 
ATOM     28 Cl   UNK d   1       3.073 -10.810 -37.307  0.00  0.00    -0.084 Cl
ATOM     29  C   UNK d   1       1.879 -13.086 -36.377  0.00  0.00     0.026 A 
ATOM     30  C   UNK d   1       1.387 -14.384 -36.488  0.00  0.00     0.033 A 
ENDBRANCH   1  24
TORSDOF 4
ENDMDL
