MODEL 1
REMARK VINA RESULT:    -6.035      0.000      0.000
REMARK INTER + INTRA:          -8.246
REMARK INTER:                  -7.446
REMARK INTRA:                  -0.800
REMARK UNBOUND:                -0.800
REMARK  4 active torsions:
REMARK  status: ('A' for Active; 'I' for Inactive)
REMARK    1  A    between atoms: C_5  and  N_8 
REMARK    2  A    between atoms: N_15  and  C_18 
REMARK    3  A    between atoms: C_20  and  O_26 
REMARK    4  A    between atoms: C_21  and  O_24 
ROOT
ATOM      1  N   UNK d   1      -0.648 -16.271 -36.974  0.00  0.00    -0.234 N 
ATOM      2  N   UNK d   1      -1.755 -16.691 -36.407  0.00  0.00    -0.234 N 
ATOM      3  N   UNK d   1      -1.806 -18.006 -36.598  0.00  0.00    -0.278 N 
ATOM      4  C   UNK d   1      -0.731 -18.432 -37.288  0.00  0.00     0.152 A 
ATOM      5  C   UNK d   1      -0.014 -17.327 -37.515  0.00  0.00     0.160 A 
ATOM      6  C   UNK d   1       1.095 -17.763 -38.227  0.00  0.00     0.286 A 
ATOM      7  O   UNK d   1       2.009 -17.007 -38.626  0.00  0.00    -0.265 OA
ATOM      8  N   UNK d   1       1.068 -19.088 -38.433  0.00  0.00    -0.241 N 
ATOM      9  C   UNK d   1      -0.070 -19.507 -37.848  0.00  0.00     0.286 A 
ATOM     10  O   UNK d   1      -0.475 -20.707 -37.816  0.00  0.00    -0.265 OA
ATOM     11  H   UNK d   1      -2.475 -16.101 -35.894  0.00  0.00     0.209 HD
ATOM     12  H   UNK d   1      -2.592 -18.602 -36.245  0.00  0.00     0.189 HD
ENDROOT
BRANCH   8  13
ATOM     13  C   UNK d   1       2.010 -19.913 -39.113  0.00  0.00     0.049 A 
ATOM     14  C   UNK d   1       3.168 -20.375 -38.520  0.00  0.00     0.069 A 
ATOM     15  C   UNK d   1       4.075 -21.175 -39.185  0.00  0.00     0.103 A 
ATOM     16  C   UNK d   1       3.861 -21.552 -40.494  0.00  0.00     0.101 A 
ATOM     17  C   UNK d   1       2.709 -21.097 -41.100  0.00  0.00     0.042 A 
ATOM     18  C   UNK d   1       1.805 -20.297 -40.424  0.00  0.00     0.033 A 
BRANCH  15  19
ATOM     19  O   UNK d   1       5.242 -21.640 -38.587  0.00  0.00    -0.353 OA
ATOM     20  C   UNK d   1       6.328 -20.737 -38.491  0.00  0.00     0.210 C 
ENDBRANCH  15  19
BRANCH  16  21
ATOM     21  O   UNK d   1       4.783 -22.358 -41.157  0.00  0.00    -0.353 OA
ATOM     22  C   UNK d   1       4.486 -23.088 -42.308  0.00  0.00     0.210 C 
ENDBRANCH  16  21
ENDBRANCH   8  13
BRANCH   1  23
ATOM     23  C   UNK d   1      -0.202 -14.933 -37.006  0.00  0.00     0.058 A 
ATOM     24  C   UNK d   1       0.918 -14.551 -36.275  0.00  0.00     0.033 A 
ATOM     25  C   UNK d   1       1.295 -13.226 -36.354  0.00  0.00     0.026 A 
ATOM     26  C   UNK d   1       0.644 -12.282 -37.096  0.00  0.00     0.034 A 
ATOM     27 Cl   UNK d   1       1.166 -10.597 -37.165  0.00  0.00    -0.084 Cl
ATOM     28  C   UNK d   1      -0.460 -12.669 -37.815  0.00  0.00     0.026 A 
ATOM     29  C   UNK d   1      -0.875 -13.970 -37.770  0.00  0.00     0.033 A 
ENDBRANCH   1  23
TORSDOF 4
ENDMDL
