/Users/jonathanwahrer/Desktop/Msc/3_Semester/Drug_Design_Praktikum/waehrer_HTS_screening/HTS_experiment/out/docking_results/vina_output/6y4q/1789_docked.pdbqt
 OpenBabel03232218413D

 29 32  0  0  0  0  0  0  0  0999 V2000
   -0.6480  -16.2710  -36.9740 N   0  0  0  0  0  0  0  0  0  0  0  0
   -1.7550  -16.6910  -36.4070 N   0  0  0  0  0  0  0  0  0  0  0  0
   -1.8060  -18.0060  -36.5980 N   0  0  0  0  0  0  0  0  0  0  0  0
   -0.7310  -18.4320  -37.2880 C   0  0  0  0  0  0  0  0  0  0  0  0
   -0.0140  -17.3270  -37.5150 C   0  0  0  0  0  0  0  0  0  0  0  0
    1.0950  -17.7630  -38.2270 C   0  0  0  0  0  0  0  0  0  0  0  0
    2.0090  -17.0070  -38.6260 O   0  0  0  0  0  0  0  0  0  0  0  0
    1.0680  -19.0880  -38.4330 N   0  0  0  0  0  0  0  0  0  0  0  0
   -0.0700  -19.5070  -37.8480 C   0  0  0  0  0  0  0  0  0  0  0  0
   -0.4750  -20.7070  -37.8160 O   0  0  0  0  0  0  0  0  0  0  0  0
   -2.4750  -16.1010  -35.8940 H   0  0  0  0  0  0  0  0  0  0  0  0
   -2.5920  -18.6020  -36.2450 H   0  0  0  0  0  0  0  0  0  0  0  0
    2.0100  -19.9130  -39.1130 C   0  0  0  0  0  0  0  0  0  0  0  0
    3.1680  -20.3750  -38.5200 C   0  0  0  0  0  3  0  0  0  0  0  0
    4.0750  -21.1750  -39.1850 C   0  0  0  0  0  0  0  0  0  0  0  0
    3.8610  -21.5520  -40.4940 C   0  0  0  0  0  0  0  0  0  0  0  0
    2.7090  -21.0970  -41.1000 C   0  0  0  0  0  3  0  0  0  0  0  0
    1.8050  -20.2970  -40.4240 C   0  0  0  0  0  3  0  0  0  0  0  0
    5.2420  -21.6400  -38.5870 O   0  0  0  0  0  0  0  0  0  0  0  0
    6.3280  -20.7370  -38.4910 C   0  0  0  0  0  1  0  0  0  0  0  0
    4.7830  -22.3580  -41.1570 O   0  0  0  0  0  0  0  0  0  0  0  0
    4.4860  -23.0880  -42.3080 C   0  0  0  0  0  1  0  0  0  0  0  0
   -0.2020  -14.9330  -37.0060 C   0  0  0  0  0  0  0  0  0  0  0  0
    0.9180  -14.5510  -36.2750 C   0  0  0  0  0  3  0  0  0  0  0  0
    1.2950  -13.2260  -36.3540 C   0  0  0  0  0  3  0  0  0  0  0  0
    0.6440  -12.2820  -37.0960 C   0  0  0  0  0  0  0  0  0  0  0  0
    1.1660  -10.5970  -37.1650 Cl  0  0  0  0  0  0  0  0  0  0  0  0
   -0.4600  -12.6690  -37.8150 C   0  0  0  0  0  3  0  0  0  0  0  0
   -0.8750  -13.9700  -37.7700 C   0  0  0  0  0  3  0  0  0  0  0  0
  1  2  1  0  0  0  0
  2 11  1  0  0  0  0
  3  2  1  0  0  0  0
  3 12  1  0  0  0  0
  4  3  1  0  0  0  0
  5  4  2  0  0  0  0
  5  1  1  0  0  0  0
  6  5  1  0  0  0  0
  7  6  2  0  0  0  0
  8  6  1  0  0  0  0
  8  9  1  0  0  0  0
  9 10  2  0  0  0  0
  9  4  1  0  0  0  0
 13 14  1  0  0  0  0
 13  8  1  0  0  0  0
 15 19  1  0  0  0  0
 15 14  2  0  0  0  0
 16 15  1  0  0  0  0
 17 16  2  0  0  0  0
 17 18  1  0  0  0  0
 18 13  2  0  0  0  0
 19 20  1  0  0  0  0
 21 16  1  0  0  0  0
 22 21  1  0  0  0  0
 23  1  1  0  0  0  0
 23 24  1  0  0  0  0
 25 24  2  0  0  0  0
 26 25  1  0  0  0  0
 27 26  1  0  0  0  0
 28 29  1  0  0  0  0
 28 26  2  0  0  0  0
 29 23  2  0  0  0  0
M  END
>  <Pose>
1

>  <Score>
-6.035

$$$$
