MODEL 1
REMARK VINA RESULT:    -6.033      0.000      0.000
REMARK INTER + INTRA:          -8.160
REMARK INTER:                  -7.444
REMARK INTRA:                  -0.716
REMARK UNBOUND:                -0.716
REMARK  4 active torsions:
REMARK  status: ('A' for Active; 'I' for Inactive)
REMARK    1  A    between atoms: C_5  and  N_8 
REMARK    2  A    between atoms: N_15  and  C_18 
REMARK    3  A    between atoms: C_20  and  O_26 
REMARK    4  A    between atoms: C_22  and  O_24 
ROOT
ATOM      1  N   UNK d   1       3.857 -21.282 -40.026  0.00  0.00    -0.234 N 
ATOM      2  N   UNK d   1       4.878 -21.854 -39.420  0.00  0.00    -0.234 N 
ATOM      3  N   UNK d   1       4.959 -21.286 -38.224  0.00  0.00    -0.278 N 
ATOM      4  C   UNK d   1       4.002 -20.357 -38.055  0.00  0.00     0.152 A 
ATOM      5  C   UNK d   1       3.309 -20.363 -39.206  0.00  0.00     0.160 A 
ATOM      6  C   UNK d   1       2.326 -19.408 -39.029  0.00  0.00     0.286 A 
ATOM      7  O   UNK d   1       1.473 -19.139 -39.926  0.00  0.00    -0.265 OA
ATOM      8  N   UNK d   1       2.401 -18.828 -37.819  0.00  0.00    -0.241 N 
ATOM      9  C   UNK d   1       3.444 -19.419 -37.212  0.00  0.00     0.286 A 
ATOM     10  O   UNK d   1       3.836 -19.137 -36.040  0.00  0.00    -0.265 OA
ATOM     11  H   UNK d   1       5.489 -22.604 -39.823  0.00  0.00     0.209 HD
ATOM     12  H   UNK d   1       5.673 -21.526 -37.503  0.00  0.00     0.189 HD
ENDROOT
BRANCH   8  13
ATOM     13  C   UNK d   1       1.530 -17.808 -37.336  0.00  0.00     0.051 A 
ATOM     14  C   UNK d   1       0.223 -18.067 -36.974  0.00  0.00     0.067 A 
ATOM     15  C   UNK d   1      -0.638 -17.097 -36.503  0.00  0.00     0.073 A 
ATOM     16  C   UNK d   1      -0.169 -15.805 -36.390  0.00  0.00     0.073 A 
ATOM     17  C   UNK d   1       1.128 -15.489 -36.738  0.00  0.00     0.073 A 
ATOM     18  C   UNK d   1       1.959 -16.501 -37.208  0.00  0.00     0.067 A 
BRANCH  15  19
ATOM     19  O   UNK d   1      -1.963 -17.413 -36.146  0.00  0.00    -0.356 OA
ATOM     20  C   UNK d   1      -2.517 -18.632 -36.585  0.00  0.00     0.210 C 
ENDBRANCH  15  19
BRANCH  17  21
ATOM     21  O   UNK d   1       1.564 -14.177 -36.611  0.00  0.00    -0.356 OA
ATOM     22  C   UNK d   1       0.790 -13.195 -35.977  0.00  0.00     0.210 C 
ENDBRANCH  17  21
ENDBRANCH   8  13
BRANCH   1  23
ATOM     23  C   UNK d   1       3.398 -21.577 -41.334  0.00  0.00     0.058 A 
ATOM     24  C   UNK d   1       3.455 -20.653 -42.367  0.00  0.00     0.033 A 
ATOM     25  C   UNK d   1       3.002 -20.973 -43.620  0.00  0.00     0.026 A 
ATOM     26  C   UNK d   1       2.475 -22.214 -43.910  0.00  0.00     0.034 A 
ATOM     27 Cl   UNK d   1       1.905 -22.571 -45.546  0.00  0.00    -0.084 Cl
ATOM     28  C   UNK d   1       2.409 -23.142 -42.904  0.00  0.00     0.026 A 
ATOM     29  C   UNK d   1       2.865 -22.817 -41.644  0.00  0.00     0.033 A 
ENDBRANCH   1  23
TORSDOF 4
ENDMDL
