MODEL 1
REMARK VINA RESULT:    -6.092      0.000      0.000
REMARK INTER + INTRA:          -7.837
REMARK INTER:                  -7.160
REMARK INTRA:                  -0.677
REMARK UNBOUND:                -0.677
REMARK  3 active torsions:
REMARK  status: ('A' for Active; 'I' for Inactive)
REMARK    1  A    between atoms: N_15  and  C_19 
REMARK    2  A    between atoms: C_19  and  C_20 
REMARK       I    between atoms: C_20  and  N_22 
REMARK    3  A    between atoms: N_22  and  C_23 
ROOT
ATOM      1 Cl   UNK d   1      -0.525 -21.462 -42.132  0.00  0.00    -0.084 Cl
ATOM      2  C   UNK d   1       0.941 -21.096 -41.224  0.00  0.00     0.036 A 
ATOM      3  C   UNK d   1       0.904 -20.204 -40.167  0.00  0.00     0.055 A 
ATOM      4  C   UNK d   1       2.034 -19.912 -39.454  0.00  0.00     0.077 A 
ATOM      5  C   UNK d   1       3.194 -20.543 -39.837  0.00  0.00     0.038 A 
ATOM      6  C   UNK d   1       3.257 -21.431 -40.879  0.00  0.00     0.019 A 
ATOM      7  C   UNK d   1       2.105 -21.717 -41.592  0.00  0.00     0.025 A 
ATOM      8  C   UNK d   1       4.433 -20.252 -39.090  0.00  0.00     0.153 A 
ATOM      9  N   UNK d   1       5.644 -20.671 -39.203  0.00  0.00    -0.270 NA
ATOM     10  C   UNK d   1       6.515 -20.087 -38.224  0.00  0.00     0.172 A 
ATOM     11  C   UNK d   1       5.636 -19.182 -37.424  0.00  0.00     0.171 A 
ATOM     12  N   UNK d   1       4.329 -19.329 -38.019  0.00  0.00    -0.160 N 
ATOM     13  C   UNK d   1       3.091 -18.698 -37.662  0.00  0.00     0.736 A 
ATOM     14  N   UNK d   1       2.763 -17.813 -36.709  0.00  0.00     0.025 NA
ATOM     15  N   UNK d   1       1.475 -17.526 -36.779  0.00  0.00    -0.194 N 
ATOM     16  C   UNK d   1       0.998 -18.254 -37.804  0.00  0.00     0.365 A 
ATOM     17  O   UNK d   1      -0.201 -18.241 -38.173  0.00  0.00    -0.244 OA
ATOM     18  N   UNK d   1       1.988 -18.994 -38.372  0.00  0.00    -0.090 N 
ENDROOT
BRANCH  15  19
ATOM     19  C   UNK d   1       0.706 -16.616 -35.937  0.00  0.00     0.259 C 
BRANCH  19  20
ATOM     20  C   UNK d   1       0.722 -15.267 -36.551  0.00  0.00     0.237 C 
ATOM     21  O   UNK d   1      -0.269 -14.505 -36.369  0.00  0.00    -0.272 OA
ATOM     22  N   UNK d   1       1.806 -14.792 -37.335  0.00  0.00    -0.356 N 
ATOM     23  H   UNK d   1       2.614 -15.433 -37.474  0.00  0.00     0.162 HD
BRANCH  22  24
ATOM     24  C   UNK d   1       1.776 -13.468 -37.914  0.00  0.00     0.076 C 
ATOM     25  C   UNK d   1       2.641 -12.505 -37.097  0.00  0.00     0.032 C 
ATOM     26  C   UNK d   1       2.447 -13.573 -39.277  0.00  0.00     0.032 C 
ENDBRANCH  22  24
ENDBRANCH  19  20
ENDBRANCH  15  19
TORSDOF 3
ENDMDL
