/Users/jonathanwahrer/Desktop/Msc/3_Semester/Drug_Design_Praktikum/waehrer_HTS_screening/HTS_experiment/out/docking_results/vina_output/6y4q/1802_docked.pdbqt
 OpenBabel03232218423D

 27 30  0  0  0  0  0  0  0  0999 V2000
    6.8110  -19.2120  -37.4640 Cl  0  0  0  0  0  0  0  0  0  0  0  0
    5.2840  -19.5910  -38.2630 C   0  0  0  0  0  0  0  0  0  0  0  0
    4.1180  -18.9950  -37.7760 C   0  0  0  0  0  3  0  0  0  0  0  0
    2.8910  -19.2400  -38.3590 C   0  0  0  0  0  0  0  0  0  0  0  0
    2.8800  -20.1010  -39.4380 C   0  0  0  0  0  0  0  0  0  0  0  0
    3.9860  -20.7010  -39.9420 C   0  0  0  0  0  3  0  0  0  0  0  0
    5.2290  -20.4430  -39.3430 C   0  0  0  0  0  3  0  0  0  0  0  0
    1.5520  -20.3510  -40.0550 C   0  0  0  0  0  0  0  0  0  0  0  0
    1.1980  -21.0910  -41.0610 N   0  0  0  0  0  0  0  0  0  0  0  0
   -0.2280  -21.0030  -41.2800 C   0  0  0  0  0  3  0  0  0  0  0  0
   -0.7710  -20.0530  -40.2410 C   0  0  0  0  0  3  0  0  0  0  0  0
    0.4330  -19.7070  -39.5030 N   0  0  0  0  0  0  0  0  0  0  0  0
    0.5280  -18.8290  -38.3830 C   0  0  0  0  0  0  0  0  0  0  0  0
   -0.4020  -18.1150  -37.7150 N   0  0  0  0  0  0  0  0  0  0  0  0
    0.1920  -17.4340  -36.7380 N   0  0  0  0  0  0  0  0  0  0  0  0
    1.4840  -17.7440  -36.8270 C   0  0  0  0  0  0  0  0  0  0  0  0
    2.3890  -17.2950  -36.0700 O   0  0  0  0  0  0  0  0  0  0  0  0
    1.7260  -18.6160  -37.8450 N   0  0  0  0  0  0  0  0  0  0  0  0
   -0.4570  -16.5260  -35.7880 C   0  0  0  0  0  2  0  0  0  0  0  0
   -0.4300  -15.1630  -36.5460 C   0  0  0  0  0  0  0  0  0  0  0  0
   -1.5280  -15.0540  -37.1970 O   0  0  0  0  0  0  0  0  0  0  0  0
    0.6280  -14.3460  -36.4520 N   0  0  0  0  0  0  0  0  0  0  0  0
   -0.0220  -13.4140  -37.1940 H   0  0  0  0  0  0  0  0  0  0  0  0
    1.7160  -13.5060  -36.3540 C   0  0  0  0  0  2  0  0  0  0  0  0
    1.7620  -12.4710  -37.4850 C   0  0  0  0  0  2  0  0  0  0  0  0
    1.9890  -13.0660  -38.7030 O   0  0  0  0  0  0  0  0  0  0  0  0
    3.2100  -12.8180  -39.2600 C   0  0  0  0  0  1  0  0  0  0  0  0
  2  3  1  0  0  0  0
  2  1  1  0  0  0  0
  4 18  1  0  0  0  0
  4  3  2  0  0  0  0
  5  4  1  0  0  0  0
  6  5  2  0  0  0  0
  6  7  1  0  0  0  0
  7  2  2  0  0  0  0
  8 12  1  0  0  0  0
  8  5  1  0  0  0  0
  9  8  2  0  0  0  0
 10  9  1  0  0  0  0
 10 11  2  0  0  0  0
 11 12  1  0  0  0  0
 12 13  1  0  0  0  0
 13 18  1  0  0  0  0
 13 14  2  0  0  0  0
 14 15  1  0  0  0  0
 15 19  1  0  0  0  0
 16 15  1  0  0  0  0
 16 17  2  0  0  0  0
 18 16  1  0  0  0  0
 20 22  1  0  0  0  0
 20 19  1  0  0  0  0
 21 20  2  0  0  0  0
 22 24  1  0  0  0  0
 23 22  1  0  0  0  0
 25 24  1  0  0  0  0
 26 25  1  0  0  0  0
 27 26  1  0  0  0  0
M  END
>  <Pose>
1

>  <Score>
-5.321

$$$$
