MODEL 1
REMARK VINA RESULT:    -5.321      0.000      0.000
REMARK INTER + INTRA:          -7.495
REMARK INTER:                  -6.877
REMARK INTRA:                  -0.618
REMARK UNBOUND:                -0.618
REMARK  5 active torsions:
REMARK  status: ('A' for Active; 'I' for Inactive)
REMARK    1  A    between atoms: N_15  and  C_19 
REMARK    2  A    between atoms: C_19  and  C_20 
REMARK       I    between atoms: C_20  and  N_22 
REMARK    3  A    between atoms: N_22  and  C_23 
REMARK    4  A    between atoms: C_23  and  C_24 
REMARK    5  A    between atoms: C_24  and  O_25 
ROOT
ATOM      1 Cl   UNK d   1       6.811 -19.212 -37.464  0.00  0.00    -0.084 Cl
ATOM      2  C   UNK d   1       5.284 -19.591 -38.263  0.00  0.00     0.036 A 
ATOM      3  C   UNK d   1       4.118 -18.995 -37.776  0.00  0.00     0.055 A 
ATOM      4  C   UNK d   1       2.891 -19.240 -38.359  0.00  0.00     0.077 A 
ATOM      5  C   UNK d   1       2.880 -20.101 -39.438  0.00  0.00     0.038 A 
ATOM      6  C   UNK d   1       3.986 -20.701 -39.942  0.00  0.00     0.019 A 
ATOM      7  C   UNK d   1       5.229 -20.443 -39.343  0.00  0.00     0.025 A 
ATOM      8  C   UNK d   1       1.552 -20.351 -40.055  0.00  0.00     0.153 A 
ATOM      9  N   UNK d   1       1.198 -21.091 -41.061  0.00  0.00    -0.270 NA
ATOM     10  C   UNK d   1      -0.228 -21.003 -41.280  0.00  0.00     0.172 A 
ATOM     11  C   UNK d   1      -0.771 -20.053 -40.241  0.00  0.00     0.171 A 
ATOM     12  N   UNK d   1       0.433 -19.707 -39.503  0.00  0.00    -0.160 N 
ATOM     13  C   UNK d   1       0.528 -18.829 -38.383  0.00  0.00     0.736 A 
ATOM     14  N   UNK d   1      -0.402 -18.115 -37.715  0.00  0.00     0.025 NA
ATOM     15  N   UNK d   1       0.192 -17.434 -36.738  0.00  0.00    -0.194 N 
ATOM     16  C   UNK d   1       1.484 -17.744 -36.827  0.00  0.00     0.365 A 
ATOM     17  O   UNK d   1       2.389 -17.295 -36.070  0.00  0.00    -0.244 OA
ATOM     18  N   UNK d   1       1.726 -18.616 -37.845  0.00  0.00    -0.090 N 
ENDROOT
BRANCH  15  19
ATOM     19  C   UNK d   1      -0.457 -16.526 -35.788  0.00  0.00     0.259 C 
BRANCH  19  20
ATOM     20  C   UNK d   1      -0.430 -15.163 -36.546  0.00  0.00     0.237 C 
ATOM     21  O   UNK d   1      -1.528 -15.054 -37.197  0.00  0.00    -0.272 OA
ATOM     22  N   UNK d   1       0.628 -14.346 -36.452  0.00  0.00    -0.358 N 
ATOM     23  H   UNK d   1      -0.022 -13.414 -37.194  0.00  0.00     0.162 HD
BRANCH  22  24
ATOM     24  C   UNK d   1       1.716 -13.506 -36.354  0.00  0.00     0.148 C 
BRANCH  24  25
ATOM     25  C   UNK d   1       1.762 -12.471 -37.485  0.00  0.00     0.186 C 
BRANCH  25  26
ATOM     26  O   UNK d   1       1.989 -13.066 -38.703  0.00  0.00    -0.394 OA
ATOM     27  C   UNK d   1       3.210 -12.818 -39.260  0.00  0.00     0.201 C 
ENDBRANCH  25  26
ENDBRANCH  24  25
ENDBRANCH  22  24
ENDBRANCH  19  20
ENDBRANCH  15  19
TORSDOF 5
ENDMDL
