MODEL 1
REMARK VINA RESULT:    -6.224      0.000      0.000
REMARK INTER + INTRA:          -7.433
REMARK INTER:                  -6.952
REMARK INTRA:                  -0.481
REMARK UNBOUND:                -0.481
REMARK  2 active torsions:
REMARK  status: ('A' for Active; 'I' for Inactive)
REMARK    1  A    between atoms: N_15  and  C_19 
REMARK    2  A    between atoms: C_19  and  C_20 
REMARK       I    between atoms: C_20  and  N_22 
ROOT
ATOM      1 Cl   UNK d   1       6.523 -19.240 -37.468  0.00  0.00    -0.084 Cl
ATOM      2  C   UNK d   1       4.948 -19.529 -38.175  0.00  0.00     0.036 A 
ATOM      3  C   UNK d   1       3.806 -18.857 -37.772  0.00  0.00     0.055 A 
ATOM      4  C   UNK d   1       2.574 -19.093 -38.336  0.00  0.00     0.077 A 
ATOM      5  C   UNK d   1       2.523 -20.039 -39.331  0.00  0.00     0.038 A 
ATOM      6  C   UNK d   1       3.623 -20.736 -39.771  0.00  0.00     0.019 A 
ATOM      7  C   UNK d   1       4.860 -20.472 -39.177  0.00  0.00     0.025 A 
ATOM      8  C   UNK d   1       1.217 -20.319 -39.959  0.00  0.00     0.153 A 
ATOM      9  N   UNK d   1       0.879 -21.133 -40.892  0.00  0.00    -0.270 NA
ATOM     10  C   UNK d   1      -0.527 -21.065 -41.186  0.00  0.00     0.172 A 
ATOM     11  C   UNK d   1      -1.054 -20.029 -40.245  0.00  0.00     0.171 A 
ATOM     12  N   UNK d   1       0.096 -19.595 -39.497  0.00  0.00    -0.160 N 
ATOM     13  C   UNK d   1       0.210 -18.612 -38.447  0.00  0.00     0.736 A 
ATOM     14  N   UNK d   1      -0.698 -17.815 -37.853  0.00  0.00     0.025 NA
ATOM     15  N   UNK d   1      -0.098 -17.078 -36.933  0.00  0.00    -0.194 N 
ATOM     16  C   UNK d   1       1.196 -17.437 -36.971  0.00  0.00     0.365 A 
ATOM     17  O   UNK d   1       2.070 -16.926 -36.215  0.00  0.00    -0.244 OA
ATOM     18  N   UNK d   1       1.418 -18.389 -37.903  0.00  0.00    -0.090 N 
ENDROOT
BRANCH  15  19
ATOM     19  C   UNK d   1      -0.708 -16.075 -36.047  0.00  0.00     0.259 C 
BRANCH  19  20
ATOM     20  C   UNK d   1      -0.934 -14.837 -36.839  0.00  0.00     0.239 C 
ATOM     21  O   UNK d   1      -1.971 -14.803 -37.549  0.00  0.00    -0.271 OA
ATOM     22  N   UNK d   1      -0.027 -13.744 -36.803  0.00  0.00    -0.351 N 
ATOM     23  C   UNK d   1      -0.192 -12.513 -37.553  0.00  0.00     0.126 C 
ATOM     24  C   UNK d   1       1.192 -13.653 -36.034  0.00  0.00     0.126 C 
ATOM     25  C   UNK d   1       1.080 -11.730 -37.369  0.00  0.00     0.021 C 
ATOM     26  C   UNK d   1       2.062 -12.814 -36.976  0.00  0.00     0.021 C 
ENDBRANCH  19  20
ENDBRANCH  15  19
TORSDOF 2
ENDMDL
