MODEL 1
REMARK VINA RESULT:    -6.917      0.000      0.000
REMARK INTER + INTRA:          -8.549
REMARK INTER:                  -8.130
REMARK INTRA:                  -0.419
REMARK UNBOUND:                -0.419
REMARK  3 active torsions:
REMARK  status: ('A' for Active; 'I' for Inactive)
REMARK    1  A    between atoms: C_10  and  N_11 
REMARK    2  A    between atoms: N_14  and  C_17 
REMARK    3  A    between atoms: C_22  and  C_23 
REMARK       I    between atoms: C_23  and  N_25 
ROOT
ATOM      1  N   UNK d   1      -0.195 -15.258 -37.160  0.00  0.00    -0.384 N 
ATOM      2  C   UNK d   1       0.747 -15.181 -36.063  0.00  0.00     0.142 C 
ATOM      3  C   UNK d   1       1.583 -13.907 -36.271  0.00  0.00     0.144 C 
ATOM      4  N   UNK d   1       1.318 -13.293 -37.526  0.00  0.00    -0.362 N 
ATOM      5  C   UNK d   1      -0.060 -12.835 -37.696  0.00  0.00     0.144 C 
ATOM      6  C   UNK d   1      -0.929 -14.054 -37.501  0.00  0.00     0.142 C 
ENDROOT
BRANCH   1   7
ATOM      7  C   UNK d   1      -0.452 -16.451 -37.888  0.00  0.00     0.134 C 
ATOM      8  C   UNK d   1       0.390 -17.431 -38.117  0.00  0.00     0.124 A 
ATOM      9  N   UNK d   1       1.724 -17.423 -37.648  0.00  0.00    -0.340 N 
ATOM     10  N   UNK d   1      -0.047 -18.577 -38.882  0.00  0.00    -0.308 N 
ATOM     11  C   UNK d   1       2.618 -18.525 -37.923  0.00  0.00     0.049 A 
ATOM     12  H   UNK d   1       2.076 -16.622 -37.095  0.00  0.00     0.167 HD
ATOM     13  C   UNK d   1       2.224 -19.622 -38.647  0.00  0.00     0.060 A 
ATOM     14  C   UNK d   1       3.903 -18.477 -37.449  0.00  0.00     0.032 A 
ATOM     15  C   UNK d   1       3.105 -20.656 -38.892  0.00  0.00     0.043 A 
ATOM     16  C   UNK d   1       0.853 -19.641 -39.137  0.00  0.00     0.259 A 
ATOM     17  C   UNK d   1       4.381 -20.606 -38.420  0.00  0.00     0.035 A 
ATOM     18 Cl   UNK d   1       5.549 -21.896 -38.702  0.00  0.00    -0.084 Cl
ATOM     19  C   UNK d   1       4.789 -19.512 -37.693  0.00  0.00     0.026 A 
ATOM     20  O   UNK d   1       0.490 -20.665 -39.811  0.00  0.00    -0.267 OA
ATOM     21  H   UNK d   1      -1.020 -18.617 -39.244  0.00  0.00     0.170 HD
ENDBRANCH   1   7
BRANCH   4  22
ATOM     22  C   UNK d   1       2.191 -13.085 -38.623  0.00  0.00     0.141 A 
ATOM     23  N   UNK d   1       2.040 -13.893 -39.737  0.00  0.00    -0.242 NA
ATOM     24  C   UNK d   1       2.803 -13.808 -40.825  0.00  0.00     0.119 A 
ATOM     25  C   UNK d   1       3.795 -12.868 -40.847  0.00  0.00     0.020 A 
ATOM     26  C   UNK d   1       3.972 -12.051 -39.766  0.00  0.00     0.022 A 
ATOM     27  C   UNK d   1       3.168 -12.135 -38.612  0.00  0.00     0.077 A 
BRANCH  27  28
ATOM     28  C   UNK d   1       3.362 -11.243 -37.510  0.00  0.00     0.253 C 
ATOM     29  O   UNK d   1       4.191 -11.379 -36.612  0.00  0.00    -0.268 OA
ATOM     30  N   UNK d   1       2.536 -10.088 -37.419  0.00  0.00    -0.366 N 
ATOM     31  H   UNK d   1       2.626  -9.312 -38.113  0.00  0.00     0.159 HD
ATOM     32  H   UNK d   1       1.813  -9.952 -36.679  0.00  0.00     0.159 HD
ENDBRANCH  27  28
ENDBRANCH   4  22
TORSDOF 3
ENDMDL
