MODEL 1
REMARK VINA RESULT:    -6.778      0.000      0.000
REMARK INTER + INTRA:          -8.162
REMARK INTER:                  -7.570
REMARK INTRA:                  -0.592
REMARK UNBOUND:                -0.592
REMARK  2 active torsions:
REMARK  status: ('A' for Active; 'I' for Inactive)
REMARK    1  A    between atoms: C_5  and  N_8 
REMARK    2  A    between atoms: C_12  and  C_20 
ROOT
ATOM      1  N   UNK d   1       1.263 -16.770 -37.830  0.00  0.00    -0.252 N 
ATOM      2  C   UNK d   1       1.917 -17.738 -37.024  0.00  0.00     0.239 C 
ATOM      3  O   UNK d   1       2.560 -17.469 -35.981  0.00  0.00    -0.272 OA
ATOM      4  C   UNK d   1       1.708 -19.086 -37.618  0.00  0.00     0.138 C 
ATOM      5  C   UNK d   1       2.838 -19.491 -38.514  0.00  0.00     0.142 C 
ATOM      6  O   UNK d   1       2.146 -20.287 -39.453  0.00  0.00    -0.360 OA
ATOM      7  C   UNK d   1       1.261 -19.279 -39.912  0.00  0.00     0.160 C 
ATOM      8  C   UNK d   1       0.589 -18.888 -38.641  0.00  0.00     0.128 C 
ATOM      9  C   UNK d   1       0.292 -17.431 -38.641  0.00  0.00     0.239 C 
ATOM     10  O   UNK d   1      -0.643 -16.903 -39.248  0.00  0.00    -0.272 OA
ATOM     11  C   UNK d   1       2.253 -18.229 -40.263  0.00  0.00     0.005 C 
ATOM     12  C   UNK d   1       3.205 -18.331 -39.341  0.00  0.00     0.015 C 
ENDROOT
BRANCH   1  13
ATOM     13  C   UNK d   1       1.583 -15.374 -37.780  0.00  0.00     0.045 A 
ATOM     14  C   UNK d   1       1.400 -14.631 -36.635  0.00  0.00     0.031 A 
ATOM     15  C   UNK d   1       1.702 -13.288 -36.575  0.00  0.00     0.021 A 
ATOM     16  C   UNK d   1       2.200 -12.682 -37.703  0.00  0.00     0.011 A 
ATOM     17 Br   UNK d   1       2.626 -10.834 -37.660  0.00  0.00    -0.051 Br
ATOM     18  C   UNK d   1       2.389 -13.401 -38.856  0.00  0.00     0.021 A 
ATOM     19  C   UNK d   1       2.086 -14.763 -38.921  0.00  0.00     0.031 A 
ENDBRANCH   1  13
BRANCH   5  20
ATOM     20  C   UNK d   1       3.942 -20.205 -37.861  0.00  0.00     0.298 C 
ATOM     21  O   UNK d   1       5.147 -19.560 -37.939  0.00  0.00    -0.356 OA
ATOM     22  C   UNK d   1       5.974 -20.270 -38.773  0.00  0.00     0.197 C 
ATOM     23  C   UNK d   1       5.194 -21.458 -39.231  0.00  0.00     0.197 C 
ATOM     24  O   UNK d   1       4.103 -21.481 -38.369  0.00  0.00    -0.356 OA
ENDBRANCH   5  20
TORSDOF 2
ENDMDL
