/Users/jonathanwahrer/Desktop/Msc/3_Semester/Drug_Design_Praktikum/waehrer_HTS_screening/HTS_experiment/out/docking_results/vina_output/6y4q/1808_docked.pdbqt
 OpenBabel03142213583D

 24 28  0  0  1  0  0  0  0  0999 V2000
    1.2630  -16.7700  -37.8300 N   0  0  0  0  0  0  0  0  0  0  0  0
    1.9170  -17.7380  -37.0240 C   0  0  0  0  0  0  0  0  0  0  0  0
    2.5600  -17.4690  -35.9810 O   0  0  0  0  0  0  0  0  0  0  0  0
    1.7080  -19.0860  -37.6180 C   0  0  2  0  0  3  0  0  0  0  0  0
    2.8380  -19.4910  -38.5140 C   0  0  1  0  0  0  0  0  0  0  0  0
    2.1460  -20.2870  -39.4530 O   0  0  0  0  0  0  0  0  0  0  0  0
    1.2610  -19.2790  -39.9120 C   0  0  1  0  0  3  0  0  0  0  0  0
    0.5890  -18.8880  -38.6410 C   0  0  2  0  0  3  0  0  0  0  0  0
    0.2920  -17.4310  -38.6410 C   0  0  0  0  0  0  0  0  0  0  0  0
   -0.6430  -16.9030  -39.2480 O   0  0  0  0  0  0  0  0  0  0  0  0
    2.2530  -18.2290  -40.2630 C   0  0  0  0  0  2  0  0  0  0  0  0
    3.2050  -18.3310  -39.3410 C   0  0  0  0  0  2  0  0  0  0  0  0
    1.5830  -15.3740  -37.7800 C   0  0  0  0  0  0  0  0  0  0  0  0
    1.4000  -14.6310  -36.6350 C   0  0  0  0  0  3  0  0  0  0  0  0
    1.7020  -13.2880  -36.5750 C   0  0  0  0  0  3  0  0  0  0  0  0
    2.2000  -12.6820  -37.7030 C   0  0  0  0  0  0  0  0  0  0  0  0
    2.6260  -10.8340  -37.6600 Br  0  0  0  0  0  0  0  0  0  0  0  0
    2.3890  -13.4010  -38.8560 C   0  0  0  0  0  3  0  0  0  0  0  0
    2.0860  -14.7630  -38.9210 C   0  0  0  0  0  3  0  0  0  0  0  0
    3.9420  -20.2050  -37.8610 C   0  0  0  0  0  3  0  0  0  0  0  0
    5.1470  -19.5600  -37.9390 O   0  0  0  0  0  0  0  0  0  0  0  0
    5.9740  -20.2700  -38.7730 C   0  0  0  0  0  2  0  0  0  0  0  0
    5.1940  -21.4580  -39.2310 C   0  0  0  0  0  2  0  0  0  0  0  0
    4.1030  -21.4810  -38.3690 O   0  0  0  0  0  0  0  0  0  0  0  0
  1 13  1  0  0  0  0
  1  2  1  0  0  0  0
  2  3  2  0  0  0  0
  4  2  1  6  0  0  0
  5 20  1  1  0  0  0
  5  4  1  0  0  0  0
  6  5  1  0  0  0  0
  7 11  1  1  0  0  0
  7  6  1  0  0  0  0
  7  8  1  0  0  0  0
  8  9  1  6  0  0  0
  8  4  1  0  0  0  0
  9  1  1  0  0  0  0
 10  9  2  0  0  0  0
 11 12  1  0  0  0  0
 12  5  1  0  0  0  0
 13 14  1  0  0  0  0
 14 15  2  0  0  0  0
 16 17  1  0  0  0  0
 16 15  1  0  0  0  0
 18 16  2  0  0  0  0
 19 18  1  0  0  0  0
 19 13  2  0  0  0  0
 21 20  1  0  0  0  0
 22 21  1  0  0  0  0
 23 22  1  0  0  0  0
 23 24  1  0  0  0  0
 24 20  1  0  0  0  0
M  END
>  <Pose>
1

>  <Score>
-6.778

$$$$
