MODEL 1
REMARK VINA RESULT:    -6.298      0.000      0.000
REMARK INTER + INTRA:          -9.056
REMARK INTER:                  -8.139
REMARK INTRA:                  -0.917
REMARK UNBOUND:                -0.917
REMARK  5 active torsions:
REMARK  status: ('A' for Active; 'I' for Inactive)
REMARK    1  A    between atoms: S_1  and  N_4 
REMARK    2  A    between atoms: S_1  and  C_26 
REMARK       I    between atoms: N_7  and  C_10 
REMARK    3  A    between atoms: C_10  and  C_12 
REMARK    4  A    between atoms: N_14  and  C_18 
REMARK    5  A    between atoms: C_18  and  C_19 
ROOT
ATOM      1  N   UNK d   1       3.586 -19.649 -39.560  0.00  0.00    -0.203 NA
ATOM      2  C   UNK d   1       4.272 -19.574 -38.294  0.00  0.00     0.127 C 
ATOM      3  C   UNK d   1       3.316 -18.982 -37.286  0.00  0.00     0.141 C 
ATOM      4  N   UNK d   1       1.988 -18.959 -37.842  0.00  0.00    -0.349 N 
ATOM      5  C   UNK d   1       1.462 -20.079 -38.613  0.00  0.00     0.141 C 
ATOM      6  C   UNK d   1       2.583 -20.689 -39.457  0.00  0.00     0.127 C 
ATOM      7  C   UNK d   1       1.170 -17.830 -37.653  0.00  0.00     0.226 C 
ATOM      8  O   UNK d   1      -0.022 -17.843 -38.119  0.00  0.00    -0.273 OA
ENDROOT
BRANCH   7   9
ATOM      9  C   UNK d   1       1.683 -16.637 -36.925  0.00  0.00     0.105 C 
ATOM     10  C   UNK d   1       1.986 -15.485 -37.840  0.00  0.00     0.140 C 
ATOM     11  N   UNK d   1       0.881 -14.547 -37.665  0.00  0.00    -0.347 N 
ATOM     12  C   UNK d   1      -0.075 -15.095 -36.777  0.00  0.00     0.221 C 
ATOM     13  O   UNK d   1      -1.282 -14.756 -36.733  0.00  0.00    -0.273 OA
ATOM     14  C   UNK d   1       0.655 -16.096 -35.970  0.00  0.00     0.118 C 
BRANCH  11  15
ATOM     15  C   UNK d   1       0.789 -13.258 -38.312  0.00  0.00     0.166 C 
BRANCH  15  16
ATOM     16  C   UNK d   1       2.086 -12.539 -38.297  0.00  0.00    -0.018 A 
ATOM     17  C   UNK d   1       2.791 -12.392 -39.482  0.00  0.00     0.042 A 
ATOM     18  C   UNK d   1       4.008 -11.735 -39.545  0.00  0.00     0.024 A 
ATOM     19 Cl   UNK d   1       2.106 -13.065 -40.936  0.00  0.00    -0.084 Cl
ATOM     20  C   UNK d   1       4.509 -11.221 -38.367  0.00  0.00     0.002 A 
ATOM     21  C   UNK d   1       3.831 -11.349 -37.167  0.00  0.00     0.001 A 
ATOM     22  C   UNK d   1       2.607 -12.016 -37.133  0.00  0.00     0.010 A 
ENDBRANCH  15  16
ENDBRANCH  11  15
ENDBRANCH   7   9
BRANCH   1  23
ATOM     23  S   UNK d   1       4.683 -19.933 -40.852  0.00  0.00     0.248 S 
ATOM     24  O   UNK d   1       4.317 -21.165 -41.629  0.00  0.00    -0.206 OA
ATOM     25  O   UNK d   1       6.029 -20.226 -40.223  0.00  0.00    -0.206 OA
BRANCH  23  26
ATOM     26  C   UNK d   1       4.838 -18.541 -41.880  0.00  0.00     0.132 A 
ATOM     27  C   UNK d   1       5.827 -18.182 -42.768  0.00  0.00     0.083 A 
ATOM     28  N   UNK d   1       5.470 -16.982 -43.321  0.00  0.00    -0.132 NA
ATOM     29  C   UNK d   1       7.039 -18.972 -43.058  0.00  0.00     0.074 C 
ATOM     30  O   UNK d   1       4.349 -16.637 -42.809  0.00  0.00    -0.216 OA
ATOM     31  C   UNK d   1       3.911 -17.518 -41.942  0.00  0.00     0.100 A 
ATOM     32  C   UNK d   1       2.639 -17.372 -41.201  0.00  0.00     0.081 C 
ENDBRANCH  23  26
ENDBRANCH   1  23
TORSDOF 5
ENDMDL
