/Users/jonathanwahrer/Desktop/Msc/3_Semester/Drug_Design_Praktikum/waehrer_HTS_screening/HTS_experiment/out/docking_results/vina_output/6y4q/1816_docked.pdbqt
 OpenBabel03232218433D

 36 39  0  0  0  0  0  0  0  0999 V2000
    1.5280  -17.3460  -37.5770 C   0  0  0  0  0  0  0  0  0  0  0  0
    2.3720  -17.1400  -36.6390 O   0  0  0  0  0  0  0  0  0  0  0  0
    1.4570  -18.6210  -38.1090 N   0  0  0  0  0  0  0  0  0  0  0  0
    2.2770  -19.7050  -37.6640 C   0  0  0  0  0  2  0  0  0  0  0  0
    3.0940  -20.1980  -38.8600 C   0  0  0  0  0  2  0  0  0  0  0  0
    2.2140  -20.5370  -39.9270 N   0  0  0  0  0  0  0  0  0  0  0  0
    0.7710  -20.3220  -39.6880 C   0  0  0  0  0  2  0  0  0  0  0  0
    0.5240  -18.9230  -39.1700 C   0  0  0  0  0  2  0  0  0  0  0  0
    2.6040  -21.0480  -41.1830 C   0  0  0  0  0  0  0  0  0  0  0  0
    1.5790  -21.2890  -41.9950 O   0  0  0  0  0  0  0  0  0  0  0  0
    0.6960  -16.1900  -38.0120 C   0  0  0  0  0  2  0  0  0  0  0  0
    1.5370  -15.0550  -38.4530 C   0  0  0  0  0  0  0  0  0  0  0  0
    2.0450  -15.0250  -39.7510 C   0  0  0  0  0  0  0  0  0  0  0  0
    2.7940  -14.0460  -40.1950 O   0  0  0  0  0  0  0  0  0  0  0  0
    1.7420  -16.0130  -40.5010 O   0  0  0  0  0  0  0  0  0  0  0  0
    3.1280  -13.0150  -39.4570 C   0  0  0  0  0  0  0  0  0  0  0  0
    2.6780  -12.9440  -38.1590 C   0  0  0  0  0  0  0  0  0  0  0  0
    3.9310  -11.9830  -39.9610 C   0  0  0  0  0  3  0  0  0  0  0  0
    3.0350  -11.8570  -37.3980 C   0  0  0  0  0  3  0  0  0  0  0  0
    1.8770  -13.9790  -37.6650 C   0  0  0  0  0  0  0  0  0  0  0  0
    3.8340  -10.8350  -37.9020 C   0  0  0  0  0  0  0  0  0  0  0  0
    4.2920   -9.4520  -36.9350 Cl  0  0  0  0  0  0  0  0  0  0  0  0
    4.2890  -10.8950  -39.1980 C   0  0  0  0  0  0  0  0  0  0  0  0
    1.4020  -13.8930  -36.2880 C   0  0  0  0  0  1  0  0  0  0  0  0
    5.0970   -9.8640  -39.7120 O   0  0  0  0  0  0  0  0  0  0  0  0
    6.3300  -10.1250  -40.3350 C   0  0  0  0  0  1  0  0  0  0  0  0
    3.8890  -21.3520  -41.7360 C   0  0  0  0  0  0  0  0  0  0  0  0
    4.1590  -22.6690  -42.1870 C   0  0  0  0  0  3  0  0  0  0  0  0
    5.3770  -23.0010  -42.7170 C   0  0  0  0  0  0  0  0  0  0  0  0
    5.5900  -24.1780  -43.1100 O   0  0  0  0  0  0  0  0  0  0  0  0
    6.3770  -22.1180  -42.8400 N   0  0  0  0  0  0  0  0  0  0  0  0
    6.1240  -20.8790  -42.4160 C   0  0  0  0  0  0  0  0  0  0  0  0
    7.6560  -22.4880  -43.3990 C   0  0  0  0  0  1  0  0  0  0  0  0
    7.0430  -20.0010  -42.5110 O   0  0  0  0  0  0  0  0  0  0  0  0
    4.9080  -20.5120  -41.8780 N   0  0  0  0  0  0  0  0  0  0  0  0
    4.8120  -19.5210  -41.5810 H   0  0  0  0  0  0  0  0  0  0  0  0
  1  2  2  0  0  0  0
  3  4  1  0  0  0  0
  3  1  1  0  0  0  0
  5  4  1  0  0  0  0
  6  7  1  0  0  0  0
  6  5  1  0  0  0  0
  7  8  1  0  0  0  0
  8  3  1  0  0  0  0
  9  6  1  0  0  0  0
 10  9  2  0  0  0  0
 11  1  1  0  0  0  0
 12 11  1  0  0  0  0
 12 20  2  0  0  0  0
 13 12  1  0  0  0  0
 14 13  1  0  0  0  0
 14 16  1  0  0  0  0
 15 13  2  0  0  0  0
 16 17  1  0  0  0  0
 17 20  1  0  0  0  0
 17 19  2  0  0  0  0
 18 16  2  0  0  0  0
 18 23  1  0  0  0  0
 20 24  1  0  0  0  0
 21 19  1  0  0  0  0
 21 22  1  0  0  0  0
 23 21  2  0  0  0  0
 25 23  1  0  0  0  0
 26 25  1  0  0  0  0
 27  9  1  0  0  0  0
 28 27  2  0  0  0  0
 29 28  1  0  0  0  0
 30 29  2  0  0  0  0
 31 29  1  0  0  0  0
 31 32  1  0  0  0  0
 32 35  1  0  0  0  0
 33 31  1  0  0  0  0
 34 32  2  0  0  0  0
 35 27  1  0  0  0  0
 35 36  1  0  0  0  0
M  END
>  <Pose>
1

>  <Score>
-7.450

$$$$
