MODEL 1
REMARK VINA RESULT:    -7.450      0.000      0.000
REMARK INTER + INTRA:          -9.913
REMARK INTER:                  -9.192
REMARK INTRA:                  -0.721
REMARK UNBOUND:                -0.721
REMARK  4 active torsions:
REMARK  status: ('A' for Active; 'I' for Inactive)
REMARK    1  A    between atoms: C_7  and  O_8 
REMARK    2  A    between atoms: C_13  and  C_16 
REMARK    3  A    between atoms: C_16  and  C_17 
REMARK       I    between atoms: C_17  and  N_19 
REMARK       I    between atoms: N_22  and  C_25 
REMARK    4  A    between atoms: C_25  and  C_27 
ROOT
ATOM      1  C   UNK d   1       1.528 -17.346 -37.577  0.00  0.00     0.224 C 
ATOM      2  O   UNK d   1       2.372 -17.140 -36.639  0.00  0.00    -0.273 OA
ATOM      3  N   UNK d   1       1.457 -18.621 -38.109  0.00  0.00    -0.349 N 
ATOM      4  C   UNK d   1       2.277 -19.705 -37.664  0.00  0.00     0.145 C 
ATOM      5  C   UNK d   1       3.094 -20.198 -38.860  0.00  0.00     0.145 C 
ATOM      6  N   UNK d   1       2.214 -20.537 -39.927  0.00  0.00    -0.355 N 
ATOM      7  C   UNK d   1       0.771 -20.322 -39.688  0.00  0.00     0.145 C 
ATOM      8  C   UNK d   1       0.524 -18.923 -39.170  0.00  0.00     0.145 C 
ATOM      9  C   UNK d   1       2.604 -21.048 -41.183  0.00  0.00     0.204 C 
ATOM     10  O   UNK d   1       1.579 -21.289 -41.995  0.00  0.00    -0.170 OA
ENDROOT
BRANCH   1  11
ATOM     11  C   UNK d   1       0.696 -16.190 -38.012  0.00  0.00     0.148 C 
BRANCH  11  12
ATOM     12  C   UNK d   1       1.537 -15.055 -38.453  0.00  0.00     0.033 A 
ATOM     13  C   UNK d   1       2.045 -15.025 -39.751  0.00  0.00     0.295 A 
ATOM     14  O   UNK d   1       2.794 -14.046 -40.195  0.00  0.00    -0.274 OA
ATOM     15  O   UNK d   1       1.742 -16.013 -40.501  0.00  0.00    -0.259 OA
ATOM     16  C   UNK d   1       3.128 -13.015 -39.457  0.00  0.00     0.093 A 
ATOM     17  C   UNK d   1       2.678 -12.944 -38.159  0.00  0.00     0.006 A 
ATOM     18  C   UNK d   1       3.931 -11.983 -39.961  0.00  0.00     0.076 A 
ATOM     19  C   UNK d   1       3.035 -11.857 -37.398  0.00  0.00     0.041 A 
ATOM     20  C   UNK d   1       1.877 -13.979 -37.665  0.00  0.00    -0.036 A 
ATOM     21  C   UNK d   1       3.834 -10.835 -37.902  0.00  0.00     0.068 A 
ATOM     22 Cl   UNK d   1       4.292  -9.452 -36.935  0.00  0.00    -0.081 Cl
ATOM     23  C   UNK d   1       4.289 -10.895 -39.198  0.00  0.00     0.092 A 
ATOM     24  C   UNK d   1       1.402 -13.893 -36.288  0.00  0.00     0.050 C 
BRANCH  23  25
ATOM     25  O   UNK d   1       5.097  -9.864 -39.712  0.00  0.00    -0.354 OA
ATOM     26  C   UNK d   1       6.330 -10.125 -40.335  0.00  0.00     0.210 C 
ENDBRANCH  23  25
ENDBRANCH  11  12
ENDBRANCH   1  11
BRANCH   9  27
ATOM     27  C   UNK d   1       3.889 -21.352 -41.736  0.00  0.00     0.095 A 
ATOM     28  C   UNK d   1       4.159 -22.669 -42.187  0.00  0.00     0.108 A 
ATOM     29  C   UNK d   1       5.377 -23.001 -42.717  0.00  0.00     0.253 A 
ATOM     30  O   UNK d   1       5.590 -24.178 -43.110  0.00  0.00    -0.268 OA
ATOM     31  N   UNK d   1       6.377 -22.118 -42.840  0.00  0.00    -0.271 N 
ATOM     32  C   UNK d   1       6.124 -20.879 -42.416  0.00  0.00     0.329 A 
ATOM     33  C   UNK d   1       7.656 -22.488 -43.399  0.00  0.00     0.164 C 
ATOM     34  O   UNK d   1       7.043 -20.001 -42.511  0.00  0.00    -0.246 OA
ATOM     35  N   UNK d   1       4.908 -20.512 -41.878  0.00  0.00    -0.304 N 
ATOM     36  H   UNK d   1       4.812 -19.521 -41.581  0.00  0.00     0.171 HD
ENDBRANCH   9  27
TORSDOF 4
ENDMDL
