MODEL 1
REMARK VINA RESULT:    -6.197      0.000      0.000
REMARK INTER + INTRA:          -6.885
REMARK INTER:                  -6.560
REMARK INTRA:                  -0.325
REMARK UNBOUND:                -0.325
REMARK  1 active torsions:
REMARK  status: ('A' for Active; 'I' for Inactive)
REMARK    1  A    between atoms: C_8  and  N_10 
ROOT
ATOM      1 Cl   UNK d   1      -0.714 -12.059 -35.594  0.00  0.00    -0.076 Cl
ATOM      2  C   UNK d   1      -0.494 -13.634 -36.349  0.00  0.00     0.127 A 
ATOM      3  C   UNK d   1      -1.603 -14.284 -36.842  0.00  0.00     0.050 A 
ATOM      4  N   UNK d   1      -1.425 -15.484 -37.416  0.00  0.00    -0.190 N 
ATOM      5  C   UNK d   1      -0.204 -16.070 -37.526  0.00  0.00     0.747 A 
ATOM      6  N   UNK d   1       0.886 -15.445 -37.050  0.00  0.00    -0.005 N 
ATOM      7  N   UNK d   1       1.950 -16.210 -37.273  0.00  0.00     0.046 NA
ATOM      8  C   UNK d   1       1.581 -17.347 -37.898  0.00  0.00     0.772 A 
ATOM      9  N   UNK d   1       0.237 -17.232 -38.042  0.00  0.00     0.133 NA
ATOM     10  C   UNK d   1       0.741 -14.231 -36.463  0.00  0.00     0.308 A 
ATOM     11  O   UNK d   1       1.771 -13.637 -36.011  0.00  0.00    -0.264 OA
ATOM     12  C   UNK d   1      -2.960 -13.650 -36.727  0.00  0.00     0.071 C 
ATOM     13  H   UNK d   1      -2.265 -15.984 -37.792  0.00  0.00     0.184 HD
ENDROOT
BRANCH   8  14
ATOM     14  N   UNK d   1       2.413 -18.427 -38.312  0.00  0.00    -0.076 N 
ATOM     15  C   UNK d   1       2.517 -18.939 -39.633  0.00  0.00     0.251 C 
ATOM     16  O   UNK d   1       2.200 -18.377 -40.714  0.00  0.00    -0.272 OA
ATOM     17  C   UNK d   1       3.092 -20.326 -39.579  0.00  0.00     0.096 C 
ATOM     18  C   UNK d   1       3.606 -20.492 -38.194  0.00  0.00     0.096 C 
ATOM     19  C   UNK d   1       4.218 -20.426 -40.586  0.00  0.00     0.042 C 
ATOM     20  C   UNK d   1       5.111 -20.669 -38.099  0.00  0.00     0.042 C 
ATOM     21  C   UNK d   1       3.296 -19.213 -37.527  0.00  0.00     0.251 C 
ATOM     22  C   UNK d   1       5.719 -19.571 -38.917  0.00  0.00    -0.030 C 
ATOM     23  C   UNK d   1       5.261 -19.467 -40.151  0.00  0.00    -0.030 C 
ATOM     24  O   UNK d   1       3.752 -18.846 -36.395  0.00  0.00    -0.272 OA
ENDBRANCH   8  14
TORSDOF 1
ENDMDL
