MODEL 1
REMARK VINA RESULT:    -7.210      0.000      0.000
REMARK INTER + INTRA:          -9.917
REMARK INTER:                  -9.318
REMARK INTRA:                  -0.599
REMARK UNBOUND:                -0.599
REMARK  5 active torsions:
REMARK  status: ('A' for Active; 'I' for Inactive)
REMARK    1  A    between atoms: C_4  and  N_8 
REMARK       I    between atoms: N_8  and  C_9 
REMARK    2  A    between atoms: C_9  and  C_11 
REMARK    3  A    between atoms: C_11  and  N_12 
REMARK    4  A    between atoms: C_15  and  C_17 
REMARK    5  A    between atoms: C_20  and  O_23 
ROOT
ATOM      1  N   UNK d   1       0.610 -14.757 -36.444  0.00  0.00    -0.336 N 
ATOM      2  C   UNK d   1      -0.537 -15.378 -36.852  0.00  0.00     0.086 A 
ATOM      3  N   UNK d   1      -0.243 -16.628 -37.247  0.00  0.00    -0.335 N 
ATOM      4  C   UNK d   1       1.069 -16.863 -37.113  0.00  0.00     0.061 A 
ATOM      5  C   UNK d   1       1.579 -15.660 -36.602  0.00  0.00     0.123 A 
ATOM      6  C   UNK d   1      -1.474 -17.280 -37.690  0.00  0.00     0.131 C 
ATOM      7  C   UNK d   1      -2.468 -16.153 -37.897  0.00  0.00     0.028 C 
ATOM      8  C   UNK d   1      -1.989 -15.093 -36.971  0.00  0.00     0.078 C 
ENDROOT
BRANCH   1   9
ATOM      9  C   UNK d   1       0.686 -13.370 -35.962  0.00  0.00     0.232 C 
BRANCH   9  10
ATOM     10  C   UNK d   1       1.392 -12.539 -37.015  0.00  0.00     0.240 C 
ATOM     11  N   UNK d   1       2.738 -12.708 -37.293  0.00  0.00    -0.325 N 
ATOM     12  H   UNK d   1       3.247 -13.457 -36.732  0.00  0.00     0.169 HD
ATOM     13  O   UNK d   1       0.677 -11.711 -37.590  0.00  0.00    -0.271 OA
BRANCH  11  14
ATOM     14  C   UNK d   1       3.490 -11.983 -38.239  0.00  0.00     0.042 A 
ATOM     15  C   UNK d   1       3.535 -12.466 -39.565  0.00  0.00    -0.013 A 
ATOM     16  C   UNK d   1       4.254 -11.811 -40.540  0.00  0.00     0.042 A 
ATOM     17  C   UNK d   1       2.802 -13.694 -39.918  0.00  0.00     0.052 C 
ATOM     18 Cl   UNK d   1       4.314 -12.394 -42.190  0.00  0.00    -0.084 Cl
ATOM     19  C   UNK d   1       4.959 -10.663 -40.267  0.00  0.00     0.024 A 
ATOM     20  C   UNK d   1       4.936 -10.171 -38.988  0.00  0.00     0.004 A 
ATOM     21  C   UNK d   1       4.198 -10.844 -37.993  0.00  0.00     0.030 A 
ENDBRANCH  11  14
ENDBRANCH   9  10
ENDBRANCH   1   9
BRANCH   4  22
ATOM     22  C   UNK d   1       1.890 -18.028 -37.397  0.00  0.00    -0.008 A 
ATOM     23  C   UNK d   1       3.089 -18.256 -36.780  0.00  0.00     0.016 A 
ATOM     24  C   UNK d   1       3.871 -19.370 -37.026  0.00  0.00     0.037 A 
ATOM     25  C   UNK d   1       3.466 -20.333 -37.937  0.00  0.00     0.068 A 
ATOM     26  C   UNK d   1       2.261 -20.106 -38.557  0.00  0.00     0.037 A 
ATOM     27  C   UNK d   1       1.480 -18.994 -38.312  0.00  0.00     0.016 A 
BRANCH  25  28
ATOM     28  O   UNK d   1       4.223 -21.460 -38.209  0.00  0.00    -0.356 OA
ATOM     29  C   UNK d   1       5.535 -21.395 -38.738  0.00  0.00     0.210 C 
ENDBRANCH  25  28
ENDBRANCH   4  22
TORSDOF 5
ENDMDL
