/Users/jonathanwahrer/Desktop/Msc/3_Semester/Drug_Design_Praktikum/waehrer_HTS_screening/HTS_experiment/out/docking_results/vina_output/6y4q/1835_docked.pdbqt
 OpenBabel03232218443D

 36 39  0  0  1  0  0  0  0  0999 V2000
    1.8160  -18.6450  -40.7750 C   0  0  0  0  0  0  0  0  0  0  0  0
    2.8830  -19.2810  -41.2820 N   0  0  0  0  0  0  0  0  0  0  0  0
    2.7060  -19.2990  -42.6140 C   0  0  0  0  0  0  0  0  0  0  0  0
    3.4430  -19.7970  -43.6370 N   0  0  0  0  0  0  0  0  0  0  0  0
    3.0450  -19.6870  -44.9190 C   0  0  0  0  0  3  0  0  0  0  0  0
    1.8830  -19.0670  -45.2160 N   0  0  0  0  0  0  0  0  0  0  0  0
    1.0950  -18.5460  -44.2570 C   0  0  0  0  0  0  0  0  0  0  0  0
    1.5250  -18.6710  -42.9500 C   0  0  0  0  0  0  0  0  0  0  0  0
    0.9850  -18.2700  -41.7750 N   0  0  0  0  0  0  0  0  0  0  0  0
    1.5820  -18.3950  -39.3960 N   0  0  0  0  0  0  0  0  0  0  0  0
    1.0770  -19.0890  -38.7970 H   0  0  0  0  0  0  0  0  0  0  0  0
    2.0050  -17.2210  -38.7690 N   0  0  0  0  0  0  0  0  0  0  0  0
    1.2240  -16.2040  -38.7780 C   0  0  0  0  0  3  0  0  0  0  0  0
    1.5870  -14.9330  -38.1450 C   0  0  0  0  0  0  0  0  0  0  0  0
    1.3000  -14.6840  -36.8210 C   0  0  0  0  0  0  0  0  0  0  0  0
    0.4840  -15.9310  -35.9060 Cl  0  0  0  0  0  0  0  0  0  0  0  0
    1.6560  -13.4650  -36.2390 C   0  0  0  0  0  3  0  0  0  0  0  0
    2.2990  -12.4800  -36.9560 C   0  0  0  0  0  3  0  0  0  0  0  0
    2.5840  -12.7370  -38.2810 C   0  0  0  0  0  3  0  0  0  0  0  0
    2.2300  -13.9470  -38.8620 C   0  0  0  0  0  0  0  0  0  0  0  0
    2.6010  -14.2600  -40.5540 Cl  0  0  0  0  0  0  0  0  0  0  0  0
    4.0200  -19.8550  -40.6220 C   0  0  1  0  0  3  0  0  0  0  0  0
    4.5130  -19.0470  -39.6010 O   0  0  0  0  0  0  0  0  0  0  0  0
    5.3490  -19.9360  -38.9270 C   0  0  2  0  0  3  0  0  0  0  0  0
    4.3850  -21.0770  -38.6390 C   0  0  1  0  0  3  0  0  0  0  0  0
    3.6640  -21.1790  -39.9680 C   0  0  2  0  0  3  0  0  0  0  0  0
    5.9190  -19.3520  -37.6620 C   0  0  0  0  0  2  0  0  0  0  0  0
    7.2010  -18.8840  -37.8140 O   0  0  0  0  0  0  0  0  0  0  0  0
    7.8080  -19.2430  -37.1300 H   0  0  0  0  0  0  0  0  0  0  0  0
    5.0530  -22.2500  -38.3200 O   0  0  0  0  0  0  0  0  0  0  0  0
    5.6680  -22.0460  -37.5650 H   0  0  0  0  0  0  0  0  0  0  0  0
    4.2280  -22.2550  -40.6560 O   0  0  0  0  0  0  0  0  0  0  0  0
    4.8420  -21.9620  -41.3600 H   0  0  0  0  0  0  0  0  0  0  0  0
   -0.1160  -17.9020  -44.5990 N   0  0  0  0  0  0  0  0  0  0  0  0
   -0.2600  -16.8900  -44.4440 H   0  0  0  0  0  0  0  0  0  0  0  0
   -0.8820  -18.4610  -45.0160 H   0  0  0  0  0  0  0  0  0  0  0  0
  1 10  1  0  0  0  0
  2  1  1  0  0  0  0
  3  2  1  0  0  0  0
  4  3  2  0  0  0  0
  5  4  1  0  0  0  0
  6  5  2  0  0  0  0
  6  7  1  0  0  0  0
  7  8  2  0  0  0  0
  8  3  1  0  0  0  0
  8  9  1  0  0  0  0
  9  1  2  0  0  0  0
 10 11  1  0  0  0  0
 10 12  1  0  0  0  0
 13 12  2  0  0  0  0
 13 14  1  0  0  0  0
 14 15  1  0  0  0  0
 15 17  2  0  0  0  0
 15 16  1  0  0  0  0
 18 17  1  0  0  0  0
 19 18  2  0  0  0  0
 20 19  1  0  0  0  0
 20 14  2  0  0  0  0
 21 20  1  0  0  0  0
 22  2  1  1  0  0  0
 22 26  1  0  0  0  0
 22 23  1  0  0  0  0
 23 24  1  0  0  0  0
 24 25  1  0  0  0  0
 24 27  1  1  0  0  0
 25 30  1  6  0  0  0
 26 32  1  6  0  0  0
 26 25  1  0  0  0  0
 28 27  1  0  0  0  0
 28 29  1  0  0  0  0
 30 31  1  0  0  0  0
 33 32  1  0  0  0  0
 34 35  1  0  0  0  0
 34  7  1  0  0  0  0
 36 34  1  0  0  0  0
M  END
>  <Pose>
1

>  <Score>
-6.315

$$$$
