MODEL 1
REMARK VINA RESULT:    -6.315      0.000      0.000
REMARK INTER + INTRA:         -10.237
REMARK INTER:                  -8.899
REMARK INTRA:                  -1.337
REMARK UNBOUND:                -1.337
REMARK  9 active torsions:
REMARK  status: ('A' for Active; 'I' for Inactive)
REMARK    1  A    between atoms: C_3  and  C_9 
REMARK    2  A    between atoms: N_10  and  N_11 
REMARK    3  A    between atoms: N_11  and  C_12 
REMARK    4  A    between atoms: N_13  and  C_22 
REMARK    5  A    between atoms: C_18  and  N_21 
REMARK    6  A    between atoms: C_24  and  C_29 
REMARK    7  A    between atoms: C_25  and  O_28 
REMARK    8  A    between atoms: C_26  and  O_27 
REMARK    9  A    between atoms: C_29  and  O_30 
ROOT
ATOM      1  C   UNK d   1       1.816 -18.645 -40.775  0.00  0.00     0.727 A 
ATOM      2  N   UNK d   1       2.883 -19.281 -41.282  0.00  0.00    -0.131 N 
ATOM      3  C   UNK d   1       2.706 -19.299 -42.614  0.00  0.00     0.182 A 
ATOM      4  N   UNK d   1       3.443 -19.797 -43.637  0.00  0.00    -0.221 NA
ATOM      5  C   UNK d   1       3.045 -19.687 -44.919  0.00  0.00     0.237 A 
ATOM      6  N   UNK d   1       1.883 -19.067 -45.216  0.00  0.00    -0.222 NA
ATOM      7  C   UNK d   1       1.095 -18.546 -44.257  0.00  0.00     0.156 A 
ATOM      8  C   UNK d   1       1.525 -18.671 -42.950  0.00  0.00     0.168 A 
ATOM      9  N   UNK d   1       0.985 -18.270 -41.775  0.00  0.00    -0.055 NA
ENDROOT
BRANCH   1  10
ATOM     10  N   UNK d   1       1.582 -18.395 -39.396  0.00  0.00    -0.107 N 
ATOM     11  H   UNK d   1       1.077 -19.089 -38.797  0.00  0.00     0.208 HD
BRANCH  10  12
ATOM     12  N   UNK d   1       2.005 -17.221 -38.769  0.00  0.00    -0.172 NA
ATOM     13  C   UNK d   1       1.224 -16.204 -38.778  0.00  0.00     0.154 C 
BRANCH  13  14
ATOM     14  C   UNK d   1       1.587 -14.933 -38.145  0.00  0.00     0.026 A 
ATOM     15  C   UNK d   1       1.300 -14.684 -36.821  0.00  0.00     0.047 A 
ATOM     16 Cl   UNK d   1       0.484 -15.931 -35.906  0.00  0.00    -0.083 Cl
ATOM     17  C   UNK d   1       1.656 -13.465 -36.239  0.00  0.00     0.025 A 
ATOM     18  C   UNK d   1       2.299 -12.480 -36.956  0.00  0.00     0.003 A 
ATOM     19  C   UNK d   1       2.584 -12.737 -38.281  0.00  0.00     0.025 A 
ATOM     20  C   UNK d   1       2.230 -13.947 -38.862  0.00  0.00     0.047 A 
ATOM     21 Cl   UNK d   1       2.601 -14.260 -40.554  0.00  0.00    -0.083 Cl
ENDBRANCH  13  14
ENDBRANCH  10  12
ENDBRANCH   1  10
BRANCH   2  22
ATOM     22  C   UNK d   1       4.020 -19.855 -40.622  0.00  0.00     0.279 C 
ATOM     23  O   UNK d   1       4.513 -19.047 -39.601  0.00  0.00    -0.353 OA
ATOM     24  C   UNK d   1       5.349 -19.936 -38.927  0.00  0.00     0.179 C 
ATOM     25  C   UNK d   1       4.385 -21.077 -38.639  0.00  0.00     0.182 C 
ATOM     26  C   UNK d   1       3.664 -21.179 -39.968  0.00  0.00     0.199 C 
BRANCH  24  27
ATOM     27  C   UNK d   1       5.919 -19.352 -37.662  0.00  0.00     0.198 C 
BRANCH  27  28
ATOM     28  O   UNK d   1       7.201 -18.884 -37.814  0.00  0.00    -0.398 OA
ATOM     29  H   UNK d   1       7.808 -19.243 -37.130  0.00  0.00     0.209 HD
ENDBRANCH  27  28
ENDBRANCH  24  27
BRANCH  25  30
ATOM     30  O   UNK d   1       5.053 -22.250 -38.320  0.00  0.00    -0.390 OA
ATOM     31  H   UNK d   1       5.668 -22.046 -37.565  0.00  0.00     0.210 HD
ENDBRANCH  25  30
BRANCH  26  32
ATOM     32  O   UNK d   1       4.228 -22.255 -40.656  0.00  0.00    -0.388 OA
ATOM     33  H   UNK d   1       4.842 -21.962 -41.360  0.00  0.00     0.210 HD
ENDBRANCH  26  32
ENDBRANCH   2  22
BRANCH   7  34
ATOM     34  N   UNK d   1      -0.116 -17.902 -44.599  0.00  0.00    -0.382 N 
ATOM     35  H   UNK d   1      -0.260 -16.890 -44.444  0.00  0.00     0.157 HD
ATOM     36  H   UNK d   1      -0.882 -18.461 -45.016  0.00  0.00     0.157 HD
ENDBRANCH   7  34
TORSDOF 9
ENDMDL
