MODEL 1
REMARK VINA RESULT:    -6.740      0.000      0.000
REMARK INTER + INTRA:          -9.626
REMARK INTER:                  -8.711
REMARK INTRA:                  -0.915
REMARK UNBOUND:                -0.915
REMARK  5 active torsions:
REMARK  status: ('A' for Active; 'I' for Inactive)
REMARK    1  A    between atoms: C_5  and  N_8 
REMARK       I    between atoms: N_8  and  C_9 
REMARK    2  A    between atoms: C_9  and  C_11 
REMARK    3  A    between atoms: C_11  and  N_12 
REMARK    4  A    between atoms: N_15  and  C_18 
REMARK    5  A    between atoms: N_23  and  C_27 
ROOT
ATOM      1  N   UNK d   1      -0.344 -18.043 -37.460  0.00  0.00     0.100 N 
ATOM      2  C   UNK d   1      -1.303 -19.116 -37.125  0.00  0.00     0.293 C 
ATOM      3  C   UNK d   1      -0.684 -20.338 -37.836  0.00  0.00     0.154 C 
ATOM      4  N   UNK d   1      -0.127 -19.755 -39.067  0.00  0.00    -0.360 N 
ATOM      5  C   UNK d   1      -0.931 -18.740 -39.671  0.00  0.00     0.154 C 
ATOM      6  C   UNK d   1      -0.813 -17.507 -38.760  0.00  0.00     0.293 C 
ENDROOT
BRANCH   1   7
ATOM      7  C   UNK d   1      -0.401 -16.980 -36.472  0.00  0.00     0.375 C 
BRANCH   7   8
ATOM      8  C   UNK d   1       0.775 -16.074 -36.753  0.00  0.00     0.250 C 
ATOM      9  N   UNK d   1       0.616 -14.817 -37.341  0.00  0.00    -0.326 N 
ATOM     10  H   UNK d   1      -0.381 -14.550 -37.617  0.00  0.00     0.169 HD
ATOM     11  O   UNK d   1       1.924 -16.480 -36.444  0.00  0.00    -0.271 OA
BRANCH   9  12
ATOM     12  C   UNK d   1       1.609 -13.864 -37.651  0.00  0.00     0.034 A 
ATOM     13  C   UNK d   1       2.138 -13.789 -38.949  0.00  0.00     0.031 A 
ATOM     14  C   UNK d   1       3.096 -12.876 -39.305  0.00  0.00     0.026 A 
ATOM     15  C   UNK d   1       3.586 -11.976 -38.371  0.00  0.00     0.034 A 
ATOM     16 Cl   UNK d   1       4.810 -10.797 -38.793  0.00  0.00    -0.084 Cl
ATOM     17  C   UNK d   1       3.078 -12.036 -37.096  0.00  0.00     0.026 A 
ATOM     18  C   UNK d   1       2.106 -12.966 -36.749  0.00  0.00     0.031 A 
ENDBRANCH   9  12
ENDBRANCH   7   8
ENDBRANCH   1   7
BRANCH   4  19
ATOM     19  C   UNK d   1       1.115 -20.214 -39.527  0.00  0.00     0.162 A 
ATOM     20  N   UNK d   1       1.207 -20.886 -40.715  0.00  0.00    -0.222 NA
ATOM     21  C   UNK d   1       2.347 -21.363 -41.212  0.00  0.00     0.237 A 
ATOM     22  N   UNK d   1       3.485 -21.190 -40.531  0.00  0.00    -0.220 NA
ATOM     23  C   UNK d   1       3.524 -20.552 -39.366  0.00  0.00     0.183 A 
ATOM     24  N   UNK d   1       4.507 -20.250 -38.494  0.00  0.00    -0.232 N 
ATOM     25  C   UNK d   1       2.320 -20.057 -38.856  0.00  0.00     0.173 A 
ATOM     26  N   UNK d   1       3.942 -19.605 -37.505  0.00  0.00    -0.064 NA
ATOM     27  N   UNK d   1       2.639 -19.484 -37.711  0.00  0.00    -0.124 NA
BRANCH  24  28
ATOM     28  C   UNK d   1       5.922 -20.557 -38.583  0.00  0.00     0.150 C 
ATOM     29  C   UNK d   1       6.756 -19.527 -37.851  0.00  0.00     0.029 C 
ENDBRANCH  24  28
ENDBRANCH   4  19
TORSDOF 5
ENDMDL
