MODEL 1
REMARK VINA RESULT:    -6.698      0.000      0.000
REMARK INTER + INTRA:          -9.169
REMARK INTER:                  -8.656
REMARK INTRA:                  -0.512
REMARK UNBOUND:                -0.512
REMARK  5 active torsions:
REMARK  status: ('A' for Active; 'I' for Inactive)
REMARK    1  A    between atoms: C_3  and  O_29 
REMARK    2  A    between atoms: C_6  and  N_8 
REMARK       I    between atoms: N_8  and  C_9 
REMARK    3  A    between atoms: C_9  and  C_11 
REMARK    4  A    between atoms: C_11  and  N_12 
REMARK    5  A    between atoms: C_17  and  N_23 
ROOT
ATOM      1  N   UNK d   1       0.679 -17.362 -36.892  0.00  0.00    -0.299 N 
ATOM      2  C   UNK d   1      -0.027 -17.926 -37.897  0.00  0.00     0.215 A 
ATOM      3  N   UNK d   1       0.549 -18.835 -38.712  0.00  0.00    -0.223 NA
ATOM      4  C   UNK d   1       1.822 -19.226 -38.579  0.00  0.00     0.186 A 
ATOM      5  N   UNK d   1       2.405 -20.129 -39.384  0.00  0.00    -0.042 NA
ATOM      6  C   UNK d   1       3.680 -20.538 -39.273  0.00  0.00     0.726 A 
ATOM      7  N   UNK d   1       4.408 -19.982 -38.267  0.00  0.00    -0.074 NA
ATOM      8  C   UNK d   1       3.865 -19.076 -37.439  0.00  0.00     0.157 A 
ATOM      9  C   UNK d   1       2.555 -18.663 -37.562  0.00  0.00     0.099 A 
ATOM     10  C   UNK d   1       1.979 -17.733 -36.722  0.00  0.00     0.264 A 
ATOM     11  O   UNK d   1       2.700 -17.255 -35.811  0.00  0.00    -0.267 OA
ENDROOT
BRANCH   1  12
ATOM     12  C   UNK d   1       0.145 -16.394 -35.987  0.00  0.00     0.236 C 
BRANCH  12  13
ATOM     13  C   UNK d   1       0.263 -14.990 -36.512  0.00  0.00     0.240 C 
ATOM     14  N   UNK d   1       1.373 -14.189 -36.200  0.00  0.00    -0.326 N 
ATOM     15  H   UNK d   1       2.140 -14.606 -35.573  0.00  0.00     0.169 HD
ATOM     16  O   UNK d   1      -0.671 -14.596 -37.228  0.00  0.00    -0.271 OA
BRANCH  14  17
ATOM     17  C   UNK d   1       1.534 -12.864 -36.662  0.00  0.00     0.036 A 
ATOM     18  C   UNK d   1       0.556 -11.904 -36.695  0.00  0.00     0.032 A 
ATOM     19  C   UNK d   1       0.833 -10.628 -37.189  0.00  0.00     0.041 A 
ATOM     20  C   UNK d   1       2.066 -10.253 -37.663  0.00  0.00     0.090 A 
ATOM     21  C   UNK d   1       3.052 -11.209 -37.634  0.00  0.00     0.069 A 
ATOM     22 Cl   UNK d   1       4.662 -10.835 -38.214  0.00  0.00    -0.081 Cl
ATOM     23  C   UNK d   1       2.792 -12.466 -37.150  0.00  0.00     0.056 A 
BRANCH  20  24
ATOM     24  O   UNK d   1       2.306  -8.961 -38.151  0.00  0.00    -0.354 OA
ATOM     25  C   UNK d   1       2.236  -8.710 -39.536  0.00  0.00     0.210 C 
ENDBRANCH  20  24
ENDBRANCH  14  17
ENDBRANCH  12  13
ENDBRANCH   1  12
BRANCH   6  26
ATOM     26  N   UNK d   1       4.257 -21.493 -40.144  0.00  0.00    -0.210 N 
ATOM     27  C   UNK d   1       3.394 -22.194 -41.066  0.00  0.00     0.167 C 
ATOM     28  C   UNK d   1       4.117 -22.337 -42.404  0.00  0.00     0.188 C 
ATOM     29  O   UNK d   1       5.411 -22.825 -42.243  0.00  0.00    -0.388 OA
ATOM     30  C   UNK d   1       6.141 -21.818 -41.610  0.00  0.00     0.188 C 
ATOM     31  C   UNK d   1       5.668 -21.801 -40.156  0.00  0.00     0.167 C 
ENDBRANCH   6  26
TORSDOF 5
ENDMDL
