MODEL 1
REMARK VINA RESULT:    -7.146      0.000      0.000
REMARK INTER + INTRA:          -8.706
REMARK INTER:                  -8.400
REMARK INTRA:                  -0.307
REMARK UNBOUND:                -0.307
REMARK  3 active torsions:
REMARK  status: ('A' for Active; 'I' for Inactive)
REMARK       I    between atoms: N_9  and  C_12 
REMARK    1  A    between atoms: C_12  and  C_14 
REMARK    2  A    between atoms: C_14  and  O_15 
REMARK    3  A    between atoms: O_15  and  C_16 
ROOT
ATOM      1 Cl   UNK d   1       4.683 -11.720 -41.302  0.00  0.00    -0.084 Cl
ATOM      2  C   UNK d   1       4.093 -11.844 -39.650  0.00  0.00     0.041 A 
ATOM      3  C   UNK d   1       3.124 -12.770 -39.321  0.00  0.00    -0.027 A 
ATOM      4  C   UNK d   1       2.665 -12.867 -38.037  0.00  0.00    -0.032 A 
ATOM      5  C   UNK d   1       3.192 -12.021 -37.088  0.00  0.00     0.009 A 
ATOM      6  C   UNK d   1       4.160 -11.090 -37.395  0.00  0.00     0.002 A 
ATOM      7  C   UNK d   1       4.617 -11.000 -38.694  0.00  0.00     0.024 A 
ATOM      8  C   UNK d   1       1.628 -13.835 -37.606  0.00  0.00     0.165 C 
ATOM      9  N   UNK d   1       1.383 -14.721 -38.717  0.00  0.00    -0.346 N 
ATOM     10  C   UNK d   1       1.224 -14.108 -40.015  0.00  0.00     0.131 C 
ATOM     11  C   UNK d   1       2.623 -13.635 -40.427  0.00  0.00     0.061 C 
ATOM     12  C   UNK d   1       1.299 -16.126 -38.572  0.00  0.00     0.244 C 
ATOM     13  O   UNK d   1       1.083 -16.843 -39.584  0.00  0.00    -0.271 OA
ENDROOT
BRANCH  12  14
ATOM     14  C   UNK d   1       1.452 -16.821 -37.273  0.00  0.00     0.280 C 
BRANCH  14  15
ATOM     15  O   UNK d   1       1.507 -18.206 -37.419  0.00  0.00    -0.324 OA
BRANCH  15  16
ATOM     16  C   UNK d   1       2.658 -18.910 -37.747  0.00  0.00     0.184 A 
ATOM     17  N   UNK d   1       2.621 -19.794 -38.762  0.00  0.00    -0.139 NA
ATOM     18  N   UNK d   1       3.689 -20.499 -39.126  0.00  0.00    -0.203 N 
ATOM     19  C   UNK d   1       4.872 -20.378 -38.509  0.00  0.00     0.174 A 
ATOM     20  C   UNK d   1       3.847 -21.416 -40.098  0.00  0.00     0.261 A 
ATOM     21  N   UNK d   1       5.760 -21.209 -39.088  0.00  0.00    -0.129 NA
ATOM     22  C   UNK d   1       4.948 -19.473 -37.456  0.00  0.00     0.059 A 
ATOM     23  N   UNK d   1       5.123 -21.832 -40.050  0.00  0.00    -0.141 NA
ATOM     24  C   UNK d   1       3.846 -18.744 -37.079  0.00  0.00     0.063 A 
ENDBRANCH  15  16
ENDBRANCH  14  15
ENDBRANCH  12  14
TORSDOF 3
ENDMDL
