MODEL 1
REMARK VINA RESULT:    -6.194      0.000      0.000
REMARK INTER + INTRA:          -8.308
REMARK INTER:                  -7.643
REMARK INTRA:                  -0.665
REMARK UNBOUND:                -0.665
REMARK  4 active torsions:
REMARK  status: ('A' for Active; 'I' for Inactive)
REMARK    1  A    between atoms: S_1  and  N_4 
REMARK    2  A    between atoms: S_1  and  C_17 
REMARK    3  A    between atoms: C_6  and  O_9 
REMARK    4  A    between atoms: O_9  and  C_10 
ROOT
ATOM      1  N   UNK d   1       1.386 -15.326 -36.776  0.00  0.00    -0.204 NA
ATOM      2  C   UNK d   1       1.958 -16.476 -37.404  0.00  0.00     0.140 C 
ATOM      3  C   UNK d   1       1.232 -17.699 -36.869  0.00  0.00     0.147 C 
ATOM      4  C   UNK d   1      -0.123 -17.122 -36.514  0.00  0.00     0.049 C 
ATOM      5  C   UNK d   1       0.285 -15.748 -35.970  0.00  0.00     0.110 C 
ENDROOT
BRANCH   1   6
ATOM      6  S   UNK d   1       0.968 -14.095 -37.904  0.00  0.00     0.243 S 
ATOM      7  O   UNK d   1      -0.231 -13.348 -37.426  0.00  0.00    -0.206 OA
ATOM      8  O   UNK d   1       0.631 -14.770 -39.207  0.00  0.00    -0.206 OA
BRANCH   6   9
ATOM      9  C   UNK d   1       2.291 -12.984 -38.170  0.00  0.00     0.077 A 
ATOM     10  C   UNK d   1       2.825 -12.823 -39.432  0.00  0.00     0.064 A 
ATOM     11  C   UNK d   1       3.873 -11.957 -39.696  0.00  0.00     0.103 A 
ATOM     12  C   UNK d   1       4.422 -11.210 -38.670  0.00  0.00     0.102 A 
ATOM     13  O   UNK d   1       4.414 -11.788 -40.950  0.00  0.00    -0.346 OA
ATOM     14  C   UNK d   1       3.885 -11.375 -37.419  0.00  0.00     0.041 A 
ATOM     15  O   UNK d   1       5.468 -10.355 -38.979  0.00  0.00    -0.346 OA
ATOM     16  C   UNK d   1       2.843 -12.236 -37.152  0.00  0.00     0.028 A 
ATOM     17  C   UNK d   1       6.330 -10.544 -40.086  0.00  0.00     0.202 C 
ATOM     18  C   UNK d   1       5.664 -11.238 -41.245  0.00  0.00     0.202 C 
ENDBRANCH   6   9
ENDBRANCH   1   6
BRANCH   3  19
ATOM     19  O   UNK d   1       1.061 -18.602 -37.948  0.00  0.00    -0.312 OA
BRANCH  19  20
ATOM     20  C   UNK d   1       2.103 -19.378 -38.430  0.00  0.00     0.268 A 
ATOM     21  N   UNK d   1       2.192 -19.480 -39.788  0.00  0.00    -0.218 NA
ATOM     22  C   UNK d   1       3.193 -20.225 -40.285  0.00  0.00     0.146 A 
ATOM     23  C   UNK d   1       4.108 -20.871 -39.478  0.00  0.00     0.069 A 
ATOM     24  C   UNK d   1       3.969 -20.732 -38.110  0.00  0.00     0.146 A 
ATOM     25 Cl   UNK d   1       5.408 -21.841 -40.140  0.00  0.00    -0.081 Cl
ATOM     26  N   UNK d   1       2.963 -19.983 -37.612  0.00  0.00    -0.218 NA
ENDBRANCH  19  20
ENDBRANCH   3  19
TORSDOF 4
ENDMDL
