MODEL 1
REMARK VINA RESULT:    -6.507      0.000      0.000
REMARK INTER + INTRA:          -9.676
REMARK INTER:                  -8.599
REMARK INTRA:                  -1.077
REMARK UNBOUND:                -1.077
REMARK  6 active torsions:
REMARK  status: ('A' for Active; 'I' for Inactive)
REMARK    1  A    between atoms: C_4  and  C_9 
REMARK    2  A    between atoms: C_5  and  O_8 
REMARK    3  A    between atoms: N_10  and  N_11 
REMARK    4  A    between atoms: N_11  and  C_12 
REMARK    5  A    between atoms: C_14  and  N_24 
REMARK    6  A    between atoms: C_16  and  N_18 
ROOT
ATOM      1  C   UNK d   1       0.949 -18.356 -37.796  0.00  0.00     0.774 A 
ATOM      2  N   UNK d   1       2.213 -18.688 -38.103  0.00  0.00     0.133 NA
ATOM      3  C   UNK d   1       2.552 -19.772 -38.849  0.00  0.00     0.756 A 
ATOM      4  N   UNK d   1       1.504 -20.524 -39.279  0.00  0.00     0.131 NA
ATOM      5  C   UNK d   1       0.221 -20.243 -39.004  0.00  0.00     0.756 A 
ATOM      6  N   UNK d   1      -0.028 -19.166 -38.270  0.00  0.00     0.133 NA
ENDROOT
BRANCH   1   7
ATOM      7  N   UNK d   1       0.646 -17.211 -37.012  0.00  0.00    -0.105 N 
ATOM      8  H   UNK d   1      -0.184 -17.192 -36.388  0.00  0.00     0.208 HD
BRANCH   7   9
ATOM      9  N   UNK d   1       1.452 -16.073 -37.052  0.00  0.00    -0.171 NA
ATOM     10  C   UNK d   1       1.177 -15.163 -37.961  0.00  0.00     0.153 C 
BRANCH  10  11
ATOM     11  C   UNK d   1       1.992 -13.961 -38.038  0.00  0.00     0.017 A 
ATOM     12  C   UNK d   1       2.598 -13.616 -39.256  0.00  0.00     0.034 A 
ATOM     13  C   UNK d   1       3.365 -12.493 -39.347  0.00  0.00     0.011 A 
ATOM     14 Br   UNK d   1       4.192 -12.020 -40.999  0.00  0.00    -0.051 Br
ATOM     15  C   UNK d   1       3.560 -11.675 -38.256  0.00  0.00     0.022 A 
ATOM     16  C   UNK d   1       2.977 -11.992 -37.055  0.00  0.00     0.039 A 
ATOM     17  C   UNK d   1       2.187 -13.148 -36.955  0.00  0.00     0.077 A 
BRANCH  17  18
ATOM     18  O   UNK d   1       1.615 -13.438 -35.732  0.00  0.00    -0.360 OA
ATOM     19  H   UNK d   1       1.301 -14.344 -35.451  0.00  0.00     0.217 HD
ENDBRANCH  17  18
ENDBRANCH  10  11
ENDBRANCH   7   9
ENDBRANCH   1   7
BRANCH   3  20
ATOM     20  N   UNK d   1       3.889 -20.091 -39.154  0.00  0.00    -0.209 N 
ATOM     21  C   UNK d   1       4.903 -19.080 -39.130  0.00  0.00     0.167 C 
ATOM     22  C   UNK d   1       6.015 -19.582 -38.224  0.00  0.00     0.188 C 
ATOM     23  O   UNK d   1       6.463 -20.796 -38.766  0.00  0.00    -0.388 OA
ATOM     24  C   UNK d   1       5.482 -21.778 -38.624  0.00  0.00     0.188 C 
ATOM     25  C   UNK d   1       4.268 -21.429 -39.494  0.00  0.00     0.167 C 
ENDBRANCH   3  20
BRANCH   5  26
ATOM     26  N   UNK d   1      -0.820 -21.071 -39.484  0.00  0.00    -0.209 N 
ATOM     27  C   UNK d   1      -1.809 -21.682 -38.621  0.00  0.00     0.167 C 
ATOM     28  C   UNK d   1      -3.112 -21.849 -39.374  0.00  0.00     0.188 C 
ATOM     29  O   UNK d   1      -2.991 -22.572 -40.530  0.00  0.00    -0.388 OA
ATOM     30  C   UNK d   1      -1.680 -22.718 -40.966  0.00  0.00     0.188 C 
ATOM     31  C   UNK d   1      -0.969 -21.369 -40.912  0.00  0.00     0.167 C 
ENDBRANCH   5  26
TORSDOF 6
ENDMDL
