MODEL 1
REMARK VINA RESULT:    -6.522      0.000      0.000
REMARK INTER + INTRA:          -9.562
REMARK INTER:                  -8.428
REMARK INTRA:                  -1.134
REMARK UNBOUND:                -1.134
REMARK  5 active torsions:
REMARK  status: ('A' for Active; 'I' for Inactive)
REMARK    1  A    between atoms: C_4  and  C_8 
REMARK    2  A    between atoms: C_8  and  N_9 
REMARK    3  A    between atoms: C_13  and  N_14 
REMARK    4  A    between atoms: N_17  and  C_20 
REMARK    5  A    between atoms: C_20  and  C_21 
REMARK       I    between atoms: C_21  and  N_23 
ROOT
ATOM      1  N   UNK d   1       1.758 -19.191 -38.434  0.00  0.00    -0.168 N 
ATOM      2  C   UNK d   1       2.980 -19.745 -38.659  0.00  0.00     0.167 A 
ATOM      3  C   UNK d   1       2.858 -20.602 -39.721  0.00  0.00     0.185 A 
ATOM      4  N   UNK d   1       1.582 -20.541 -40.100  0.00  0.00    -0.044 NA
ATOM      5  C   UNK d   1       0.882 -19.676 -39.318  0.00  0.00     0.707 A 
ATOM      6  N   UNK d   1       3.944 -21.285 -40.121  0.00  0.00    -0.286 N 
ATOM      7  C   UNK d   1       5.146 -21.144 -39.499  0.00  0.00     0.330 A 
ATOM      8  O   UNK d   1       6.178 -21.785 -39.870  0.00  0.00    -0.246 OA
ATOM      9  N   UNK d   1       5.296 -20.312 -38.454  0.00  0.00    -0.273 N 
ATOM     10  C   UNK d   1       4.223 -19.622 -38.042  0.00  0.00     0.280 A 
ATOM     11  O   UNK d   1       4.396 -18.858 -37.067  0.00  0.00    -0.265 OA
ATOM     12  C   UNK d   1       3.865 -22.201 -41.229  0.00  0.00     0.163 C 
ATOM     13  H   UNK d   1       6.238 -20.204 -37.970  0.00  0.00     0.173 HD
ENDROOT
BRANCH   5  14
ATOM     14  N   UNK d   1      -0.533 -19.422 -39.448  0.00  0.00    -0.212 N 
ATOM     15  C   UNK d   1      -1.387 -20.567 -39.235  0.00  0.00     0.171 C 
ATOM     16  C   UNK d   1      -2.858 -20.246 -39.294  0.00  0.00     0.293 C 
ATOM     17  N   UNK d   1      -3.082 -19.083 -38.515  0.00  0.00     0.100 N 
ATOM     18  C   UNK d   1      -2.437 -17.936 -39.059  0.00  0.00     0.293 C 
ATOM     19  C   UNK d   1      -1.134 -18.172 -39.765  0.00  0.00     0.171 C 
BRANCH  17  20
ATOM     20  C   UNK d   1      -2.792 -19.327 -37.137  0.00  0.00     0.374 C 
BRANCH  20  21
ATOM     21  C   UNK d   1      -2.913 -18.120 -36.267  0.00  0.00     0.243 C 
ATOM     22  O   UNK d   1      -3.973 -17.508 -36.066  0.00  0.00    -0.272 OA
ATOM     23  N   UNK d   1      -1.689 -17.689 -35.655  0.00  0.00    -0.369 N 
ATOM     24  H   UNK d   1      -0.998 -17.095 -36.166  0.00  0.00     0.159 HD
ATOM     25  H   UNK d   1      -1.497 -17.974 -34.697  0.00  0.00     0.159 HD
ENDBRANCH  20  21
ENDBRANCH  17  20
ENDBRANCH   5  14
BRANCH   1  26
ATOM     26  C   UNK d   1       1.513 -18.223 -37.417  0.00  0.00     0.186 C 
BRANCH  26  27
ATOM     27  C   UNK d   1       1.622 -16.802 -37.840  0.00  0.00    -0.038 A 
ATOM     28  C   UNK d   1       1.403 -15.809 -36.874  0.00  0.00     0.032 A 
ATOM     29  C   UNK d   1       1.470 -14.472 -37.150  0.00  0.00     0.034 A 
ATOM     30 Cl   UNK d   1       1.207 -13.218 -35.942  0.00  0.00    -0.084 Cl
ATOM     31  C   UNK d   1       1.762 -14.065 -38.434  0.00  0.00     0.024 A 
ATOM     32  C   UNK d   1       1.978 -15.035 -39.391  0.00  0.00     0.002 A 
ATOM     33  C   UNK d   1       1.910 -16.391 -39.106  0.00  0.00     0.009 A 
ENDBRANCH  26  27
ENDBRANCH   1  26
TORSDOF 5
ENDMDL
