/Users/jonathanwahrer/Desktop/Msc/3_Semester/Drug_Design_Praktikum/waehrer_HTS_screening/HTS_experiment/out/docking_results/vina_output/6y4q/1865_docked.pdbqt
 OpenBabel03232218453D

 29 32  0  0  1  0  0  0  0  0999 V2000
   -0.2920  -17.4150  -36.9330 N   0  0  0  0  0  0  0  0  0  0  0  0
   -1.6250  -17.8860  -36.6860 C   0  0  0  0  0  0  0  0  0  0  0  0
   -2.2740  -17.6960  -35.6050 O   0  0  0  0  0  0  0  0  0  0  0  0
   -2.0910  -18.5880  -37.8360 N   0  0  0  0  0  0  0  0  0  0  0  0
   -0.9020  -18.9770  -38.5610 C   0  0  1  0  0  0  0  0  0  0  0  0
   -0.3410  -20.2030  -37.8650 C   0  0  0  0  0  2  0  0  0  0  0  0
    1.1020  -20.3340  -38.3390 C   0  0  0  0  0  2  0  0  0  0  0  0
    1.1630  -20.2180  -39.7830 N   0  0  0  0  0  0  0  0  0  0  0  0
   -0.0560  -20.1450  -40.5450 C   0  0  0  0  0  2  0  0  0  0  0  0
   -1.1030  -19.2340  -39.9930 C   0  0  0  0  0  2  0  0  0  0  0  0
    2.4230  -20.1820  -40.4350 C   0  0  0  0  0  0  0  0  0  0  0  0
    2.4700  -20.0760  -41.7030 O   0  0  0  0  0  0  0  0  0  0  0  0
    0.0180  -17.8540  -38.2530 C   0  0  0  0  0  0  0  0  0  0  0  0
    0.9220  -17.3330  -38.9600 O   0  0  0  0  0  0  0  0  0  0  0  0
   -3.0750  -18.7830  -38.1000 H   0  0  0  0  0  0  0  0  0  0  0  0
    0.5650  -16.6580  -36.0510 C   0  0  0  0  0  2  0  0  0  0  0  0
    0.5160  -15.2040  -36.3120 C   0  0  0  0  0  0  0  0  0  0  0  0
    1.6620  -14.4740  -36.5320 C   0  0  0  0  0  3  0  0  0  0  0  0
    1.6560  -13.1170  -36.7770 C   0  0  0  0  0  0  0  0  0  0  0  0
    3.1200  -12.1940  -37.0560 Cl  0  0  0  0  0  0  0  0  0  0  0  0
    0.4260  -12.4900  -36.7990 C   0  0  0  0  0  3  0  0  0  0  0  0
   -0.7310  -13.2090  -36.5800 C   0  0  0  0  0  3  0  0  0  0  0  0
   -0.7060  -14.5710  -36.3350 C   0  0  0  0  0  3  0  0  0  0  0  0
    3.6920  -20.2630  -39.7330 C   0  0  0  0  0  0  0  0  0  0  0  0
    4.2730  -19.1920  -39.1560 N   0  0  0  0  0  0  0  0  0  0  0  0
    5.4500  -19.3390  -38.5220 C   0  0  0  0  0  3  0  0  0  0  0  0
    6.0970  -20.5530  -38.4350 C   0  0  0  0  0  3  0  0  0  0  0  0
    5.5220  -21.6210  -39.0080 N   0  0  0  0  0  0  0  0  0  0  0  0
    4.3310  -21.4780  -39.6500 C   0  0  0  0  0  3  0  0  0  0  0  0
  1  2  1  0  0  0  0
  1 16  1  0  0  0  0
  2  3  2  0  0  0  0
  4  2  1  0  0  0  0
  5 10  1  6  0  0  0
  5 13  1  0  0  0  0
  5  6  1  0  0  0  0
  5  4  1  0  0  0  0
  7  6  1  0  0  0  0
  8  7  1  0  0  0  0
  9 10  1  0  0  0  0
  9  8  1  0  0  0  0
 11  8  1  0  0  0  0
 11 24  1  0  0  0  0
 12 11  2  0  0  0  0
 13  1  1  0  0  0  0
 14 13  2  0  0  0  0
 15  4  1  0  0  0  0
 17 16  1  0  0  0  0
 18 17  2  0  0  0  0
 19 18  1  0  0  0  0
 20 19  1  0  0  0  0
 21 19  2  0  0  0  0
 21 22  1  0  0  0  0
 22 23  2  0  0  0  0
 23 17  1  0  0  0  0
 24 29  2  0  0  0  0
 24 25  1  0  0  0  0
 25 26  2  0  0  0  0
 26 27  1  0  0  0  0
 28 27  2  0  0  0  0
 29 28  1  0  0  0  0
M  END
>  <Pose>
1

>  <Score>
-6.667

$$$$
