/Users/jonathanwahrer/Desktop/Msc/3_Semester/Drug_Design_Praktikum/waehrer_HTS_screening/HTS_experiment/out/docking_results/vina_output/6y4q/1893_docked.pdbqt
 OpenBabel03232218463D

 28 31  0  0  0  0  0  0  0  0999 V2000
    3.1440  -18.6840  -38.4820 N   0  0  0  0  0  0  0  0  0  0  0  0
    2.5240  -17.5240  -38.8030 C   0  0  0  0  0  0  0  0  0  0  0  0
    2.3700  -17.1120  -39.9830 O   0  0  0  0  0  0  0  0  0  0  0  0
    2.0900  -16.8620  -37.6660 C   0  0  0  0  0  0  0  0  0  0  0  0
    2.4480  -17.6230  -36.6440 C   0  0  0  0  0  0  0  0  0  0  0  0
    2.0240  -16.9750  -35.5380 N   0  0  0  0  0  0  0  0  0  0  0  0
    1.4200  -15.8380  -35.9080 N   0  0  0  0  0  0  0  0  0  0  0  0
    1.4570  -15.7600  -37.2280 N   0  0  0  0  0  0  0  0  0  0  0  0
    3.0920  -18.7370  -37.1400 C   0  0  0  0  0  0  0  0  0  0  0  0
    3.5510  -19.6500  -36.4190 O   0  0  0  0  0  0  0  0  0  0  0  0
    2.1500  -17.3100  -34.5650 H   0  0  0  0  0  0  0  0  0  0  0  0
    0.9840  -15.1120  -35.3000 H   0  0  0  0  0  0  0  0  0  0  0  0
    0.9190  -14.6960  -38.0500 C   0  0  0  0  0  2  0  0  0  0  0  0
    1.9450  -13.7080  -38.4650 C   0  0  0  0  0  0  0  0  0  0  0  0
    2.4940  -12.7650  -37.6250 C   0  0  0  0  0  3  0  0  0  0  0  0
    3.4490  -11.8470  -38.0150 C   0  0  0  0  0  0  0  0  0  0  0  0
    3.8870  -11.8620  -39.3170 C   0  0  0  0  0  3  0  0  0  0  0  0
    3.3660  -12.7870  -40.1910 C   0  0  0  0  0  3  0  0  0  0  0  0
    2.4090  -13.6970  -39.7730 C   0  0  0  0  0  3  0  0  0  0  0  0
    3.9410  -10.9290  -37.0790 O   0  0  0  0  0  0  0  0  0  0  0  0
    3.9980   -9.5450  -37.3620 C   0  0  0  0  0  1  0  0  0  0  0  0
    3.7130  -19.6160  -39.3750 C   0  0  0  0  0  0  0  0  0  0  0  0
    2.9710  -20.6440  -39.9190 C   0  0  0  0  0  3  0  0  0  0  0  0
    3.5050  -21.5710  -40.7950 C   0  0  0  0  0  3  0  0  0  0  0  0
    4.8360  -21.4560  -41.1360 C   0  0  0  0  0  0  0  0  0  0  0  0
    5.5910  -22.6020  -42.2500 Cl  0  0  0  0  0  0  0  0  0  0  0  0
    5.6210  -20.4450  -40.6190 C   0  0  0  0  0  3  0  0  0  0  0  0
    5.0420  -19.5350  -39.7400 C   0  0  0  0  0  3  0  0  0  0  0  0
  1  9  1  0  0  0  0
  2  1  1  0  0  0  0
  2  4  1  0  0  0  0
  3  2  2  0  0  0  0
  4  8  1  0  0  0  0
  4  5  2  0  0  0  0
  5  6  1  0  0  0  0
  6 11  1  0  0  0  0
  7  6  1  0  0  0  0
  7 12  1  0  0  0  0
  8  7  1  0  0  0  0
  9  5  1  0  0  0  0
  9 10  2  0  0  0  0
 13  8  1  0  0  0  0
 14 13  1  0  0  0  0
 14 15  1  0  0  0  0
 16 15  2  0  0  0  0
 16 20  1  0  0  0  0
 17 16  1  0  0  0  0
 18 19  1  0  0  0  0
 18 17  2  0  0  0  0
 19 14  2  0  0  0  0
 21 20  1  0  0  0  0
 22  1  1  0  0  0  0
 23 22  2  0  0  0  0
 24 23  1  0  0  0  0
 25 24  2  0  0  0  0
 25 27  1  0  0  0  0
 26 25  1  0  0  0  0
 27 28  2  0  0  0  0
 28 22  1  0  0  0  0
M  END
>  <Pose>
1

>  <Score>
-6.980

$$$$
