MODEL 1
REMARK VINA RESULT:    -6.980      0.000      0.000
REMARK INTER + INTRA:          -9.497
REMARK INTER:                  -8.612
REMARK INTRA:                  -0.885
REMARK UNBOUND:                -0.885
REMARK  4 active torsions:
REMARK  status: ('A' for Active; 'I' for Inactive)
REMARK    1  A    between atoms: C_5  and  N_8 
REMARK    2  A    between atoms: N_15  and  C_16 
REMARK    3  A    between atoms: C_16  and  C_17 
REMARK    4  A    between atoms: C_19  and  O_23 
ROOT
ATOM      1  N   UNK d   1       3.144 -18.684 -38.482  0.00  0.00    -0.241 N 
ATOM      2  C   UNK d   1       2.524 -17.524 -38.803  0.00  0.00     0.286 A 
ATOM      3  O   UNK d   1       2.370 -17.112 -39.983  0.00  0.00    -0.265 OA
ATOM      4  C   UNK d   1       2.090 -16.862 -37.666  0.00  0.00     0.154 A 
ATOM      5  C   UNK d   1       2.448 -17.623 -36.644  0.00  0.00     0.152 A 
ATOM      6  N   UNK d   1       2.024 -16.975 -35.538  0.00  0.00    -0.279 N 
ATOM      7  N   UNK d   1       1.420 -15.838 -35.908  0.00  0.00    -0.239 N 
ATOM      8  N   UNK d   1       1.457 -15.760 -37.228  0.00  0.00    -0.266 N 
ATOM      9  C   UNK d   1       3.092 -18.737 -37.140  0.00  0.00     0.286 A 
ATOM     10  O   UNK d   1       3.551 -19.650 -36.419  0.00  0.00    -0.265 OA
ATOM     11  H   UNK d   1       2.150 -17.310 -34.565  0.00  0.00     0.189 HD
ATOM     12  H   UNK d   1       0.984 -15.112 -35.300  0.00  0.00     0.208 HD
ENDROOT
BRANCH   8  13
ATOM     13  C   UNK d   1       0.919 -14.696 -38.050  0.00  0.00     0.189 C 
BRANCH  13  14
ATOM     14  C   UNK d   1       1.945 -13.708 -38.465  0.00  0.00    -0.036 A 
ATOM     15  C   UNK d   1       2.494 -12.765 -37.625  0.00  0.00     0.045 A 
ATOM     16  C   UNK d   1       3.449 -11.847 -38.015  0.00  0.00     0.068 A 
ATOM     17  C   UNK d   1       3.887 -11.862 -39.317  0.00  0.00     0.037 A 
ATOM     18  C   UNK d   1       3.366 -12.787 -40.191  0.00  0.00     0.003 A 
ATOM     19  C   UNK d   1       2.409 -13.697 -39.773  0.00  0.00     0.009 A 
BRANCH  16  20
ATOM     20  O   UNK d   1       3.941 -10.929 -37.079  0.00  0.00    -0.356 OA
ATOM     21  C   UNK d   1       3.998  -9.545 -37.362  0.00  0.00     0.210 C 
ENDBRANCH  16  20
ENDBRANCH  13  14
ENDBRANCH   8  13
BRANCH   1  22
ATOM     22  C   UNK d   1       3.713 -19.616 -39.375  0.00  0.00     0.046 A 
ATOM     23  C   UNK d   1       2.971 -20.644 -39.919  0.00  0.00     0.032 A 
ATOM     24  C   UNK d   1       3.505 -21.571 -40.795  0.00  0.00     0.026 A 
ATOM     25  C   UNK d   1       4.836 -21.456 -41.136  0.00  0.00     0.034 A 
ATOM     26 Cl   UNK d   1       5.591 -22.602 -42.250  0.00  0.00    -0.084 Cl
ATOM     27  C   UNK d   1       5.621 -20.445 -40.619  0.00  0.00     0.026 A 
ATOM     28  C   UNK d   1       5.042 -19.535 -39.740  0.00  0.00     0.032 A 
ENDBRANCH   1  22
TORSDOF 4
ENDMDL
