MODEL 1
REMARK VINA RESULT:    -7.022      0.000      0.000
REMARK INTER + INTRA:          -9.045
REMARK INTER:                  -8.254
REMARK INTRA:                  -0.791
REMARK UNBOUND:                -0.791
REMARK  3 active torsions:
REMARK  status: ('A' for Active; 'I' for Inactive)
REMARK    1  A    between atoms: C_5  and  N_8 
REMARK    2  A    between atoms: N_15  and  C_16 
REMARK    3  A    between atoms: C_16  and  C_17 
ROOT
ATOM      1  N   UNK d   1       3.117 -18.703 -38.577  0.00  0.00    -0.241 N 
ATOM      2  C   UNK d   1       2.527 -17.525 -38.879  0.00  0.00     0.286 A 
ATOM      3  O   UNK d   1       2.376 -17.095 -40.042  0.00  0.00    -0.265 OA
ATOM      4  C   UNK d   1       2.117 -16.867 -37.731  0.00  0.00     0.154 A 
ATOM      5  C   UNK d   1       2.466 -17.663 -36.710  0.00  0.00     0.152 A 
ATOM      6  N   UNK d   1       2.062 -17.017 -35.602  0.00  0.00    -0.279 N 
ATOM      7  N   UNK d   1       1.491 -15.875 -35.938  0.00  0.00    -0.239 N 
ATOM      8  N   UNK d   1       1.517 -15.767 -37.249  0.00  0.00    -0.266 N 
ATOM      9  C   UNK d   1       3.075 -18.780 -37.242  0.00  0.00     0.286 A 
ATOM     10  O   UNK d   1       3.530 -19.740 -36.562  0.00  0.00    -0.265 OA
ATOM     11  H   UNK d   1       2.166 -17.338 -34.617  0.00  0.00     0.189 HD
ATOM     12  H   UNK d   1       1.078 -15.158 -35.271  0.00  0.00     0.208 HD
ENDROOT
BRANCH   1  13
ATOM     13  C   UNK d   1       3.666 -19.657 -39.485  0.00  0.00     0.046 A 
ATOM     14  C   UNK d   1       4.976 -19.575 -39.908  0.00  0.00     0.032 A 
ATOM     15  C   UNK d   1       5.516 -20.495 -40.786  0.00  0.00     0.026 A 
ATOM     16  C   UNK d   1       4.763 -21.540 -41.279  0.00  0.00     0.034 A 
ATOM     17 Cl   UNK d   1       5.454 -22.711 -42.399  0.00  0.00    -0.084 Cl
ATOM     18  C   UNK d   1       3.450 -21.632 -40.864  0.00  0.00     0.026 A 
ATOM     19  C   UNK d   1       2.919 -20.707 -39.986  0.00  0.00     0.032 A 
ENDBRANCH   1  13
BRANCH   8  20
ATOM     20  C   UNK d   1       1.006 -14.674 -38.043  0.00  0.00     0.189 C 
BRANCH  20  21
ATOM     21  C   UNK d   1       2.018 -13.643 -38.359  0.00  0.00    -0.038 A 
ATOM     22  C   UNK d   1       2.560 -13.585 -39.619  0.00  0.00     0.009 A 
ATOM     23  C   UNK d   1       3.503 -12.620 -39.890  0.00  0.00     0.001 A 
ATOM     24  C   UNK d   1       3.910 -11.716 -38.925  0.00  0.00     0.000 A 
ATOM     25  C   UNK d   1       3.368 -11.774 -37.661  0.00  0.00     0.001 A 
ATOM     26  C   UNK d   1       2.432 -12.738 -37.408  0.00  0.00     0.009 A 
ENDBRANCH  20  21
ENDBRANCH   8  20
TORSDOF 3
ENDMDL
