MODEL 1
REMARK VINA RESULT:    -6.796      0.000      0.000
REMARK INTER + INTRA:          -8.615
REMARK INTER:                  -7.988
REMARK INTRA:                  -0.627
REMARK UNBOUND:                -0.627
REMARK  3 active torsions:
REMARK  status: ('A' for Active; 'I' for Inactive)
REMARK    1  A    between atoms: S_1  and  N_4 
REMARK    2  A    between atoms: S_1  and  C_26 
REMARK       I    between atoms: N_7  and  C_10 
REMARK    3  A    between atoms: C_12  and  N_13 
ROOT
ATOM      1  N   UNK d   1       3.100 -19.467 -39.019  0.00  0.00    -0.303 N 
ATOM      2  C   UNK d   1       2.843 -18.386 -38.148  0.00  0.00     0.155 C 
ATOM      3  C   UNK d   1       1.568 -17.680 -38.655  0.00  0.00     0.145 C 
ATOM      4  N   UNK d   1       0.527 -18.637 -38.379  0.00  0.00    -0.358 N 
ATOM      5  C   UNK d   1       0.658 -19.860 -39.201  0.00  0.00     0.145 C 
ATOM      6  C   UNK d   1       2.047 -20.314 -39.392  0.00  0.00     0.155 C 
ATOM      7  C   UNK d   1      -0.534 -18.557 -37.479  0.00  0.00     0.172 C 
ATOM      8  O   UNK d   1      -1.295 -19.634 -37.485  0.00  0.00    -0.175 OA
ATOM      9  C   UNK d   1      -0.992 -17.568 -36.538  0.00  0.00     0.224 C 
ENDROOT
BRANCH   9  10
ATOM     10  N   UNK d   1      -0.270 -16.336 -36.438  0.00  0.00    -0.260 N 
ATOM     11  C   UNK d   1       0.970 -16.151 -35.754  0.00  0.00     0.326 C 
ATOM     12  O   UNK d   1       1.576 -17.085 -35.125  0.00  0.00    -0.247 OA
ATOM     13  N   UNK d   1       1.363 -14.804 -35.908  0.00  0.00    -0.324 N 
ATOM     14  C   UNK d   1       0.598 -14.232 -37.005  0.00  0.00     0.119 C 
ATOM     15  H   UNK d   1       2.066 -14.292 -35.353  0.00  0.00     0.165 HD
ATOM     16  C   UNK d   1       0.205 -12.811 -36.800  0.00  0.00     0.019 C 
ATOM     17  C   UNK d   1       1.414 -14.436 -38.262  0.00  0.00     0.041 C 
ATOM     18  C   UNK d   1      -0.632 -15.079 -37.014  0.00  0.00     0.257 C 
ATOM     19  C   UNK d   1       0.196 -12.131 -38.174  0.00  0.00     0.007 C 
ATOM     20  C   UNK d   1      -1.185 -12.630 -36.234  0.00  0.00     0.013 C 
ATOM     21  C   UNK d   1       1.651 -11.959 -38.564  0.00  0.00     0.001 C 
ATOM     22  C   UNK d   1       2.379 -13.263 -38.350  0.00  0.00     0.003 C 
ATOM     23  O   UNK d   1      -1.758 -14.757 -37.440  0.00  0.00    -0.270 OA
ENDBRANCH   9  10
BRANCH   1  24
ATOM     24  S   UNK d   1       4.610 -20.230 -38.788  0.00  0.00     0.267 S 
ATOM     25  O   UNK d   1       5.534 -19.503 -37.894  0.00  0.00    -0.200 OA
ATOM     26  O   UNK d   1       4.356 -21.601 -38.209  0.00  0.00    -0.200 OA
BRANCH  24  27
ATOM     27  C   UNK d   1       5.348 -20.427 -40.387  0.00  0.00     0.121 A 
ATOM     28  S   UNK d   1       5.766 -21.848 -41.229  0.00  0.00    -0.064 SA
ATOM     29  C   UNK d   1       6.402 -21.150 -42.645  0.00  0.00     0.075 A 
ATOM     30  C   UNK d   1       6.270 -19.805 -42.418  0.00  0.00     0.033 A 
ATOM     31 Cl   UNK d   1       7.074 -21.964 -44.067  0.00  0.00    -0.076 Cl
ATOM     32  C   UNK d   1       5.723 -19.437 -41.246  0.00  0.00     0.035 A 
ENDBRANCH  24  27
ENDBRANCH   1  24
TORSDOF 3
ENDMDL
