/Users/jonathanwahrer/Desktop/Msc/3_Semester/Drug_Design_Praktikum/waehrer_HTS_screening/HTS_experiment/out/docking_results/vina_output/6y4q/1895_docked.pdbqt
 OpenBabel03232218463D

 32 35  0  0  1  0  0  0  0  0999 V2000
    3.1000  -19.4670  -39.0190 N   0  0  0  0  0  0  0  0  0  0  0  0
    2.8430  -18.3860  -38.1480 C   0  0  0  0  0  2  0  0  0  0  0  0
    1.5680  -17.6800  -38.6550 C   0  0  0  0  0  2  0  0  0  0  0  0
    0.5270  -18.6370  -38.3790 N   0  0  0  0  0  0  0  0  0  0  0  0
    0.6580  -19.8600  -39.2010 C   0  0  0  0  0  2  0  0  0  0  0  0
    2.0470  -20.3140  -39.3920 C   0  0  0  0  0  2  0  0  0  0  0  0
   -0.5340  -18.5570  -37.4790 C   0  0  0  0  0  0  0  0  0  0  0  0
   -1.2950  -19.6340  -37.4850 O   0  0  0  0  0  0  0  0  0  0  0  0
   -0.9920  -17.5680  -36.5380 C   0  0  0  0  0  2  0  0  0  0  0  0
   -0.2700  -16.3360  -36.4380 N   0  0  0  0  0  0  0  0  0  0  0  0
    0.9700  -16.1510  -35.7540 C   0  0  0  0  0  0  0  0  0  0  0  0
    1.5760  -17.0850  -35.1250 O   0  0  0  0  0  0  0  0  0  0  0  0
    1.3630  -14.8040  -35.9080 N   0  0  0  0  0  0  0  0  0  0  0  0
    0.5980  -14.2320  -37.0050 C   0  0  1  0  0  0  0  0  0  0  0  0
    2.0660  -14.2920  -35.3530 H   0  0  0  0  0  0  0  0  0  0  0  0
    0.2050  -12.8110  -36.8000 C   0  0  1  0  0  3  0  0  0  0  0  0
    1.4140  -14.4360  -38.2620 C   0  0  0  0  0  2  0  0  0  0  0  0
   -0.6320  -15.0790  -37.0140 C   0  0  0  0  0  0  0  0  0  0  0  0
    0.1960  -12.1310  -38.1740 C   0  0  0  0  0  2  0  0  0  0  0  0
   -1.1850  -12.6300  -36.2340 C   0  0  0  0  0  1  0  0  0  0  0  0
    1.6510  -11.9590  -38.5640 C   0  0  0  0  0  2  0  0  0  0  0  0
    2.3790  -13.2630  -38.3500 C   0  0  0  0  0  2  0  0  0  0  0  0
   -1.7580  -14.7570  -37.4400 O   0  0  0  0  0  0  0  0  0  0  0  0
    4.6100  -20.2300  -38.7880 S   0  0  0  0  0  0  0  0  0  0  0  0
    5.5340  -19.5030  -37.8940 O   0  0  0  0  0  0  0  0  0  0  0  0
    4.3560  -21.6010  -38.2090 O   0  0  0  0  0  0  0  0  0  0  0  0
    5.3480  -20.4270  -40.3870 C   0  0  0  0  0  0  0  0  0  0  0  0
    5.7660  -21.8480  -41.2290 S   0  0  0  0  0  0  0  0  0  0  0  0
    6.4020  -21.1500  -42.6450 C   0  0  0  0  0  0  0  0  0  0  0  0
    6.2700  -19.8050  -42.4180 C   0  0  0  0  0  3  0  0  0  0  0  0
    7.0740  -21.9640  -44.0670 Cl  0  0  0  0  0  0  0  0  0  0  0  0
    5.7230  -19.4370  -41.2460 C   0  0  0  0  0  3  0  0  0  0  0  0
  1 24  1  0  0  0  0
  1  2  1  0  0  0  0
  3  4  1  0  0  0  0
  3  2  1  0  0  0  0
  4  7  1  0  0  0  0
  5  4  1  0  0  0  0
  6  5  1  0  0  0  0
  6  1  1  0  0  0  0
  7  9  1  0  0  0  0
  8  7  2  0  0  0  0
  9 10  1  0  0  0  0
 10 11  1  0  0  0  0
 11 12  2  0  0  0  0
 13 11  1  0  0  0  0
 13 15  1  0  0  0  0
 14 17  1  6  0  0  0
 14 16  1  0  0  0  0
 14 13  1  0  0  0  0
 16 20  1  6  0  0  0
 18 14  1  0  0  0  0
 18 10  1  0  0  0  0
 19 16  1  0  0  0  0
 21 22  1  0  0  0  0
 21 19  1  0  0  0  0
 22 17  1  0  0  0  0
 23 18  2  0  0  0  0
 24 26  2  0  0  0  0
 24 25  2  0  0  0  0
 27 24  1  0  0  0  0
 28 27  1  0  0  0  0
 29 30  2  0  0  0  0
 29 28  1  0  0  0  0
 30 32  1  0  0  0  0
 31 29  1  0  0  0  0
 32 27  2  0  0  0  0
M  END
>  <Pose>
1

>  <Score>
-6.796

$$$$
