MODEL 1
REMARK VINA RESULT:    -6.541      0.000      0.000
REMARK INTER + INTRA:         -10.454
REMARK INTER:                  -8.835
REMARK INTRA:                  -1.618
REMARK UNBOUND:                -1.618
REMARK  6 active torsions:
REMARK  status: ('A' for Active; 'I' for Inactive)
REMARK    1  A    between atoms: C_4  and  O_8 
REMARK    2  A    between atoms: O_8  and  C_9 
REMARK    3  A    between atoms: C_9  and  C_10 
REMARK    4  A    between atoms: C_10  and  C_25 
REMARK       I    between atoms: N_14  and  C_16 
REMARK    5  A    between atoms: C_16  and  C_18 
REMARK    6  A    between atoms: C_25  and  C_26 
REMARK       I    between atoms: C_26  and  N_28 
ROOT
ATOM      1  C   UNK d   1       1.357 -16.402 -39.695  0.00  0.00     0.107 C 
ATOM      2  O   UNK d   1      -0.045 -16.377 -39.743  0.00  0.00    -0.374 OA
ATOM      3  C   UNK d   1      -0.579 -16.704 -40.959  0.00  0.00     0.189 C 
ATOM      4  C   UNK d   1      -0.430 -18.166 -41.327  0.00  0.00     0.151 C 
ATOM      5  N   UNK d   1       0.927 -18.520 -40.836  0.00  0.00    -0.353 N 
ATOM      6  C   UNK d   1       1.821 -17.431 -40.742  0.00  0.00     0.165 C 
ATOM      7  C   UNK d   1       1.183 -19.840 -40.526  0.00  0.00     0.207 C 
ATOM      8  O   UNK d   1       0.253 -20.738 -40.667  0.00  0.00    -0.170 OA
ENDROOT
BRANCH   1   9
ATOM      9  C   UNK d   1       1.807 -15.065 -40.210  0.00  0.00     0.215 C 
BRANCH   9  10
ATOM     10  O   UNK d   1       2.043 -14.064 -39.393  0.00  0.00    -0.348 OA
BRANCH  10  11
ATOM     11  C   UNK d   1       2.779 -13.079 -38.968  0.00  0.00     0.070 A 
ATOM     12  C   UNK d   1       3.688 -12.384 -39.724  0.00  0.00     0.060 A 
ATOM     13  C   UNK d   1       4.415 -11.362 -39.176  0.00  0.00     0.036 A 
ATOM     14 Cl   UNK d   1       5.575 -10.490 -40.178  0.00  0.00    -0.084 Cl
ATOM     15  C   UNK d   1       4.265 -10.990 -37.853  0.00  0.00     0.024 A 
ATOM     16  C   UNK d   1       3.356 -11.682 -37.096  0.00  0.00     0.004 A 
ATOM     17  C   UNK d   1       2.627 -12.697 -37.621  0.00  0.00     0.037 A 
ENDBRANCH  10  11
ENDBRANCH   9  10
ENDBRANCH   1   9
BRANCH   1  18
ATOM     18  C   UNK d   1       1.765 -16.760 -38.340  0.00  0.00     0.144 C 
BRANCH  18  19
ATOM     19  C   UNK d   1       0.827 -16.528 -37.240  0.00  0.00     0.222 C 
ATOM     20  O   UNK d   1       0.784 -15.428 -36.656  0.00  0.00    -0.273 OA
ATOM     21  N   UNK d   1      -0.066 -17.545 -36.798  0.00  0.00    -0.348 N 
ATOM     22  C   UNK d   1      -0.086 -18.864 -37.421  0.00  0.00     0.152 C 
ATOM     23  C   UNK d   1      -0.995 -17.322 -35.710  0.00  0.00     0.152 C 
ATOM     24  C   UNK d   1      -1.535 -19.204 -37.697  0.00  0.00     0.187 C 
ATOM     25  O   UNK d   1      -2.245 -19.163 -36.492  0.00  0.00    -0.388 OA
ATOM     26  C   UNK d   1      -2.348 -17.834 -36.083  0.00  0.00     0.187 C 
ENDBRANCH  18  19
ENDBRANCH   1  18
BRANCH   7  27
ATOM     27  C   UNK d   1       2.431 -20.343 -40.041  0.00  0.00     0.127 A 
ATOM     28  N   UNK d   1       2.829 -20.244 -38.772  0.00  0.00    -0.253 NA
ATOM     29  C   UNK d   1       4.003 -20.716 -38.308  0.00  0.00     0.144 A 
ATOM     30  C   UNK d   1       4.872 -21.351 -39.181  0.00  0.00     0.048 A 
ATOM     31  N   UNK d   1       4.511 -21.469 -40.448  0.00  0.00    -0.262 NA
ATOM     32  C   UNK d   1       6.150 -21.851 -38.616  0.00  0.00     0.072 C 
ATOM     33  C   UNK d   1       3.336 -20.990 -40.889  0.00  0.00     0.153 A 
ENDBRANCH   7  27
TORSDOF 6
ENDMDL
