MODEL 1
REMARK VINA RESULT:    -5.784      0.000      0.000
REMARK INTER + INTRA:          -8.412
REMARK INTER:                  -7.474
REMARK INTRA:                  -0.938
REMARK UNBOUND:                -0.938
REMARK  5 active torsions:
REMARK  status: ('A' for Active; 'I' for Inactive)
REMARK    1  A    between atoms: C_9  and  N_11 
REMARK    2  A    between atoms: C_14  and  C_17 
REMARK       I    between atoms: C_17  and  N_19 
REMARK    3  A    between atoms: N_19  and  C_20 
REMARK    4  A    between atoms: C_20  and  C_21 
REMARK    5  A    between atoms: C_21  and  N_22 
ROOT
ATOM      1  N   UNK d   1       1.069 -14.314 -37.499  0.00  0.00    -0.364 N 
ATOM      2  C   UNK d   1      -0.241 -14.347 -38.107  0.00  0.00     0.125 C 
ATOM      3  C   UNK d   1      -1.246 -15.144 -37.319  0.00  0.00     0.034 C 
ATOM      4  C   UNK d   1      -0.631 -16.429 -36.884  0.00  0.00     0.081 C 
ATOM      5  C   UNK d   1       0.498 -16.159 -35.950  0.00  0.00     0.034 C 
ATOM      6  C   UNK d   1       1.419 -15.058 -36.329  0.00  0.00     0.125 C 
ENDROOT
BRANCH   4   7
ATOM      7  C   UNK d   1      -0.306 -17.310 -38.007  0.00  0.00     0.222 C 
ATOM      8  O   UNK d   1      -1.240 -17.704 -38.748  0.00  0.00    -0.273 OA
ATOM      9  N   UNK d   1       1.005 -17.741 -38.296  0.00  0.00    -0.359 N 
ATOM     10  H   UNK d   1       1.795 -17.408 -37.670  0.00  0.00     0.162 HD
BRANCH   9  11
ATOM     11  C   UNK d   1       1.339 -18.611 -39.400  0.00  0.00     0.152 C 
BRANCH  11  12
ATOM     12  C   UNK d   1       1.535 -20.045 -38.999  0.00  0.00     0.292 C 
BRANCH  12  13
ATOM     13  N   UNK d   1       2.941 -20.341 -38.787  0.00  0.00     0.094 N 
ATOM     14  C   UNK d   1       3.310 -20.340 -37.412  0.00  0.00     0.298 C 
ATOM     15  C   UNK d   1       4.171 -19.135 -37.094  0.00  0.00     0.198 C 
ATOM     16  O   UNK d   1       5.334 -19.248 -37.815  0.00  0.00    -0.388 OA
ATOM     17  C   UNK d   1       5.193 -19.419 -39.166  0.00  0.00     0.198 C 
ATOM     18  C   UNK d   1       3.804 -19.631 -39.661  0.00  0.00     0.298 C 
ENDBRANCH  12  13
ENDBRANCH  11  12
ENDBRANCH   9  11
ENDBRANCH   4   7
BRANCH   1  19
ATOM     19  C   UNK d   1       2.053 -13.502 -38.100  0.00  0.00     0.160 A 
ATOM     20  C   UNK d   1       2.440 -13.717 -39.396  0.00  0.00     0.128 A 
ATOM     21  C   UNK d   1       3.404 -12.894 -39.997  0.00  0.00     0.184 A 
ATOM     22  N   UNK d   1       2.091 -14.621 -40.325  0.00  0.00    -0.345 N 
ATOM     23  N   UNK d   1       3.921 -11.907 -39.261  0.00  0.00    -0.196 NA
ATOM     24  N   UNK d   1       3.619 -13.297 -41.243  0.00  0.00    -0.222 NA
ATOM     25  C   UNK d   1       3.552 -11.688 -37.997  0.00  0.00     0.227 A 
ATOM     26 Cl   UNK d   1       4.265 -10.387 -37.101  0.00  0.00    -0.041 Cl
ATOM     27  N   UNK d   1       2.634 -12.469 -37.421  0.00  0.00    -0.198 NA
ATOM     28  C   UNK d   1       2.809 -14.349 -41.423  0.00  0.00     0.210 A 
ATOM     29  H   UNK d   1       1.388 -15.382 -40.173  0.00  0.00     0.167 HD
ENDBRANCH   1  19
TORSDOF 5
ENDMDL
