/Users/jonathanwahrer/Desktop/Msc/3_Semester/Drug_Design_Praktikum/waehrer_HTS_screening/HTS_experiment/out/docking_results/vina_output/6y4q/1913_docked.pdbqt
 OpenBabel03232218473D

 29 32  0  0  1  0  0  0  0  0999 V2000
    1.0690  -14.3140  -37.4990 N   0  0  0  0  0  0  0  0  0  0  0  0
   -0.2410  -14.3470  -38.1070 C   0  0  0  0  0  2  0  0  0  0  0  0
   -1.2460  -15.1440  -37.3190 C   0  0  0  0  0  2  0  0  0  0  0  0
   -0.6310  -16.4290  -36.8840 C   0  0  2  0  0  3  0  0  0  0  0  0
    0.4980  -16.1590  -35.9500 C   0  0  0  0  0  3  0  0  0  0  0  0
    1.4190  -15.0580  -36.3290 C   0  0  0  0  0  3  0  0  0  0  0  0
   -0.3060  -17.3100  -38.0070 C   0  0  0  0  0  0  0  0  0  0  0  0
   -1.2400  -17.7040  -38.7480 O   0  0  0  0  0  0  0  0  0  0  0  0
    1.0050  -17.7410  -38.2960 N   0  0  0  0  0  0  0  0  0  0  0  0
    1.7950  -17.4080  -37.6700 H   0  0  0  0  0  0  0  0  0  0  0  0
    1.3390  -18.6110  -39.4000 C   0  0  0  0  0  2  0  0  0  0  0  0
    1.5350  -20.0450  -38.9990 C   0  0  0  0  0  2  0  0  0  0  0  0
    2.9410  -20.3410  -38.7870 N   0  0  0  0  0  0  0  0  0  0  0  0
    3.3100  -20.3400  -37.4120 C   0  0  0  0  0  2  0  0  0  0  0  0
    4.1710  -19.1350  -37.0940 C   0  0  0  0  0  2  0  0  0  0  0  0
    5.3340  -19.2480  -37.8150 O   0  0  0  0  0  0  0  0  0  0  0  0
    5.1930  -19.4190  -39.1660 C   0  0  0  0  0  2  0  0  0  0  0  0
    3.8040  -19.6310  -39.6610 C   0  0  0  0  0  2  0  0  0  0  0  0
    2.0530  -13.5020  -38.1000 C   0  0  0  0  0  0  0  0  0  0  0  0
    2.4400  -13.7170  -39.3960 C   0  0  0  0  0  0  0  0  0  0  0  0
    3.4040  -12.8940  -39.9970 C   0  0  0  0  0  0  0  0  0  0  0  0
    2.0910  -14.6210  -40.3250 N   0  0  0  0  0  0  0  0  0  0  0  0
    3.9210  -11.9070  -39.2610 N   0  0  0  0  0  4  0  0  0  0  0  0
    3.6190  -13.2970  -41.2430 N   0  0  0  0  0  0  0  0  0  0  0  0
    3.5520  -11.6880  -37.9970 C   0  0  0  0  0  0  0  0  0  0  0  0
    4.2650  -10.3870  -37.1010 Cl  0  0  0  0  0  0  0  0  0  0  0  0
    2.6340  -12.4690  -37.4210 N   0  0  0  0  0  2  0  0  0  0  0  0
    2.8090  -14.3490  -41.4230 C   0  0  0  0  0  3  0  0  0  0  0  0
    1.3880  -15.3820  -40.1730 H   0  0  0  0  0  0  0  0  0  0  0  0
  1  6  1  0  0  0  0
  2  1  1  0  0  0  0
  2  3  1  0  0  0  0
  3  4  1  0  0  0  0
  4  7  1  6  0  0  0
  4  5  1  0  0  0  0
  6  5  2  0  0  0  0
  8  7  2  0  0  0  0
  9  7  1  0  0  0  0
  9 10  1  0  0  0  0
 11 12  1  0  0  0  0
 11  9  1  0  0  0  0
 12 13  1  0  0  0  0
 13 14  1  0  0  0  0
 14 15  1  0  0  0  0
 16 15  1  0  0  0  0
 17 16  1  0  0  0  0
 18 17  1  0  0  0  0
 18 13  1  0  0  0  0
 19  1  1  0  0  0  0
 19 27  1  0  0  0  0
 20 19  2  0  0  0  0
 21 20  1  0  0  0  0
 21 23  2  0  0  0  0
 22 29  1  0  0  0  0
 22 20  1  0  0  0  0
 23 25  2  0  0  0  0
 24 21  1  0  0  0  0
 25 27  1  0  0  0  0
 25 26  1  0  0  0  0
 28 24  2  0  0  0  0
 28 22  1  0  0  0  0
M  END
>  <Pose>
1

>  <Score>
-5.784

$$$$
