MODEL 1
REMARK VINA RESULT:    -6.960      0.000      0.000
REMARK INTER + INTRA:          -9.433
REMARK INTER:                  -8.994
REMARK INTRA:                  -0.439
REMARK UNBOUND:                -0.439
REMARK  5 active torsions:
REMARK  status: ('A' for Active; 'I' for Inactive)
REMARK    1  A    between atoms: C_5  and  C_8 
REMARK    2  A    between atoms: C_11  and  C_13 
REMARK    3  A    between atoms: C_13  and  N_14 
REMARK    4  A    between atoms: C_22  and  C_24 
REMARK    5  A    between atoms: C_24  and  O_26 
ROOT
ATOM      1  N   UNK d   1       0.726 -16.898 -36.885  0.00  0.00    -0.357 N 
ATOM      2  C   UNK d   1      -0.012 -17.520 -37.828  0.00  0.00     0.110 A 
ATOM      3  C   UNK d   1       0.479 -18.612 -38.498  0.00  0.00     0.080 A 
ATOM      4  C   UNK d   1       1.824 -19.103 -38.178  0.00  0.00     0.111 A 
ATOM      5  N   UNK d   1       2.042 -20.170 -38.977  0.00  0.00    -0.170 NA
ATOM      6  N   UNK d   1       0.984 -20.371 -39.736  0.00  0.00    -0.242 N 
ATOM      7  C   UNK d   1       0.019 -19.472 -39.494  0.00  0.00     0.275 A 
ATOM      8  O   UNK d   1      -1.106 -19.384 -40.041  0.00  0.00    -0.266 OA
ATOM      9  C   UNK d   1       2.539 -18.436 -37.207  0.00  0.00     0.086 A 
ATOM     10  C   UNK d   1       1.944 -17.360 -36.609  0.00  0.00     0.111 A 
ATOM     11  H   UNK d   1       0.909 -21.134 -40.434  0.00  0.00     0.192 HD
ENDROOT
BRANCH   1  12
ATOM     12  C   UNK d   1       0.151 -15.738 -36.202  0.00  0.00     0.216 C 
BRANCH  12  13
ATOM     13  C   UNK d   1       0.926 -14.526 -36.533  0.00  0.00     0.191 A 
ATOM     14  O   UNK d   1       0.931 -13.429 -35.817  0.00  0.00    -0.194 OA
ATOM     15  N   UNK d   1       1.713 -12.559 -36.382  0.00  0.00    -0.105 NA
ATOM     16  C   UNK d   1       2.247 -13.074 -37.501  0.00  0.00     0.189 A 
ATOM     17  N   UNK d   1       1.750 -14.315 -37.595  0.00  0.00    -0.202 NA
BRANCH  16  18
ATOM     18  C   UNK d   1       3.169 -12.386 -38.393  0.00  0.00     0.014 A 
ATOM     19  C   UNK d   1       3.298 -12.743 -39.715  0.00  0.00     0.017 A 
ATOM     20  C   UNK d   1       4.171 -12.097 -40.571  0.00  0.00     0.025 A 
ATOM     21  C   UNK d   1       4.955 -11.054 -40.113  0.00  0.00     0.034 A 
ATOM     22 Cl   UNK d   1       6.070 -10.218 -41.180  0.00  0.00    -0.084 Cl
ATOM     23  C   UNK d   1       4.828 -10.692 -38.780  0.00  0.00     0.025 A 
ATOM     24  C   UNK d   1       3.949 -11.346 -37.931  0.00  0.00     0.017 A 
ENDBRANCH  16  18
ENDBRANCH  12  13
ENDBRANCH   1  12
BRANCH   9  25
ATOM     25  C   UNK d   1       3.884 -18.897 -36.861  0.00  0.00     0.296 C 
ATOM     26  O   UNK d   1       4.254 -18.940 -35.679  0.00  0.00    -0.259 OA
BRANCH  25  27
ATOM     27  O   UNK d   1       4.776 -19.296 -37.841  0.00  0.00    -0.322 OA
ATOM     28  C   UNK d   1       6.172 -19.148 -37.733  0.00  0.00     0.213 C 
ENDBRANCH  25  27
ENDBRANCH   9  25
TORSDOF 5
ENDMDL
