MODEL 1
REMARK VINA RESULT:    -5.710      0.000      0.000
REMARK INTER + INTRA:          -7.026
REMARK INTER:                  -7.045
REMARK INTRA:                   0.019
REMARK UNBOUND:                 0.019
REMARK  4 active torsions:
REMARK  status: ('A' for Active; 'I' for Inactive)
REMARK    1  A    between atoms: C_6  and  C_11 
REMARK    2  A    between atoms: C_11  and  N_12 
REMARK       I    between atoms: N_12  and  C_13 
REMARK    3  A    between atoms: C_13  and  C_15 
REMARK    4  A    between atoms: C_15  and  N_18 
ROOT
ATOM      1  N   UNK d   1       1.368 -14.683 -37.417  0.00  0.00    -0.352 N 
ATOM      2  C   UNK d   1       1.497 -13.415 -36.818  0.00  0.00     0.246 C 
ATOM      3  O   UNK d   1       1.279 -13.328 -35.597  0.00  0.00    -0.271 OA
ATOM      4  H   UNK d   1       1.546 -14.778 -38.444  0.00  0.00     0.162 HD
ENDROOT
BRANCH   1   5
ATOM      5  C   UNK d   1       0.994 -15.869 -36.670  0.00  0.00     0.201 C 
BRANCH   5   6
ATOM      6  C   UNK d   1       1.652 -17.080 -37.271  0.00  0.00     0.123 A 
ATOM      7  N   UNK d   1       2.739 -17.726 -36.807  0.00  0.00    -0.232 NA
ATOM      8  C   UNK d   1       3.047 -18.768 -37.599  0.00  0.00     0.087 A 
ATOM      9  C   UNK d   1       4.017 -19.746 -37.615  0.00  0.00     0.057 A 
ATOM     10  C   UNK d   1       2.100 -18.786 -38.628  0.00  0.00     0.062 A 
ATOM     11  C   UNK d   1       4.105 -20.733 -38.582  0.00  0.00     0.036 A 
ATOM     12 Cl   UNK d   1       5.368 -21.962 -38.553  0.00  0.00    -0.084 Cl
ATOM     13  C   UNK d   1       3.150 -20.726 -39.593  0.00  0.00     0.026 A 
ATOM     14  C   UNK d   1       2.175 -19.760 -39.595  0.00  0.00     0.034 A 
ATOM     15  N   UNK d   1       1.282 -17.744 -38.377  0.00  0.00    -0.341 N 
ATOM     16  H   UNK d   1       0.462 -17.482 -38.970  0.00  0.00     0.167 HD
ENDBRANCH   5   6
ENDBRANCH   1   5
BRANCH   2  17
ATOM     17  C   UNK d   1       1.874 -12.208 -37.573  0.00  0.00     0.110 A 
ATOM     18  C   UNK d   1       3.247 -11.702 -37.355  0.00  0.00     0.044 A 
ATOM     19  C   UNK d   1       3.018 -12.430 -38.620  0.00  0.00     0.044 A 
BRANCH  17  20
ATOM     20  N   UNK d   1       0.854 -11.350 -38.097  0.00  0.00    -0.392 N 
ATOM     21  C   UNK d   1       0.693 -10.103 -37.459  0.00  0.00     0.144 C 
ATOM     22  C   UNK d   1      -0.457 -10.236 -36.467  0.00  0.00     0.187 C 
ATOM     23  O   UNK d   1      -1.646 -10.383 -37.141  0.00  0.00    -0.388 OA
ATOM     24  C   UNK d   1      -1.551 -11.015 -38.356  0.00  0.00     0.187 C 
ATOM     25  C   UNK d   1      -0.367 -11.957 -38.435  0.00  0.00     0.144 C 
ENDBRANCH  17  20
ENDBRANCH   2  17
TORSDOF 4
ENDMDL
