/Users/jonathanwahrer/Desktop/Msc/3_Semester/Drug_Design_Praktikum/waehrer_HTS_screening/HTS_experiment/out/docking_results/vina_output/6y4q/1936_docked.pdbqt
 OpenBabel03232218483D

 25 28  0  0  0  0  0  0  0  0999 V2000
    1.3680  -14.6830  -37.4170 N   0  0  0  0  0  0  0  0  0  0  0  0
    1.4970  -13.4150  -36.8180 C   0  0  0  0  0  0  0  0  0  0  0  0
    1.2790  -13.3280  -35.5970 O   0  0  0  0  0  0  0  0  0  0  0  0
    1.5460  -14.7780  -38.4440 H   0  0  0  0  0  0  0  0  0  0  0  0
    0.9940  -15.8690  -36.6700 C   0  0  0  0  0  2  0  0  0  0  0  0
    1.6520  -17.0800  -37.2710 C   0  0  0  0  0  0  0  0  0  0  0  0
    2.7390  -17.7260  -36.8070 N   0  0  0  0  0  0  0  0  0  0  0  0
    3.0470  -18.7680  -37.5990 C   0  0  0  0  0  0  0  0  0  0  0  0
    4.0170  -19.7460  -37.6150 C   0  0  0  0  0  3  0  0  0  0  0  0
    2.1000  -18.7860  -38.6280 C   0  0  0  0  0  0  0  0  0  0  0  0
    4.1050  -20.7330  -38.5820 C   0  0  0  0  0  0  0  0  0  0  0  0
    5.3680  -21.9620  -38.5530 Cl  0  0  0  0  0  0  0  0  0  0  0  0
    3.1500  -20.7260  -39.5930 C   0  0  0  0  0  3  0  0  0  0  0  0
    2.1750  -19.7600  -39.5950 C   0  0  0  0  0  3  0  0  0  0  0  0
    1.2820  -17.7440  -38.3770 N   0  0  0  0  0  0  0  0  0  0  0  0
    0.4620  -17.4820  -38.9700 H   0  0  0  0  0  0  0  0  0  0  0  0
    1.8740  -12.2080  -37.5730 C   0  0  0  0  0  0  0  0  0  0  0  0
    3.2470  -11.7020  -37.3550 C   0  0  0  0  0  2  0  0  0  0  0  0
    3.0180  -12.4300  -38.6200 C   0  0  0  0  0  2  0  0  0  0  0  0
    0.8540  -11.3500  -38.0970 N   0  0  0  0  0  0  0  0  0  0  0  0
    0.6930  -10.1030  -37.4590 C   0  0  0  0  0  2  0  0  0  0  0  0
   -0.4570  -10.2360  -36.4670 C   0  0  0  0  0  2  0  0  0  0  0  0
   -1.6460  -10.3830  -37.1410 O   0  0  0  0  0  0  0  0  0  0  0  0
   -1.5510  -11.0150  -38.3560 C   0  0  0  0  0  2  0  0  0  0  0  0
   -0.3670  -11.9570  -38.4350 C   0  0  0  0  0  2  0  0  0  0  0  0
  1  2  1  0  0  0  0
  1  5  1  0  0  0  0
  2  3  2  0  0  0  0
  4  1  1  0  0  0  0
  6  7  2  0  0  0  0
  6  5  1  0  0  0  0
  8  7  1  0  0  0  0
  9  8  1  0  0  0  0
 10 15  1  0  0  0  0
 10  8  2  0  0  0  0
 11 12  1  0  0  0  0
 11  9  2  0  0  0  0
 13 11  1  0  0  0  0
 14 13  2  0  0  0  0
 14 10  1  0  0  0  0
 15  6  1  0  0  0  0
 16 15  1  0  0  0  0
 17 18  1  0  0  0  0
 17  2  1  0  0  0  0
 19 17  1  0  0  0  0
 19 18  1  0  0  0  0
 20 17  1  0  0  0  0
 20 21  1  0  0  0  0
 21 22  1  0  0  0  0
 23 22  1  0  0  0  0
 24 23  1  0  0  0  0
 25 24  1  0  0  0  0
 25 20  1  0  0  0  0
M  END
>  <Pose>
1

>  <Score>
-5.710

$$$$
