MODEL 1
REMARK VINA RESULT:    -6.575      0.000      0.000
REMARK INTER + INTRA:          -7.227
REMARK INTER:                  -6.960
REMARK INTRA:                  -0.268
REMARK UNBOUND:                -0.268
REMARK  1 active torsions:
REMARK  status: ('A' for Active; 'I' for Inactive)
REMARK    1  A    between atoms: C_5  and  N_8 
ROOT
ATOM      1  N   UNK d   1       2.606 -18.274 -37.744  0.00  0.00    -0.252 N 
ATOM      2  C   UNK d   1       2.385 -17.437 -36.600  0.00  0.00     0.237 C 
ATOM      3  O   UNK d   1       2.828 -17.750 -35.441  0.00  0.00    -0.272 OA
ATOM      4  C   UNK d   1       1.612 -16.251 -37.001  0.00  0.00     0.104 C 
ATOM      5  C   UNK d   1       0.975 -16.685 -38.299  0.00  0.00     0.104 C 
ATOM      6  C   UNK d   1      -0.529 -16.703 -38.126  0.00  0.00     0.076 C 
ATOM      7  C   UNK d   1      -0.935 -15.233 -37.949  0.00  0.00     0.091 C 
ATOM      8  C   UNK d   1      -0.293 -14.798 -36.663  0.00  0.00     0.133 C 
ATOM      9  O   UNK d   1      -0.503 -13.703 -36.215  0.00  0.00    -0.298 OA
ATOM     10  C   UNK d   1       0.608 -15.802 -35.996  0.00  0.00     0.076 C 
ATOM     11  C   UNK d   1      -0.305 -16.966 -35.595  0.00  0.00     0.091 C 
ATOM     12  C   UNK d   1      -0.943 -17.430 -36.877  0.00  0.00     0.133 C 
ATOM     13  O   UNK d   1      -1.735 -18.331 -36.861  0.00  0.00    -0.298 OA
ATOM     14  C   UNK d   1       1.555 -17.979 -38.654  0.00  0.00     0.237 C 
ATOM     15  O   UNK d   1       1.187 -18.708 -39.603  0.00  0.00    -0.272 OA
ENDROOT
BRANCH   1  16
ATOM     16  C   UNK d   1       3.657 -19.211 -37.951  0.00  0.00     0.045 A 
ATOM     17  C   UNK d   1       4.975 -18.807 -37.852  0.00  0.00     0.032 A 
ATOM     18  C   UNK d   1       6.026 -19.676 -38.042  0.00  0.00     0.026 A 
ATOM     19  C   UNK d   1       5.805 -20.998 -38.341  0.00  0.00     0.034 A 
ATOM     20 Cl   UNK d   1       7.140 -22.118 -38.584  0.00  0.00    -0.084 Cl
ATOM     21  C   UNK d   1       4.491 -21.425 -38.445  0.00  0.00     0.026 A 
ATOM     22  C   UNK d   1       3.455 -20.540 -38.252  0.00  0.00     0.032 A 
ENDBRANCH   1  16
TORSDOF 1
ENDMDL
