MODEL 1
REMARK VINA RESULT:    -6.844      0.000      0.000
REMARK INTER + INTRA:          -9.084
REMARK INTER:                  -8.044
REMARK INTRA:                  -1.040
REMARK UNBOUND:                -1.040
REMARK  3 active torsions:
REMARK  status: ('A' for Active; 'I' for Inactive)
REMARK    1  A    between atoms: C_5  and  N_8 
REMARK    2  A    between atoms: C_14  and  C_18 
REMARK    3  A    between atoms: C_18  and  C_19 
REMARK       I    between atoms: C_19  and  N_21 
ROOT
ATOM      1  N   UNK d   1       0.763 -15.646 -36.840  0.00  0.00    -0.252 N 
ATOM      2  C   UNK d   1       1.593 -15.996 -37.969  0.00  0.00     0.239 C 
ATOM      3  O   UNK d   1       1.920 -15.241 -38.889  0.00  0.00    -0.272 OA
ATOM      4  C   UNK d   1       2.001 -17.403 -37.861  0.00  0.00     0.147 C 
ATOM      5  C   UNK d   1       1.848 -18.226 -39.118  0.00  0.00     0.279 C 
ATOM      6  N   UNK d   1       0.548 -18.850 -39.081  0.00  0.00     0.114 N 
ATOM      7  C   UNK d   1      -0.192 -18.184 -38.028  0.00  0.00     0.245 C 
ATOM      8  C   UNK d   1       0.898 -17.969 -36.998  0.00  0.00     0.129 C 
ATOM      9  C   UNK d   1       0.626 -16.854 -36.072  0.00  0.00     0.238 C 
ATOM     10  O   UNK d   1       0.344 -17.001 -34.880  0.00  0.00    -0.272 OA
ATOM     11  C   UNK d   1       2.952 -19.245 -39.048  0.00  0.00     0.017 A 
ATOM     12  C   UNK d   1       3.863 -18.934 -40.017  0.00  0.00     0.044 A 
ATOM     13  C   UNK d   1       5.051 -19.664 -40.176  0.00  0.00     0.030 A 
ATOM     14  C   UNK d   1       5.326 -20.729 -39.343  0.00  0.00     0.002 A 
ATOM     15  C   UNK d   1       4.413 -21.043 -38.372  0.00  0.00     0.001 A 
ATOM     16  C   UNK d   1       3.250 -20.315 -38.229  0.00  0.00     0.012 A 
ATOM     17  N   UNK d   1       3.394 -17.875 -40.836  0.00  0.00    -0.324 N 
ATOM     18  C   UNK d   1       2.111 -17.510 -40.350  0.00  0.00     0.267 C 
ATOM     19  O   UNK d   1       1.363 -16.697 -40.933  0.00  0.00    -0.270 OA
ATOM     20  H   UNK d   1       0.099 -18.706 -40.017  0.00  0.00     0.318 HD
ATOM     21  H   UNK d   1       3.907 -17.437 -41.661  0.00  0.00     0.169 HD
ENDROOT
BRANCH   7  22
ATOM     22  C   UNK d   1      -1.301 -19.042 -37.478  0.00  0.00     0.139 C 
BRANCH  22  23
ATOM     23  C   UNK d   1      -1.668 -20.168 -38.331  0.00  0.00     0.217 C 
ATOM     24  O   UNK d   1      -2.244 -19.978 -39.419  0.00  0.00    -0.274 OA
ATOM     25  N   UNK d   1      -1.370 -21.490 -37.925  0.00  0.00    -0.370 N 
ATOM     26  H   UNK d   1      -0.942 -21.743 -37.002  0.00  0.00     0.159 HD
ATOM     27  H   UNK d   1      -1.564 -22.337 -38.536  0.00  0.00     0.159 HD
ENDBRANCH  22  23
ENDBRANCH   7  22
BRANCH   1  28
ATOM     28  C   UNK d   1       0.197 -14.410 -36.512  0.00  0.00     0.045 A 
ATOM     29  C   UNK d   1       0.920 -13.357 -36.023  0.00  0.00     0.032 A 
ATOM     30  C   UNK d   1       0.356 -12.128 -35.701  0.00  0.00     0.026 A 
ATOM     31  C   UNK d   1      -0.993 -11.940 -35.876  0.00  0.00     0.034 A 
ATOM     32 Cl   UNK d   1      -1.717 -10.391 -35.484  0.00  0.00    -0.084 Cl
ATOM     33  C   UNK d   1      -1.744 -12.967 -36.359  0.00  0.00     0.026 A 
ATOM     34  C   UNK d   1      -1.150 -14.194 -36.675  0.00  0.00     0.032 A 
ENDBRANCH   1  28
TORSDOF 3
ENDMDL
