MODEL 1
REMARK VINA RESULT:    -5.407      0.000      0.000
REMARK INTER + INTRA:          -7.121
REMARK INTER:                  -6.671
REMARK INTRA:                  -0.450
REMARK UNBOUND:                -0.450
REMARK  4 active torsions:
REMARK  status: ('A' for Active; 'I' for Inactive)
REMARK    1  A    between atoms: N_15  and  C_16 
REMARK    2  A    between atoms: C_16  and  C_17 
REMARK       I    between atoms: C_17  and  N_19 
REMARK    3  A    between atoms: N_19  and  C_20 
REMARK    4  A    between atoms: C_20  and  C_21 
ROOT
ATOM      1 Cl   UNK d   1       1.478 -15.131 -42.233  0.00  0.00    -0.084 Cl
ATOM      2  C   UNK d   1       2.357 -16.502 -41.588  0.00  0.00     0.036 A 
ATOM      3  C   UNK d   1       2.011 -17.088 -40.392  0.00  0.00     0.054 A 
ATOM      4  C   UNK d   1       2.722 -18.181 -39.888  0.00  0.00     0.055 A 
ATOM      5  C   UNK d   1       3.790 -18.666 -40.627  0.00  0.00     0.037 A 
ATOM      6  C   UNK d   1       4.147 -18.092 -41.824  0.00  0.00     0.019 A 
ATOM      7  C   UNK d   1       3.443 -17.019 -42.307  0.00  0.00     0.025 A 
ATOM      8  C   UNK d   1       4.568 -19.818 -40.136  0.00  0.00     0.141 A 
ATOM      9  N   UNK d   1       5.583 -20.455 -40.613  0.00  0.00    -0.270 NA
ATOM     10  C   UNK d   1       6.005 -21.534 -39.763  0.00  0.00     0.171 A 
ATOM     11  C   UNK d   1       5.053 -21.487 -38.609  0.00  0.00     0.157 A 
ATOM     12  N   UNK d   1       4.174 -20.387 -38.903  0.00  0.00    -0.281 N 
ATOM     13  C   UNK d   1       3.073 -19.866 -38.168  0.00  0.00     0.331 A 
ATOM     14  O   UNK d   1       2.705 -20.360 -37.065  0.00  0.00    -0.246 OA
ATOM     15  N   UNK d   1       2.312 -18.742 -38.646  0.00  0.00    -0.290 N 
ENDROOT
BRANCH  15  16
ATOM     16  C   UNK d   1       1.189 -18.226 -37.876  0.00  0.00     0.236 C 
BRANCH  16  17
ATOM     17  C   UNK d   1       1.591 -17.058 -37.060  0.00  0.00     0.236 C 
ATOM     18  O   UNK d   1       2.384 -17.248 -36.105  0.00  0.00    -0.272 OA
ATOM     19  N   UNK d   1       1.126 -15.745 -37.306  0.00  0.00    -0.359 N 
ATOM     20  H   UNK d   1       0.470 -15.604 -38.101  0.00  0.00     0.162 HD
BRANCH  19  21
ATOM     21  C   UNK d   1       1.534 -14.623 -36.495  0.00  0.00     0.127 C 
BRANCH  21  22
ATOM     22  C   UNK d   1       1.517 -13.360 -37.314  0.00  0.00     0.003 A 
ATOM     23  C   UNK d   1       2.448 -13.223 -38.466  0.00  0.00     0.007 A 
ATOM     24  C   UNK d   1       2.721 -12.471 -37.220  0.00  0.00     0.007 A 
ENDBRANCH  21  22
ENDBRANCH  19  21
ENDBRANCH  16  17
ENDBRANCH  15  16
TORSDOF 4
ENDMDL
