MODEL 1
REMARK VINA RESULT:    -6.338      0.000      0.000
REMARK INTER + INTRA:         -10.849
REMARK INTER:                  -9.302
REMARK INTRA:                  -1.546
REMARK UNBOUND:                -1.546
REMARK  8 active torsions:
REMARK  status: ('A' for Active; 'I' for Inactive)
REMARK    1  A    between atoms: C_5  and  C_8 
REMARK    2  A    between atoms: C_10  and  C_24 
REMARK    3  A    between atoms: N_11  and  C_16 
REMARK    4  A    between atoms: C_16  and  C_17 
REMARK    5  A    between atoms: C_17  and  N_18 
REMARK    6  A    between atoms: C_27  and  O_30 
REMARK    7  A    between atoms: O_30  and  C_31 
REMARK    8  A    between atoms: C_31  and  C_32 
ROOT
ATOM      1  C   UNK d   1       2.655 -18.466 -37.577  0.00  0.00     0.130 C 
ATOM      2  C   UNK d   1       1.423 -18.131 -37.922  0.00  0.00     0.062 C 
ATOM      3  C   UNK d   1       0.518 -17.210 -37.144  0.00  0.00     0.161 C 
ATOM      4  N   UNK d   1      -0.790 -17.393 -37.705  0.00  0.00    -0.331 N 
ATOM      5  C   UNK d   1      -0.718 -18.130 -38.917  0.00  0.00     0.295 C 
ATOM      6  O   UNK d   1      -1.641 -18.346 -39.715  0.00  0.00    -0.264 OA
ATOM      7  C   UNK d   1       0.682 -18.597 -39.051  0.00  0.00     0.250 C 
ATOM      8  O   UNK d   1       1.107 -19.287 -40.007  0.00  0.00    -0.282 OA
ATOM      9  O   UNK d   1       3.135 -17.903 -36.371  0.00  0.00    -0.190 OA
ENDROOT
BRANCH   3  10
ATOM     10  C   UNK d   1       1.060 -15.835 -37.326  0.00  0.00    -0.030 A 
ATOM     11  C   UNK d   1       1.504 -15.432 -38.552  0.00  0.00     0.012 A 
ATOM     12  C   UNK d   1       1.987 -14.165 -38.712  0.00  0.00     0.037 A 
ATOM     13  C   UNK d   1       2.043 -13.271 -37.665  0.00  0.00     0.068 A 
ATOM     14  C   UNK d   1       1.594 -13.678 -36.422  0.00  0.00     0.037 A 
ATOM     15  C   UNK d   1       1.103 -14.966 -36.265  0.00  0.00     0.012 A 
BRANCH  13  16
ATOM     16  O   UNK d   1       2.537 -11.983 -37.836  0.00  0.00    -0.351 OA
BRANCH  16  17
ATOM     17  C   UNK d   1       3.415 -11.737 -38.945  0.00  0.00     0.175 C 
BRANCH  17  18
ATOM     18  C   UNK d   1       4.607 -10.919 -38.453  0.00  0.00     0.022 C 
ATOM     19  C   UNK d   1       4.200 -10.297 -37.125  0.00  0.00     0.007 C 
ENDBRANCH  17  18
ENDBRANCH  16  17
ENDBRANCH  13  16
ENDBRANCH   3  10
BRANCH   4  20
ATOM     20  C   UNK d   1      -2.033 -16.909 -37.114  0.00  0.00     0.155 C 
BRANCH  20  21
ATOM     21  C   UNK d   1      -2.575 -15.787 -37.930  0.00  0.00     0.255 C 
BRANCH  21  22
ATOM     22  N   UNK d   1      -2.251 -14.481 -37.334  0.00  0.00    -0.066 N 
ATOM     23  C   UNK d   1      -3.440 -13.965 -36.727  0.00  0.00     0.261 C 
ATOM     24  C   UNK d   1      -3.327 -12.472 -36.432  0.00  0.00     0.195 C 
ATOM     25  O   UNK d   1      -3.056 -11.850 -37.664  0.00  0.00    -0.388 OA
ATOM     26  C   UNK d   1      -1.768 -12.193 -38.020  0.00  0.00     0.195 C 
ATOM     27  C   UNK d   1      -1.739 -13.658 -38.408  0.00  0.00     0.261 C 
ATOM     28  H   UNK d   1      -1.506 -14.589 -36.598  0.00  0.00     0.280 HD
ENDBRANCH  21  22
ENDBRANCH  20  21
ENDBRANCH   4  20
BRANCH   1  29
ATOM     29  C   UNK d   1       3.482 -19.351 -38.367  0.00  0.00     0.001 A 
ATOM     30  C   UNK d   1       4.152 -18.851 -39.491  0.00  0.00     0.016 A 
ATOM     31  C   UNK d   1       4.923 -19.648 -40.311  0.00  0.00     0.024 A 
ATOM     32  C   UNK d   1       5.065 -20.990 -40.052  0.00  0.00     0.034 A 
ATOM     33 Cl   UNK d   1       6.027 -22.056 -41.051  0.00  0.00    -0.084 Cl
ATOM     34  C   UNK d   1       4.423 -21.510 -38.965  0.00  0.00     0.024 A 
ATOM     35  C   UNK d   1       3.640 -20.696 -38.133  0.00  0.00     0.016 A 
ENDBRANCH   1  29
TORSDOF 8
ENDMDL
