/Users/jonathanwahrer/Desktop/Msc/3_Semester/Drug_Design_Praktikum/waehrer_HTS_screening/HTS_experiment/out/docking_results/vina_output/6y4q/1956_docked.pdbqt
 OpenBabel03232218503D

 35 38  0  0  1  0  0  0  0  0999 V2000
    2.6550  -18.4660  -37.5770 C   0  0  0  0  0  0  0  0  0  0  0  0
    1.4230  -18.1310  -37.9220 C   0  0  0  0  0  0  0  0  0  0  0  0
    0.5180  -17.2100  -37.1440 C   0  0  2  0  0  3  0  0  0  0  0  0
   -0.7900  -17.3930  -37.7050 N   0  0  0  0  0  0  0  0  0  0  0  0
   -0.7180  -18.1300  -38.9170 C   0  0  0  0  0  0  0  0  0  0  0  0
   -1.6410  -18.3460  -39.7150 O   0  0  0  0  0  0  0  0  0  0  0  0
    0.6820  -18.5970  -39.0510 C   0  0  0  0  0  0  0  0  0  0  0  0
    1.1070  -19.2870  -40.0070 O   0  0  0  0  0  0  0  0  0  0  0  0
    3.1350  -17.9030  -36.3710 O   0  0  0  0  0  1  0  0  0  0  0  0
    1.0600  -15.8350  -37.3260 C   0  0  0  0  0  0  0  0  0  0  0  0
    1.5040  -15.4320  -38.5520 C   0  0  0  0  0  3  0  0  0  0  0  0
    1.9870  -14.1650  -38.7120 C   0  0  0  0  0  3  0  0  0  0  0  0
    2.0430  -13.2710  -37.6650 C   0  0  0  0  0  0  0  0  0  0  0  0
    1.5940  -13.6780  -36.4220 C   0  0  0  0  0  3  0  0  0  0  0  0
    1.1030  -14.9660  -36.2650 C   0  0  0  0  0  3  0  0  0  0  0  0
    2.5370  -11.9830  -37.8360 O   0  0  0  0  0  0  0  0  0  0  0  0
    3.4150  -11.7370  -38.9450 C   0  0  0  0  0  2  0  0  0  0  0  0
    4.6070  -10.9190  -38.4530 C   0  0  0  0  0  2  0  0  0  0  0  0
    4.2000  -10.2970  -37.1250 C   0  0  0  0  0  1  0  0  0  0  0  0
   -2.0330  -16.9090  -37.1140 C   0  0  0  0  0  2  0  0  0  0  0  0
   -2.5750  -15.7870  -37.9300 C   0  0  0  0  0  2  0  0  0  0  0  0
   -2.2510  -14.4810  -37.3340 N   0  0  0  0  0  4  0  0  0  0  0  0
   -3.4400  -13.9650  -36.7270 C   0  0  0  0  0  2  0  0  0  0  0  0
   -3.3270  -12.4720  -36.4320 C   0  0  0  0  0  2  0  0  0  0  0  0
   -3.0560  -11.8500  -37.6640 O   0  0  0  0  0  0  0  0  0  0  0  0
   -1.7680  -12.1930  -38.0200 C   0  0  0  0  0  2  0  0  0  0  0  0
   -1.7390  -13.6580  -38.4080 C   0  0  0  0  0  2  0  0  0  0  0  0
   -1.5060  -14.5890  -36.5980 H   0  0  0  0  0  0  0  0  0  0  0  0
    3.4820  -19.3510  -38.3670 C   0  0  0  0  0  0  0  0  0  0  0  0
    4.1520  -18.8510  -39.4910 C   0  0  0  0  0  3  0  0  0  0  0  0
    4.9230  -19.6480  -40.3110 C   0  0  0  0  0  3  0  0  0  0  0  0
    5.0650  -20.9900  -40.0520 C   0  0  0  0  0  0  0  0  0  0  0  0
    6.0270  -22.0560  -41.0510 Cl  0  0  0  0  0  0  0  0  0  0  0  0
    4.4230  -21.5100  -38.9650 C   0  0  0  0  0  3  0  0  0  0  0  0
    3.6400  -20.6960  -38.1330 C   0  0  0  0  0  3  0  0  0  0  0  0
  1  9  1  0  0  0  0
  2  1  2  0  0  0  0
  2  3  1  0  0  0  0
  3 10  1  6  0  0  0
  4  3  1  0  0  0  0
  4 20  1  0  0  0  0
  5  4  1  0  0  0  0
  6  5  2  0  0  0  0
  7  5  1  0  0  0  0
  7  2  1  0  0  0  0
  8  7  2  0  0  0  0
 10 15  1  0  0  0  0
 11 10  2  0  0  0  0
 12 11  1  0  0  0  0
 12 13  2  0  0  0  0
 13 14  1  0  0  0  0
 14 15  2  0  0  0  0
 16 13  1  0  0  0  0
 17 18  1  0  0  0  0
 17 16  1  0  0  0  0
 18 19  1  0  0  0  0
 21 22  1  0  0  0  0
 21 20  1  0  0  0  0
 22 23  1  0  0  0  0
 22 28  1  0  0  0  0
 23 24  1  0  0  0  0
 25 24  1  0  0  0  0
 26 25  1  0  0  0  0
 27 26  1  0  0  0  0
 27 22  1  0  0  0  0
 29 35  1  0  0  0  0
 29  1  1  0  0  0  0
 30 29  2  0  0  0  0
 31 32  2  0  0  0  0
 31 30  1  0  0  0  0
 32 34  1  0  0  0  0
 33 32  1  0  0  0  0
 34 35  2  0  0  0  0
M  END
>  <Pose>
1

>  <Score>
-6.338

$$$$
