MODEL 1
REMARK VINA RESULT:    -6.161      0.000      0.000
REMARK INTER + INTRA:          -9.799
REMARK INTER:                  -8.502
REMARK INTRA:                  -1.296
REMARK UNBOUND:                -1.296
REMARK  7 active torsions:
REMARK  status: ('A' for Active; 'I' for Inactive)
REMARK    1  A    between atoms: C_5  and  C_8 
REMARK    2  A    between atoms: C_8  and  O_9 
REMARK    3  A    between atoms: C_8  and  C_10 
REMARK    4  A    between atoms: N_17  and  C_20 
REMARK    5  A    between atoms: C_20  and  C_21 
REMARK    6  A    between atoms: C_21  and  C_22 
REMARK    7  A    between atoms: C_22  and  O_23 
ROOT
ATOM      1  C   UNK d   1       0.606 -15.971 -37.158  0.00  0.00     0.269 C 
ATOM      2  N   UNK d   1       1.592 -15.096 -37.779  0.00  0.00     0.116 N 
ATOM      3  C   UNK d   1       1.062 -13.749 -37.701  0.00  0.00     0.279 A 
ATOM      4  C   UNK d   1       0.301 -13.772 -36.407  0.00  0.00     0.147 C 
ATOM      5  C   UNK d   1      -0.298 -15.140 -36.327  0.00  0.00     0.131 C 
ATOM      6  C   UNK d   1      -1.671 -15.019 -36.890  0.00  0.00     0.233 C 
ATOM      7  O   UNK d   1      -2.419 -15.960 -37.245  0.00  0.00    -0.272 OA
ATOM      8  N   UNK d   1      -1.966 -13.606 -36.943  0.00  0.00    -0.287 N 
ATOM      9  C   UNK d   1      -0.882 -12.894 -36.382  0.00  0.00     0.234 C 
ATOM     10  O   UNK d   1      -0.896 -11.722 -35.934  0.00  0.00    -0.272 OA
ATOM     11  C   UNK d   1       2.138 -12.727 -37.686  0.00  0.00     0.017 A 
ATOM     12  C   UNK d   1       1.961 -11.951 -38.807  0.00  0.00     0.044 A 
ATOM     13  C   UNK d   1       2.840 -10.903 -39.041  0.00  0.00     0.030 A 
ATOM     14  C   UNK d   1       3.859 -10.668 -38.150  0.00  0.00     0.002 A 
ATOM     15  C   UNK d   1       4.045 -11.443 -37.017  0.00  0.00     0.001 A 
ATOM     16  C   UNK d   1       3.165 -12.482 -36.797  0.00  0.00     0.012 A 
ATOM     17  N   UNK d   1       0.831 -12.404 -39.575  0.00  0.00    -0.324 N 
ATOM     18  C   UNK d   1       0.276 -13.518 -38.900  0.00  0.00     0.267 A 
ATOM     19  O   UNK d   1      -0.712 -14.152 -39.307  0.00  0.00    -0.270 OA
ATOM     20  H   UNK d   1       1.772 -15.383 -38.747  0.00  0.00     0.318 HD
ATOM     21  H   UNK d   1       0.526 -11.948 -40.465  0.00  0.00     0.169 HD
ENDROOT
BRANCH   1  22
ATOM     22  C   UNK d   1       1.395 -16.996 -36.389  0.00  0.00     0.185 C 
BRANCH  22  23
ATOM     23  C   UNK d   1       1.991 -18.049 -37.261  0.00  0.00    -0.028 A 
ATOM     24  C   UNK d   1       1.235 -18.635 -38.276  0.00  0.00     0.011 A 
ATOM     25  C   UNK d   1       1.753 -19.618 -39.077  0.00  0.00     0.024 A 
ATOM     26  C   UNK d   1       3.047 -20.076 -38.919  0.00  0.00     0.034 A 
ATOM     27 Cl   UNK d   1       3.722 -21.335 -39.938  0.00  0.00    -0.084 Cl
ATOM     28  C   UNK d   1       3.774 -19.484 -37.910  0.00  0.00     0.024 A 
ATOM     29  C   UNK d   1       3.278 -18.496 -37.093  0.00  0.00     0.011 A 
ENDBRANCH  22  23
BRANCH  22  30
ATOM     30  O   UNK d   1       2.378 -16.465 -35.596  0.00  0.00    -0.389 OA
ATOM     31  H   UNK d   1       3.247 -16.587 -36.058  0.00  0.00     0.210 HD
ENDBRANCH  22  30
ENDBRANCH   1  22
BRANCH   8  32
ATOM     32  C   UNK d   1      -3.160 -13.032 -37.491  0.00  0.00     0.137 C 
BRANCH  32  33
ATOM     33  C   UNK d   1      -4.344 -13.020 -36.599  0.00  0.00     0.046 C 
BRANCH  33  34
ATOM     34  C   UNK d   1      -4.488 -11.849 -35.692  0.00  0.00     0.168 C 
BRANCH  34  35
ATOM     35  O   UNK d   1      -3.922 -12.049 -34.439  0.00  0.00    -0.396 OA
ATOM     36  C   UNK d   1      -3.582 -10.801 -33.877  0.00  0.00     0.201 C 
ENDBRANCH  34  35
ENDBRANCH  33  34
ENDBRANCH  32  33
ENDBRANCH   8  32
TORSDOF 7
ENDMDL
