MODEL 1
REMARK VINA RESULT:    -6.916      0.000      0.000
REMARK INTER + INTRA:          -8.881
REMARK INTER:                  -8.332
REMARK INTRA:                  -0.550
REMARK UNBOUND:                -0.550
REMARK  4 active torsions:
REMARK  status: ('A' for Active; 'I' for Inactive)
REMARK    1  A    between atoms: C_5  and  C_8 
REMARK    2  A    between atoms: C_8  and  C_9 
REMARK       I    between atoms: C_9  and  N_11 
REMARK    3  A    between atoms: C_17  and  N_21 
REMARK    4  A    between atoms: C_19  and  O_20 
ROOT
ATOM      1  C   UNK d   1       0.961 -17.847 -38.508  0.00  0.00     0.224 C 
ATOM      2  O   UNK d   1       0.185 -18.355 -39.390  0.00  0.00    -0.273 OA
ATOM      3  N   UNK d   1       1.907 -18.620 -37.820  0.00  0.00    -0.346 N 
ATOM      4  C   UNK d   1       2.776 -18.060 -36.835  0.00  0.00     0.131 C 
ATOM      5  C   UNK d   1       4.077 -18.793 -36.665  0.00  0.00     0.065 C 
ATOM      6  C   UNK d   1       4.412 -19.532 -37.906  0.00  0.00     0.024 A 
ATOM      7  C   UNK d   1       3.424 -20.159 -38.644  0.00  0.00     0.082 A 
ATOM      8  N   UNK d   1       3.717 -20.834 -39.761  0.00  0.00    -0.065 NA
ATOM      9  C   UNK d   1       4.975 -20.946 -40.238  0.00  0.00     0.727 A 
ATOM     10  N   UNK d   1       5.946 -20.333 -39.519  0.00  0.00    -0.038 NA
ATOM     11  C   UNK d   1       5.702 -19.645 -38.391  0.00  0.00     0.189 A 
ATOM     12  C   UNK d   1       2.019 -20.023 -38.108  0.00  0.00     0.186 C 
ENDROOT
BRANCH   1  13
ATOM     13  C   UNK d   1       0.806 -16.380 -38.247  0.00  0.00     0.141 C 
BRANCH  13  14
ATOM     14  C   UNK d   1       1.591 -15.582 -39.203  0.00  0.00    -0.049 A 
ATOM     15  C   UNK d   1       1.996 -16.052 -40.434  0.00  0.00     0.009 A 
ATOM     16  C   UNK d   1       2.732 -15.281 -41.308  0.00  0.00     0.024 A 
ATOM     17  C   UNK d   1       3.093 -13.983 -40.960  0.00  0.00     0.034 A 
ATOM     18 Cl   UNK d   1       4.028 -12.992 -42.058  0.00  0.00    -0.084 Cl
ATOM     19  C   UNK d   1       2.680 -13.527 -39.722  0.00  0.00     0.024 A 
ATOM     20  C   UNK d   1       1.944 -14.298 -38.851  0.00  0.00     0.009 A 
ENDBRANCH  13  14
ENDBRANCH   1  13
BRANCH  11  21
ATOM     21  O   UNK d   1       6.720 -19.028 -37.678  0.00  0.00    -0.344 OA
ATOM     22  H   UNK d   1       7.682 -18.992 -38.024  0.00  0.00     0.219 HD
ENDBRANCH  11  21
BRANCH   9  23
ATOM     23  N   UNK d   1       5.229 -21.665 -41.419  0.00  0.00    -0.210 N 
ATOM     24  C   UNK d   1       4.342 -22.705 -41.847  0.00  0.00     0.167 C 
ATOM     25  C   UNK d   1       4.556 -22.856 -43.360  0.00  0.00     0.188 C 
ATOM     26  O   UNK d   1       5.841 -23.247 -43.643  0.00  0.00    -0.388 OA
ATOM     27  C   UNK d   1       6.835 -22.555 -43.007  0.00  0.00     0.188 C 
ATOM     28  C   UNK d   1       6.385 -21.362 -42.210  0.00  0.00     0.167 C 
ENDBRANCH   9  23
TORSDOF 4
ENDMDL
