MODEL 1
REMARK VINA RESULT:    -7.367      0.000      0.000
REMARK INTER + INTRA:          -9.045
REMARK INTER:                  -8.659
REMARK INTRA:                  -0.386
REMARK UNBOUND:                -0.386
REMARK  3 active torsions:
REMARK  status: ('A' for Active; 'I' for Inactive)
REMARK    1  A    between atoms: C_6  and  C_7 
REMARK       I    between atoms: C_7  and  N_9 
REMARK    2  A    between atoms: C_10  and  C_11 
REMARK    3  A    between atoms: N_12  and  C_16 
ROOT
ATOM      1  C   UNK d   1       3.455 -18.563 -36.575  0.00  0.00     0.275 C 
ATOM      2  O   UNK d   1       4.219 -18.851 -35.573  0.00  0.00    -0.266 OA
ATOM      3  N   UNK d   1       2.465 -17.614 -36.540  0.00  0.00    -0.348 N 
ATOM      4  C   UNK d   1       1.479 -16.672 -36.505  0.00  0.00     0.205 C 
ATOM      5  H   UNK d   1       2.754 -17.339 -35.233  0.00  0.00     0.163 HD
ENDROOT
BRANCH   1   6
ATOM      6  C   UNK d   1       3.808 -19.402 -37.752  0.00  0.00     0.183 A 
ATOM      7  C   UNK d   1       5.044 -19.664 -38.286  0.00  0.00     0.231 A 
ATOM      8  F   UNK d   1       6.241 -19.199 -37.852  0.00  0.00    -0.183 F 
ATOM      9  N   UNK d   1       4.936 -20.490 -39.371  0.00  0.00    -0.279 N 
ATOM     10  C   UNK d   1       3.623 -20.735 -39.500  0.00  0.00     0.137 A 
ATOM     11  C   UNK d   1       5.846 -21.015 -40.208  0.00  0.00     0.125 A 
ATOM     12  N   UNK d   1       2.952 -20.086 -38.535  0.00  0.00    -0.220 NA
ATOM     13  C   UNK d   1       3.235 -21.552 -40.534  0.00  0.00     0.053 A 
ATOM     14  C   UNK d   1       4.148 -22.118 -41.426  0.00  0.00     0.029 A 
ATOM     15  C   UNK d   1       5.479 -21.846 -41.261  0.00  0.00     0.050 A 
ATOM     16 Cl   UNK d   1       6.689 -22.530 -42.348  0.00  0.00    -0.083 Cl
ENDBRANCH   1   6
BRANCH   4  17
ATOM     17  C   UNK d   1       0.699 -16.497 -37.784  0.00  0.00     0.171 A 
ATOM     18  N   UNK d   1       0.740 -15.427 -38.582  0.00  0.00    -0.197 N 
ATOM     19  N   UNK d   1      -0.076 -15.651 -39.599  0.00  0.00    -0.039 NA
ATOM     20  N   UNK d   1      -0.636 -16.835 -39.473  0.00  0.00    -0.023 NA
ATOM     21  N   UNK d   1      -0.150 -17.352 -38.344  0.00  0.00    -0.112 NA
BRANCH  18  22
ATOM     22  C   UNK d   1       1.561 -14.290 -38.312  0.00  0.00     0.062 A 
ATOM     23  C   UNK d   1       2.421 -13.850 -39.313  0.00  0.00     0.032 A 
ATOM     24  C   UNK d   1       3.259 -12.761 -39.109  0.00  0.00     0.002 A 
ATOM     25  C   UNK d   1       3.266 -12.082 -37.907  0.00  0.00     0.000 A 
ATOM     26  C   UNK d   1       2.411 -12.523 -36.920  0.00  0.00     0.002 A 
ATOM     27  C   UNK d   1       1.576 -13.607 -37.120  0.00  0.00     0.032 A 
ENDBRANCH  18  22
ENDBRANCH   4  17
TORSDOF 3
ENDMDL
