/Users/jonathanwahrer/Desktop/Msc/3_Semester/Drug_Design_Praktikum/waehrer_HTS_screening/HTS_experiment/out/docking_results/vina_output/6y4q/1966_docked.pdbqt
 OpenBabel03232218513D

 27 30  0  0  0  0  0  0  0  0999 V2000
    3.4550  -18.5630  -36.5750 C   0  0  0  0  0  0  0  0  0  0  0  0
    4.2190  -18.8510  -35.5730 O   0  0  0  0  0  0  0  0  0  0  0  0
    2.4650  -17.6140  -36.5400 N   0  0  0  0  0  0  0  0  0  0  0  0
    1.4790  -16.6720  -36.5050 C   0  0  0  0  0  2  0  0  0  0  0  0
    2.7540  -17.3390  -35.2330 H   0  0  0  0  0  0  0  0  0  0  0  0
    3.8080  -19.4020  -37.7520 C   0  0  0  0  0  0  0  0  0  0  0  0
    5.0440  -19.6640  -38.2860 C   0  0  0  0  0  0  0  0  0  0  0  0
    6.2410  -19.1990  -37.8520 F   0  0  0  0  0  0  0  0  0  0  0  0
    4.9360  -20.4900  -39.3710 N   0  0  0  0  0  0  0  0  0  0  0  0
    3.6230  -20.7350  -39.5000 C   0  0  0  0  0  0  0  0  0  0  0  0
    5.8460  -21.0150  -40.2080 C   0  0  0  0  0  3  0  0  0  0  0  0
    2.9520  -20.0860  -38.5350 N   0  0  0  0  0  0  0  0  0  0  0  0
    3.2350  -21.5520  -40.5340 C   0  0  0  0  0  3  0  0  0  0  0  0
    4.1480  -22.1180  -41.4260 C   0  0  0  0  0  3  0  0  0  0  0  0
    5.4790  -21.8460  -41.2610 C   0  0  0  0  0  0  0  0  0  0  0  0
    6.6890  -22.5300  -42.3480 Cl  0  0  0  0  0  0  0  0  0  0  0  0
    0.6990  -16.4970  -37.7840 C   0  0  0  0  0  0  0  0  0  0  0  0
    0.7400  -15.4270  -38.5820 N   0  0  0  0  0  0  0  0  0  0  0  0
   -0.0760  -15.6510  -39.5990 N   0  0  0  0  0  0  0  0  0  0  0  0
   -0.6360  -16.8350  -39.4730 N   0  0  0  0  0  0  0  0  0  0  0  0
   -0.1500  -17.3520  -38.3440 N   0  0  0  0  0  0  0  0  0  0  0  0
    1.5610  -14.2900  -38.3120 C   0  0  0  0  0  0  0  0  0  0  0  0
    2.4210  -13.8500  -39.3130 C   0  0  0  0  0  3  0  0  0  0  0  0
    3.2590  -12.7610  -39.1090 C   0  0  0  0  0  3  0  0  0  0  0  0
    3.2660  -12.0820  -37.9070 C   0  0  0  0  0  3  0  0  0  0  0  0
    2.4110  -12.5230  -36.9200 C   0  0  0  0  0  3  0  0  0  0  0  0
    1.5760  -13.6070  -37.1200 C   0  0  0  0  0  3  0  0  0  0  0  0
  1  3  1  0  0  0  0
  1  2  2  0  0  0  0
  3  4  1  0  0  0  0
  3  5  1  0  0  0  0
  6  1  1  0  0  0  0
  7  8  1  0  0  0  0
  7  6  2  0  0  0  0
  9  7  1  0  0  0  0
 10  9  1  0  0  0  0
 10 12  2  0  0  0  0
 11  9  1  0  0  0  0
 12  6  1  0  0  0  0
 13 10  1  0  0  0  0
 14 15  1  0  0  0  0
 14 13  2  0  0  0  0
 15 11  2  0  0  0  0
 16 15  1  0  0  0  0
 17  4  1  0  0  0  0
 18 22  1  0  0  0  0
 18 17  1  0  0  0  0
 19 20  2  0  0  0  0
 19 18  1  0  0  0  0
 20 21  1  0  0  0  0
 21 17  2  0  0  0  0
 22 27  1  0  0  0  0
 23 24  1  0  0  0  0
 23 22  2  0  0  0  0
 24 25  2  0  0  0  0
 25 26  1  0  0  0  0
 27 26  2  0  0  0  0
M  END
>  <Pose>
1

>  <Score>
-7.367

$$$$
