/Users/jonathanwahrer/Desktop/Msc/3_Semester/Drug_Design_Praktikum/waehrer_HTS_screening/HTS_experiment/out/docking_results/vina_output/6y4q/1969_docked.pdbqt
 OpenBabel03232218513D

 26 29  0  0  0  0  0  0  0  0999 V2000
    3.0910  -19.7270  -38.2740 C   0  0  0  0  0  0  0  0  0  0  0  0
    3.3380  -20.4940  -37.1400 O   0  0  0  0  0  0  0  0  0  0  0  0
    4.1880  -19.6620  -39.0660 N   0  0  0  0  0  0  0  0  0  0  0  0
    4.4010  -19.0860  -40.3610 C   0  0  0  0  0  2  0  0  0  0  0  0
    5.5670  -19.8170  -41.0570 C   0  0  0  0  0  2  0  0  0  0  0  0
    5.4640  -21.1960  -40.5580 N   0  0  0  0  0  0  0  0  0  0  0  0
    5.8170  -21.4620  -39.2030 C   0  0  0  0  0  2  0  0  0  0  0  0
    5.4340  -20.2260  -38.4550 C   0  0  0  0  0  2  0  0  0  0  0  0
    1.7080  -19.3310  -38.0790 C   0  0  0  0  0  0  0  0  0  0  0  0
    0.5500  -19.0010  -37.9180 N   0  0  0  0  0  0  0  0  0  0  0  0
   -0.0140  -18.0120  -37.5870 N   0  0  0  0  0  0  0  0  0  0  0  0
    0.9370  -17.1250  -37.3840 N   0  0  0  0  0  0  0  0  0  0  0  0
    2.0620  -17.7450  -37.6230 C   0  0  0  0  0  3  0  0  0  0  0  0
    0.6180  -15.7780  -36.9670 C   0  0  0  0  0  0  0  0  0  0  0  0
   -0.6330  -15.2770  -36.8610 C   0  0  0  0  0  3  0  0  0  0  0  0
   -0.8570  -13.9720  -36.4420 C   0  0  0  0  0  0  0  0  0  0  0  0
   -2.4300  -13.2540  -36.2930 Cl  0  0  0  0  0  0  0  0  0  0  0  0
    0.2550  -13.1280  -36.1170 C   0  0  0  0  0  3  0  0  0  0  0  0
    1.4980  -13.6470  -36.2250 C   0  0  0  0  0  3  0  0  0  0  0  0
    1.6540  -14.9270  -36.6380 C   0  0  0  0  0  3  0  0  0  0  0  0
    4.9200  -22.1810  -41.3740 C   0  0  0  0  0  0  0  0  0  0  0  0
    3.5650  -22.5220  -41.2850 N   0  0  0  0  0  0  0  0  0  0  0  0
    2.9570  -23.3960  -42.0060 C   0  0  0  0  0  3  0  0  0  0  0  0
    3.6190  -24.1200  -43.0090 C   0  0  0  0  0  3  0  0  0  0  0  0
    4.9660  -23.7930  -43.1010 C   0  0  0  0  0  3  0  0  0  0  0  0
    5.5160  -22.9160  -42.3490 N   0  0  0  0  0  0  0  0  0  0  0  0
  1  9  1  0  0  0  0
  1  2  2  0  0  0  0
  3  8  1  0  0  0  0
  3  1  1  0  0  0  0
  4  3  1  0  0  0  0
  5  6  1  0  0  0  0
  5  4  1  0  0  0  0
  6  7  1  0  0  0  0
  7  8  1  0  0  0  0
  9 10  1  0  0  0  0
  9 13  2  0  0  0  0
 10 11  2  0  0  0  0
 11 12  1  0  0  0  0
 12 14  1  0  0  0  0
 13 12  1  0  0  0  0
 14 15  2  0  0  0  0
 14 20  1  0  0  0  0
 15 16  1  0  0  0  0
 16 17  1  0  0  0  0
 16 18  2  0  0  0  0
 19 18  1  0  0  0  0
 20 19  2  0  0  0  0
 21 22  2  0  0  0  0
 21  6  1  0  0  0  0
 23 22  1  0  0  0  0
 24 23  2  0  0  0  0
 25 24  1  0  0  0  0
 25 26  2  0  0  0  0
 26 21  1  0  0  0  0
M  END
>  <Pose>
1

>  <Score>
-6.811

$$$$
