/Users/jonathanwahrer/Desktop/Msc/3_Semester/Drug_Design_Praktikum/waehrer_HTS_screening/HTS_experiment/out/docking_results/vina_output/6y4q/1971_docked.pdbqt
 OpenBabel03232218513D

 22 25  0  0  1  0  0  0  0  0999 V2000
    2.2900  -18.8160  -37.8730 N   0  0  0  0  0  0  0  0  0  0  0  0
    3.5150  -19.3140  -37.3030 C   0  0  0  0  0  0  0  0  0  0  0  0
    4.0750  -18.8350  -36.2880 O   0  0  0  0  0  0  0  0  0  0  0  0
    3.9950  -20.4510  -38.0840 C   0  0  2  0  0  3  0  0  0  0  0  0
    5.2020  -20.1850  -38.9220 C   0  0  1  0  0  0  0  0  0  0  0  0
    5.0150  -21.1530  -39.9420 O   0  0  0  0  0  0  0  0  0  0  0  0
    3.7780  -20.6460  -40.4190 C   0  0  1  0  0  3  0  0  0  0  0  0
    2.9370  -20.7080  -39.1690 C   0  0  2  0  0  3  0  0  0  0  0  0
    2.0610  -19.5380  -39.0770 C   0  0  0  0  0  0  0  0  0  0  0  0
    1.2110  -19.1980  -39.9360 O   0  0  0  0  0  0  0  0  0  0  0  0
    4.1370  -19.2320  -40.6530 C   0  0  0  0  0  2  0  0  0  0  0  0
    5.0730  -18.9450  -39.7200 C   0  0  0  0  0  2  0  0  0  0  0  0
    1.4370  -17.7950  -37.3700 C   0  0  0  0  0  0  0  0  0  0  0  0
    1.8870  -16.5060  -37.1340 C   0  0  0  0  0  3  0  0  0  0  0  0
    1.0580  -15.5170  -36.6480 C   0  0  0  0  0  0  0  0  0  0  0  0
    1.6410  -13.8930  -36.3540 Cl  0  0  0  0  0  0  0  0  0  0  0  0
   -0.2700  -15.7760  -36.3750 C   0  0  0  0  0  3  0  0  0  0  0  0
   -0.7280  -17.0570  -36.6090 C   0  0  0  0  0  3  0  0  0  0  0  0
    0.1080  -18.0530  -37.0980 C   0  0  0  0  0  3  0  0  0  0  0  0
    6.5080  -20.3530  -38.2290 C   0  0  0  0  0  2  0  0  0  0  0  0
    6.9150  -19.1310  -37.7100 O   0  0  0  0  0  0  0  0  0  0  0  0
    6.6290  -18.3960  -38.3000 H   0  0  0  0  0  0  0  0  0  0  0  0
  1 13  1  0  0  0  0
  1  2  1  0  0  0  0
  2  3  2  0  0  0  0
  4  2  1  6  0  0  0
  5 20  1  1  0  0  0
  5  4  1  0  0  0  0
  6  5  1  0  0  0  0
  7 11  1  1  0  0  0
  7  6  1  0  0  0  0
  7  8  1  0  0  0  0
  8  9  1  6  0  0  0
  8  4  1  0  0  0  0
  9  1  1  0  0  0  0
 10  9  2  0  0  0  0
 11 12  1  0  0  0  0
 12  5  1  0  0  0  0
 13 14  2  0  0  0  0
 13 19  1  0  0  0  0
 14 15  1  0  0  0  0
 15 17  2  0  0  0  0
 15 16  1  0  0  0  0
 18 17  1  0  0  0  0
 19 18  2  0  0  0  0
 20 21  1  0  0  0  0
 22 21  1  0  0  0  0
M  END
>  <Pose>
1

>  <Score>
-6.511

$$$$
