/Users/jonathanwahrer/Desktop/Msc/3_Semester/Drug_Design_Praktikum/waehrer_HTS_screening/HTS_experiment/out/docking_results/vina_output/6y4q/1973_docked.pdbqt
 OpenBabel03232218513D

 24 27  0  0  1  0  0  0  0  0999 V2000
    5.1580  -22.2030  -41.2130 Cl  0  0  0  0  0  0  0  0  0  0  0  0
    4.4710  -21.1570  -39.9710 C   0  0  0  0  0  0  0  0  0  0  0  0
    3.7310  -20.0360  -40.2870 C   0  0  0  0  0  2  0  0  0  0  0  0
    3.1950  -19.2210  -39.3470 N   0  0  0  0  0  0  0  0  0  0  0  0
    3.3540  -19.4590  -38.0320 C   0  0  0  0  0  0  0  0  0  0  0  0
    2.8230  -18.6530  -37.0750 N   0  0  0  0  0  0  0  0  0  0  0  0
    2.1020  -17.5580  -37.3740 C   0  0  0  0  0  0  0  0  0  0  0  0
    1.9280  -17.2970  -38.7290 C   0  0  1  0  0  3  0  0  0  0  0  0
    1.1310  -16.0870  -39.0620 C   0  0  0  0  0  2  0  0  0  0  0  0
    1.6440  -15.0340  -38.1780 N   0  0  0  0  0  0  0  0  0  0  0  0
    1.5040  -15.2280  -36.7620 C   0  0  0  0  0  2  0  0  0  0  0  0
    1.5150  -16.6700  -36.3380 C   0  0  0  0  0  2  0  0  0  0  0  0
    2.2580  -13.8810  -38.7140 C   0  0  0  0  0  0  0  0  0  0  0  0
    2.3470  -13.8110  -39.9860 O   0  0  0  0  0  0  0  0  0  0  0  0
    2.4770  -18.1320  -39.6770 C   0  0  0  0  0  0  0  0  0  0  0  0
    2.3030  -17.8710  -40.9120 O   0  0  0  0  0  0  0  0  0  0  0  0
    4.0940  -20.5810  -37.6940 C   0  0  0  0  0  3  0  0  0  0  0  0
    4.6500  -21.4260  -38.6310 C   0  0  0  0  0  3  0  0  0  0  0  0
    2.7820  -12.7830  -37.8710 C   0  0  0  0  0  3  0  0  0  0  0  0
    1.6860  -12.0800  -37.1000 C   0  0  0  0  0  2  0  0  0  0  0  0
    0.5260  -11.9280  -38.0760 C   0  0  0  0  0  2  0  0  0  0  0  0
    1.0060  -11.6330  -39.3500 O   0  0  0  0  0  0  0  0  0  0  0  0
    2.1930  -10.8900  -39.2920 C   0  0  0  0  0  2  0  0  0  0  0  0
    3.3690  -11.7170  -38.8090 C   0  0  0  0  0  2  0  0  0  0  0  0
  1  2  1  0  0  0  0
  2 18  2  0  0  0  0
  3  2  1  0  0  0  0
  3  4  1  0  0  0  0
  4  5  1  0  0  0  0
  5 17  2  0  0  0  0
  5  6  1  0  0  0  0
  7  6  2  0  0  0  0
  7 12  1  0  0  0  0
  8  9  1  6  0  0  0
  8  7  1  0  0  0  0
  9 10  1  0  0  0  0
 10 11  1  0  0  0  0
 11 12  1  0  0  0  0
 13 10  1  0  0  0  0
 13 19  1  0  0  0  0
 14 13  2  0  0  0  0
 15  4  1  0  0  0  0
 15  8  1  0  0  0  0
 16 15  2  0  0  0  0
 18 17  1  0  0  0  0
 19 20  1  0  0  0  0
 21 20  1  0  0  0  0
 22 23  1  0  0  0  0
 22 21  1  0  0  0  0
 23 24  1  0  0  0  0
 24 19  1  0  0  0  0
M  END
>  <Pose>
1

>  <Score>
-6.617

$$$$
