MODEL 1
REMARK VINA RESULT:    -6.617      0.000      0.000
REMARK INTER + INTRA:          -5.993
REMARK INTER:                  -7.004
REMARK INTRA:                   1.010
REMARK UNBOUND:                 1.010
REMARK  1 active torsions:
REMARK  status: ('A' for Active; 'I' for Inactive)
REMARK       I    between atoms: N_10  and  C_13 
REMARK    1  A    between atoms: C_13  and  C_15 
ROOT
ATOM      1 Cl   UNK d   1       5.158 -22.203 -41.213  0.00  0.00    -0.083 Cl
ATOM      2  C   UNK d   1       4.471 -21.157 -39.971  0.00  0.00     0.050 A 
ATOM      3  C   UNK d   1       3.731 -20.036 -40.287  0.00  0.00     0.125 A 
ATOM      4  N   UNK d   1       3.195 -19.221 -39.347  0.00  0.00    -0.271 N 
ATOM      5  C   UNK d   1       3.354 -19.459 -38.032  0.00  0.00     0.137 A 
ATOM      6  N   UNK d   1       2.823 -18.653 -37.075  0.00  0.00    -0.234 NA
ATOM      7  C   UNK d   1       2.102 -17.558 -37.374  0.00  0.00     0.051 A 
ATOM      8  C   UNK d   1       1.928 -17.297 -38.729  0.00  0.00     0.053 A 
ATOM      9  C   UNK d   1       1.131 -16.087 -39.062  0.00  0.00     0.172 C 
ATOM     10  N   UNK d   1       1.644 -15.034 -38.178  0.00  0.00    -0.347 N 
ATOM     11  C   UNK d   1       1.504 -15.228 -36.762  0.00  0.00     0.132 C 
ATOM     12  C   UNK d   1       1.515 -16.670 -36.338  0.00  0.00     0.080 C 
ATOM     13  C   UNK d   1       2.258 -13.881 -38.714  0.00  0.00     0.224 C 
ATOM     14  O   UNK d   1       2.347 -13.811 -39.986  0.00  0.00    -0.273 OA
ATOM     15  C   UNK d   1       2.477 -18.132 -39.677  0.00  0.00     0.263 A 
ATOM     16  O   UNK d   1       2.303 -17.871 -40.912  0.00  0.00    -0.267 OA
ATOM     17  C   UNK d   1       4.094 -20.581 -37.694  0.00  0.00     0.053 A 
ATOM     18  C   UNK d   1       4.650 -21.426 -38.631  0.00  0.00     0.029 A 
ENDROOT
BRANCH  13  19
ATOM     19  C   UNK d   1       2.782 -12.783 -37.871  0.00  0.00     0.082 C 
ATOM     20  C   UNK d   1       1.686 -12.080 -37.100  0.00  0.00     0.040 C 
ATOM     21  C   UNK d   1       0.526 -11.928 -38.076  0.00  0.00     0.168 C 
ATOM     22  O   UNK d   1       1.006 -11.633 -39.350  0.00  0.00    -0.391 OA
ATOM     23  C   UNK d   1       2.193 -10.890 -39.292  0.00  0.00     0.168 C 
ATOM     24  C   UNK d   1       3.369 -11.717 -38.809  0.00  0.00     0.040 C 
ENDBRANCH  13  19
TORSDOF 1
ENDMDL
