/Users/jonathanwahrer/Desktop/Msc/3_Semester/Drug_Design_Praktikum/waehrer_HTS_screening/HTS_experiment/out/docking_results/vina_output/6y4q/1974_docked.pdbqt
 OpenBabel03232218513D

 26 29  0  0  0  0  0  0  0  0999 V2000
    1.9210  -15.5810  -40.7860 F   0  0  0  0  0  0  0  0  0  0  0  0
    2.2240  -14.5580  -39.9510 C   0  0  0  0  0  0  0  0  0  0  0  0
    1.6050  -14.5150  -38.7110 C   0  0  0  0  0  0  0  0  0  0  0  0
    1.8630  -13.5050  -37.8100 C   0  0  0  0  0  0  0  0  0  0  0  0
    2.7660  -12.5250  -38.1850 C   0  0  0  0  0  0  0  0  0  0  0  0
    3.3800  -12.5670  -39.4150 C   0  0  0  0  0  3  0  0  0  0  0  0
    3.1180  -13.5780  -40.3100 C   0  0  0  0  0  3  0  0  0  0  0  0
    3.0980  -11.2360  -37.0420 Cl  0  0  0  0  0  0  0  0  0  0  0  0
    1.1000  -13.6790  -36.5910 C   0  0  0  0  0  0  0  0  0  0  0  0
    1.0870  -12.9560  -35.5690 O   0  0  0  0  0  0  0  0  0  0  0  0
    0.3250  -14.8970  -36.7910 C   0  0  0  0  0  0  0  0  0  0  0  0
   -0.4810  -15.4010  -35.9470 O   0  0  0  0  0  0  0  0  0  0  0  0
    0.6450  -15.3890  -38.0820 N   0  0  0  0  0  0  0  0  0  0  0  0
    0.1140  -16.5790  -38.7150 C   0  0  0  0  0  2  0  0  0  0  0  0
    0.4750  -17.8030  -38.0310 N   0  0  0  0  0  0  0  0  0  0  0  0
    0.1680  -18.9430  -38.8260 C   0  0  0  0  0  2  0  0  0  0  0  0
    1.2150  -19.9990  -38.8670 C   0  0  0  0  0  2  0  0  0  0  0  0
    2.5580  -19.4830  -38.9120 N   0  0  0  0  0  0  0  0  0  0  0  0
    2.7800  -18.1060  -38.5360 C   0  0  0  0  0  2  0  0  0  0  0  0
    1.7750  -17.7830  -37.4510 C   0  0  0  0  0  2  0  0  0  0  0  0
    3.6610  -20.2720  -39.3090 C   0  0  0  0  0  0  0  0  0  0  0  0
    4.0890  -20.2870  -40.5820 N   0  0  0  0  0  0  0  0  0  0  0  0
    5.1370  -21.0310  -40.9850 C   0  0  0  0  0  3  0  0  0  0  0  0
    5.8220  -21.8220  -40.0820 C   0  0  0  0  0  3  0  0  0  0  0  0
    5.3990  -21.8110  -38.8080 N   0  0  0  0  0  0  0  0  0  0  0  0
    4.3510  -21.0680  -38.4030 C   0  0  0  0  0  3  0  0  0  0  0  0
  1  2  1  0  0  0  0
  2  3  1  0  0  0  0
  3 13  1  0  0  0  0
  3  4  2  0  0  0  0
  4  9  1  0  0  0  0
  5  4  1  0  0  0  0
  5  8  1  0  0  0  0
  6  5  2  0  0  0  0
  7  2  2  0  0  0  0
  7  6  1  0  0  0  0
  9 10  2  0  0  0  0
 11  9  1  0  0  0  0
 11 12  2  0  0  0  0
 13 11  1  0  0  0  0
 14 13  1  0  0  0  0
 14 15  1  0  0  0  0
 15 20  1  0  0  0  0
 16 15  1  0  0  0  0
 17 16  1  0  0  0  0
 18 17  1  0  0  0  0
 18 19  1  0  0  0  0
 19 20  1  0  0  0  0
 21 18  1  0  0  0  0
 21 26  1  0  0  0  0
 22 21  2  0  0  0  0
 23 22  1  0  0  0  0
 23 24  2  0  0  0  0
 24 25  1  0  0  0  0
 25 26  2  0  0  0  0
M  END
>  <Pose>
1

>  <Score>
-6.126

$$$$
