MODEL 1
REMARK VINA RESULT:    -6.583      0.000      0.000
REMARK INTER + INTRA:          -7.771
REMARK INTER:                  -7.545
REMARK INTRA:                  -0.226
REMARK UNBOUND:                -0.226
REMARK  3 active torsions:
REMARK  status: ('A' for Active; 'I' for Inactive)
REMARK    1  A    between atoms: C_7  and  C_8 
REMARK    2  A    between atoms: C_8  and  C_9 
REMARK       I    between atoms: C_9  and  N_11 
REMARK    3  A    between atoms: C_19  and  O_20 
ROOT
ATOM      1  C   UNK d   1       1.767 -17.576 -37.802  0.00  0.00     0.224 C 
ATOM      2  O   UNK d   1       0.939 -17.210 -38.708  0.00  0.00    -0.273 OA
ATOM      3  N   UNK d   1       2.770 -18.548 -38.056  0.00  0.00    -0.346 N 
ATOM      4  C   UNK d   1       3.664 -18.912 -37.013  0.00  0.00     0.131 C 
ATOM      5  C   UNK d   1       5.090 -18.868 -37.574  0.00  0.00     0.065 C 
ATOM      6  C   UNK d   1       5.065 -19.955 -38.629  0.00  0.00     0.022 A 
ATOM      7  C   UNK d   1       3.968 -20.067 -39.457  0.00  0.00     0.064 A 
ATOM      8  N   UNK d   1       3.960 -21.060 -40.392  0.00  0.00    -0.244 NA
ATOM      9  C   UNK d   1       4.973 -21.929 -40.536  0.00  0.00     0.236 A 
ATOM     10  N   UNK d   1       6.035 -21.805 -39.719  0.00  0.00    -0.217 NA
ATOM     11  C   UNK d   1       6.103 -20.831 -38.764  0.00  0.00     0.171 A 
ATOM     12  C   UNK d   1       2.830 -19.132 -39.353  0.00  0.00     0.185 C 
ENDROOT
BRANCH   1  13
ATOM     13  C   UNK d   1       1.635 -16.933 -36.455  0.00  0.00     0.143 C 
BRANCH  13  14
ATOM     14  C   UNK d   1       0.928 -15.622 -36.574  0.00  0.00    -0.025 A 
ATOM     15  C   UNK d   1      -0.420 -15.478 -36.311  0.00  0.00     0.043 A 
ATOM     16 Cl   UNK d   1      -1.307 -16.899 -35.826  0.00  0.00    -0.084 Cl
ATOM     17  C   UNK d   1      -1.037 -14.243 -36.428  0.00  0.00     0.064 A 
ATOM     18  C   UNK d   1      -0.349 -13.107 -36.812  0.00  0.00     0.103 A 
ATOM     19  C   UNK d   1       1.001 -13.235 -37.079  0.00  0.00     0.102 A 
ATOM     20  O   UNK d   1      -0.912 -11.862 -36.943  0.00  0.00    -0.346 OA
ATOM     21  C   UNK d   1       1.600 -14.474 -36.956  0.00  0.00     0.049 A 
ATOM     22  O   UNK d   1       1.688 -12.101 -37.460  0.00  0.00    -0.346 OA
ATOM     23  C   UNK d   1       1.247 -10.776 -37.243  0.00  0.00     0.202 C 
ATOM     24  C   UNK d   1      -0.202 -10.654 -36.927  0.00  0.00     0.202 C 
ENDBRANCH  13  14
ENDBRANCH   1  13
BRANCH  11  25
ATOM     25  O   UNK d   1       7.193 -20.701 -37.923  0.00  0.00    -0.344 OA
ATOM     26  H   UNK d   1       7.209 -21.256 -37.076  0.00  0.00     0.219 HD
ENDBRANCH  11  25
TORSDOF 3
ENDMDL
