/Users/jonathanwahrer/Desktop/Msc/3_Semester/Drug_Design_Praktikum/waehrer_HTS_screening/HTS_experiment/out/docking_results/vina_output/6y4q/1986_docked.pdbqt
 OpenBabel03232218523D

 30 33  0  0  1  0  0  0  0  0999 V2000
    6.5290  -19.0790  -37.4730 Cl  0  0  0  0  0  0  0  0  0  0  0  0
    4.9800  -19.5610  -38.1420 C   0  0  0  0  0  0  0  0  0  0  0  0
    3.8140  -18.9250  -37.7660 C   0  0  0  0  0  3  0  0  0  0  0  0
    2.5780  -19.3100  -38.3000 C   0  0  0  0  0  0  0  0  0  0  0  0
    2.5910  -20.3400  -39.2050 C   0  0  1  0  0  3  0  0  0  0  0  0
    3.7770  -20.9840  -39.5830 C   0  0  0  0  0  3  0  0  0  0  0  0
    4.9880  -20.5980  -39.0530 C   0  0  0  0  0  3  0  0  0  0  0  0
    1.3750  -20.7410  -39.7500 O   0  0  0  0  0  0  0  0  0  0  0  0
    0.1650  -20.1530  -39.4240 C   0  0  0  0  0  0  0  0  0  0  0  0
    0.1530  -19.1120  -38.5090 C   0  0  0  0  0  0  0  0  0  0  0  0
    1.3630  -18.5960  -37.8590 C   0  0  0  0  0  0  0  0  0  0  0  0
   -1.0770  -18.5570  -38.2170 C   0  0  0  0  0  0  0  0  0  0  0  0
   -1.1500  -17.5980  -37.3840 O   0  0  0  0  0  0  0  0  0  0  0  0
   -2.2380  -18.9610  -38.7560 N   0  0  0  0  0  0  0  0  0  0  0  0
   -2.1770  -19.9820  -39.6460 C   0  0  0  0  0  0  0  0  0  0  0  0
   -3.2780  -20.3460  -40.1400 O   0  0  0  0  0  0  0  0  0  0  0  0
   -1.0000  -20.5530  -39.9610 N   0  0  0  0  0  0  0  0  0  0  0  0
   -1.0190  -21.6400  -40.9200 C   0  0  0  0  0  1  0  0  0  0  0  0
   -3.5150  -18.3360  -38.4130 C   0  0  0  0  0  1  0  0  0  0  0  0
    1.5140  -17.1390  -38.1820 C   0  0  0  0  0  3  0  0  0  0  0  0
    1.5330  -16.1920  -37.1810 C   0  0  0  0  0  0  0  0  0  0  0  0
    1.6690  -14.8730  -37.4870 N   0  0  0  0  0  0  0  0  0  0  0  0
    1.4160  -16.5890  -35.8790 O   0  0  0  0  0  0  0  0  0  0  0  0
    1.7850  -14.4740  -38.7790 C   0  0  0  0  0  0  0  0  0  0  0  0
    1.6840  -13.9200  -36.3820 C   0  0  0  0  0  1  0  0  0  0  0  0
    1.9080  -13.2420  -39.0250 O   0  0  0  0  0  0  0  0  0  0  0  0
    1.7700  -15.3740  -39.7750 N   0  0  0  0  0  0  0  0  0  0  0  0
    1.6360  -16.6810  -39.4780 C   0  0  0  0  0  0  0  0  0  0  0  0
    1.8960  -14.9110  -41.1530 C   0  0  0  0  0  1  0  0  0  0  0  0
    1.6240  -17.4990  -40.4090 O   0  0  0  0  0  0  0  0  0  0  0  0
  2  3  2  0  0  0  0
  2  1  1  0  0  0  0
  4 11  2  0  0  0  0
  4  3  1  0  0  0  0
  5  6  1  1  0  0  0
  5  4  1  0  0  0  0
  6  7  2  0  0  0  0
  7  2  1  0  0  0  0
  8  9  1  0  0  0  0
  8  5  1  0  0  0  0
  9 10  2  0  0  0  0
 10 12  1  0  0  0  0
 10 11  1  0  0  0  0
 12 13  2  0  0  0  0
 14 19  1  0  0  0  0
 14 12  1  0  0  0  0
 15 14  1  0  0  0  0
 16 15  2  0  0  0  0
 17 15  1  0  0  0  0
 17  9  1  0  0  0  0
 18 17  1  0  0  0  0
 20 11  1  0  0  0  0
 20 21  1  0  0  0  0
 21 23  2  0  0  0  0
 22 21  1  0  0  0  0
 22 25  1  0  0  0  0
 24 22  1  0  0  0  0
 26 24  2  0  0  0  0
 27 28  1  0  0  0  0
 27 24  1  0  0  0  0
 28 20  1  0  0  0  0
 29 27  1  0  0  0  0
 30 28  2  0  0  0  0
M  END
>  <Pose>
1

>  <Score>
-6.756

$$$$
