MODEL 1
REMARK VINA RESULT:    -6.756      0.000      0.000
REMARK INTER + INTRA:          -6.819
REMARK INTER:                  -7.151
REMARK INTRA:                   0.332
REMARK UNBOUND:                 0.332
REMARK  1 active torsions:
REMARK  status: ('A' for Active; 'I' for Inactive)
REMARK    1  A    between atoms: C_11  and  C_12 
ROOT
ATOM      1 Cl   UNK d   1       6.529 -19.079 -37.473  0.00  0.00    -0.084 Cl
ATOM      2  C   UNK d   1       4.980 -19.561 -38.142  0.00  0.00     0.034 A 
ATOM      3  C   UNK d   1       3.814 -18.925 -37.766  0.00  0.00     0.034 A 
ATOM      4  C   UNK d   1       2.578 -19.310 -38.300  0.00  0.00    -0.009 A 
ATOM      5  C   UNK d   1       2.591 -20.340 -39.205  0.00  0.00     0.085 A 
ATOM      6  C   UNK d   1       3.777 -20.984 -39.583  0.00  0.00     0.039 A 
ATOM      7  C   UNK d   1       4.988 -20.598 -39.053  0.00  0.00     0.026 A 
ATOM      8  O   UNK d   1       1.375 -20.741 -39.750  0.00  0.00    -0.292 OA
ATOM      9  C   UNK d   1       0.165 -20.153 -39.424  0.00  0.00     0.166 A 
ATOM     10  C   UNK d   1       0.153 -19.112 -38.509  0.00  0.00     0.075 A 
ATOM     11  C   UNK d   1       1.363 -18.596 -37.859  0.00  0.00     0.107 A 
ATOM     12  C   UNK d   1      -1.077 -18.557 -38.217  0.00  0.00     0.262 A 
ATOM     13  O   UNK d   1      -1.150 -17.598 -37.384  0.00  0.00    -0.267 OA
ATOM     14  N   UNK d   1      -2.238 -18.961 -38.756  0.00  0.00    -0.270 N 
ATOM     15  C   UNK d   1      -2.177 -19.982 -39.646  0.00  0.00     0.332 A 
ATOM     16  O   UNK d   1      -3.278 -20.346 -40.140  0.00  0.00    -0.246 OA
ATOM     17  N   UNK d   1      -1.000 -20.553 -39.961  0.00  0.00    -0.283 N 
ATOM     18  C   UNK d   1      -1.019 -21.640 -40.920  0.00  0.00     0.163 C 
ATOM     19  C   UNK d   1      -3.515 -18.336 -38.413  0.00  0.00     0.164 C 
ENDROOT
BRANCH  11  20
ATOM     20  C   UNK d   1       1.514 -17.139 -38.182  0.00  0.00     0.078 A 
ATOM     21  C   UNK d   1       1.533 -16.192 -37.181  0.00  0.00     0.197 A 
ATOM     22  N   UNK d   1       1.669 -14.873 -37.487  0.00  0.00    -0.281 N 
ATOM     23  O   UNK d   1       1.416 -16.589 -35.879  0.00  0.00    -0.171 OA
ATOM     24  C   UNK d   1       1.785 -14.474 -38.779  0.00  0.00     0.332 A 
ATOM     25  C   UNK d   1       1.684 -13.920 -36.382  0.00  0.00     0.163 C 
ATOM     26  O   UNK d   1       1.908 -13.242 -39.025  0.00  0.00    -0.246 OA
ATOM     27  N   UNK d   1       1.770 -15.374 -39.775  0.00  0.00    -0.270 N 
ATOM     28  C   UNK d   1       1.636 -16.681 -39.478  0.00  0.00     0.262 A 
ATOM     29  C   UNK d   1       1.896 -14.911 -41.153  0.00  0.00     0.164 C 
ATOM     30  O   UNK d   1       1.624 -17.499 -40.409  0.00  0.00    -0.267 OA
ENDBRANCH  11  20
TORSDOF 1
ENDMDL
