MODEL 1
REMARK VINA RESULT:    -6.314      0.000      0.000
REMARK INTER + INTRA:          -8.408
REMARK INTER:                  -7.421
REMARK INTRA:                  -0.986
REMARK UNBOUND:                -0.986
REMARK  3 active torsions:
REMARK  status: ('A' for Active; 'I' for Inactive)
REMARK       I    between atoms: N_11  and  C_13 
REMARK    1  A    between atoms: C_13  and  C_15 
REMARK    2  A    between atoms: C_15  and  N_16 
REMARK    3  A    between atoms: C_19  and  C_22 
REMARK       I    between atoms: C_22  and  N_24 
ROOT
ATOM      1 Cl   UNK d   1       5.748 -19.773 -40.063  0.00  0.00    -0.084 Cl
ATOM      2  C   UNK d   1       4.338 -19.168 -39.228  0.00  0.00     0.034 A 
ATOM      3  C   UNK d   1       3.362 -18.468 -39.901  0.00  0.00     0.035 A 
ATOM      4  C   UNK d   1       2.262 -18.000 -39.229  0.00  0.00    -0.005 A 
ATOM      5  C   UNK d   1       2.137 -18.240 -37.856  0.00  0.00     0.078 A 
ATOM      6  C   UNK d   1       3.114 -18.943 -37.171  0.00  0.00     0.039 A 
ATOM      7  C   UNK d   1       4.196 -19.393 -37.876  0.00  0.00     0.026 A 
ATOM      8  O   UNK d   1       1.093 -17.836 -37.037  0.00  0.00    -0.338 OA
ATOM      9  C   UNK d   1      -0.228 -17.527 -37.413  0.00  0.00     0.088 C 
ATOM     10  C   UNK d   1      -0.304 -16.320 -38.290  0.00  0.00     0.164 C 
ATOM     11  N   UNK d   1       0.719 -16.220 -39.287  0.00  0.00    -0.344 N 
ATOM     12  C   UNK d   1       1.299 -17.265 -40.089  0.00  0.00     0.167 C 
ATOM     13  C   UNK d   1       1.270 -14.919 -39.551  0.00  0.00     0.248 C 
ATOM     14  O   UNK d   1       2.163 -14.850 -40.432  0.00  0.00    -0.271 OA
ATOM     15  C   UNK d   1      -0.876 -18.750 -38.042  0.00  0.00     0.066 C 
ATOM     16  C   UNK d   1      -1.591 -19.570 -36.983  0.00  0.00     0.170 C 
ATOM     17  O   UNK d   1      -2.678 -18.909 -36.447  0.00  0.00    -0.391 OA
ATOM     18  C   UNK d   1      -2.500 -17.531 -36.503  0.00  0.00     0.170 C 
ATOM     19  C   UNK d   1      -1.055 -17.220 -36.162  0.00  0.00     0.066 C 
ENDROOT
BRANCH  13  20
ATOM     20  C   UNK d   1       0.815 -13.731 -38.831  0.00  0.00     0.374 C 
BRANCH  20  21
ATOM     21  N   UNK d   1       1.779 -12.995 -38.098  0.00  0.00     0.097 N 
ATOM     22  C   UNK d   1       2.092 -13.630 -36.816  0.00  0.00     0.273 C 
ATOM     23  C   UNK d   1       0.849 -13.690 -36.010  0.00  0.00     0.044 C 
ATOM     24  C   UNK d   1       0.033 -12.442 -35.947  0.00  0.00     0.081 C 
ATOM     25  C   UNK d   1       0.360 -11.371 -36.911  0.00  0.00     0.044 C 
ATOM     26  C   UNK d   1       1.475 -11.606 -37.858  0.00  0.00     0.273 C 
BRANCH  24  27
ATOM     27  C   UNK d   1      -1.420 -12.739 -35.955  0.00  0.00     0.219 C 
ATOM     28  O   UNK d   1      -1.845 -13.698 -36.631  0.00  0.00    -0.273 OA
ATOM     29  N   UNK d   1      -2.309 -11.940 -35.204  0.00  0.00    -0.370 N 
ATOM     30  H   UNK d   1      -2.688 -12.384 -34.317  0.00  0.00     0.159 HD
ATOM     31  H   UNK d   1      -2.616 -10.987 -35.433  0.00  0.00     0.159 HD
ENDBRANCH  24  27
ENDBRANCH  20  21
ENDBRANCH  13  20
TORSDOF 3
ENDMDL
