/Users/jonathanwahrer/Desktop/Msc/3_Semester/Drug_Design_Praktikum/waehrer_HTS_screening/HTS_experiment/out/docking_results/vina_output/6y4q/1991_docked.pdbqt
 OpenBabel03232218523D

 31 34  0  0  1  0  0  0  0  0999 V2000
    5.7480  -19.7730  -40.0630 Cl  0  0  0  0  0  0  0  0  0  0  0  0
    4.3380  -19.1680  -39.2280 C   0  0  0  0  0  0  0  0  0  0  0  0
    3.3620  -18.4680  -39.9010 C   0  0  0  0  0  3  0  0  0  0  0  0
    2.2620  -18.0000  -39.2290 C   0  0  0  0  0  0  0  0  0  0  0  0
    2.1370  -18.2400  -37.8560 C   0  0  0  0  0  0  0  0  0  0  0  0
    3.1140  -18.9430  -37.1710 C   0  0  0  0  0  3  0  0  0  0  0  0
    4.1960  -19.3930  -37.8760 C   0  0  0  0  0  3  0  0  0  0  0  0
    1.0930  -17.8360  -37.0370 O   0  0  0  0  0  0  0  0  0  0  0  0
   -0.2280  -17.5270  -37.4130 C   0  0  0  0  0  0  0  0  0  0  0  0
   -0.3040  -16.3200  -38.2900 C   0  0  0  0  0  2  0  0  0  0  0  0
    0.7190  -16.2200  -39.2870 N   0  0  0  0  0  0  0  0  0  0  0  0
    1.2990  -17.2650  -40.0890 C   0  0  0  0  0  2  0  0  0  0  0  0
    1.2700  -14.9190  -39.5510 C   0  0  0  0  0  0  0  0  0  0  0  0
    2.1630  -14.8500  -40.4320 O   0  0  0  0  0  0  0  0  0  0  0  0
   -0.8760  -18.7500  -38.0420 C   0  0  0  0  0  2  0  0  0  0  0  0
   -1.5910  -19.5700  -36.9830 C   0  0  0  0  0  2  0  0  0  0  0  0
   -2.6780  -18.9090  -36.4470 O   0  0  0  0  0  0  0  0  0  0  0  0
   -2.5000  -17.5310  -36.5030 C   0  0  0  0  0  2  0  0  0  0  0  0
   -1.0550  -17.2200  -36.1620 C   0  0  0  0  0  2  0  0  0  0  0  0
    0.8150  -13.7310  -38.8310 C   0  0  0  0  0  2  0  0  0  0  0  0
    1.7790  -12.9950  -38.0980 N   0  0  0  0  0  0  0  0  0  0  0  0
    2.0920  -13.6300  -36.8160 C   0  0  0  0  0  2  0  0  0  0  0  0
    0.8490  -13.6900  -36.0100 C   0  0  0  0  0  2  0  0  0  0  0  0
    0.0330  -12.4420  -35.9470 C   0  0  1  0  0  3  0  0  0  0  0  0
    0.3600  -11.3710  -36.9110 C   0  0  0  0  0  2  0  0  0  0  0  0
    1.4750  -11.6060  -37.8580 C   0  0  0  0  0  2  0  0  0  0  0  0
   -1.4200  -12.7390  -35.9550 C   0  0  0  0  0  0  0  0  0  0  0  0
   -1.8450  -13.6980  -36.6310 O   0  0  0  0  0  0  0  0  0  0  0  0
   -2.3090  -11.9400  -35.2040 N   0  0  0  0  0  0  0  0  0  0  0  0
   -2.6880  -12.3840  -34.3170 H   0  0  0  0  0  0  0  0  0  0  0  0
   -2.6160  -10.9870  -35.4330 H   0  0  0  0  0  0  0  0  0  0  0  0
  1  2  1  0  0  0  0
  2  7  1  0  0  0  0
  3  4  1  0  0  0  0
  3  2  2  0  0  0  0
  4  5  2  0  0  0  0
  5  6  1  0  0  0  0
  5  8  1  0  0  0  0
  7  6  2  0  0  0  0
  9  8  1  0  0  0  0
  9 19  1  0  0  0  0
 10  9  1  0  0  0  0
 11 10  1  0  0  0  0
 12 11  1  0  0  0  0
 12  4  1  0  0  0  0
 13 11  1  0  0  0  0
 13 20  1  0  0  0  0
 14 13  2  0  0  0  0
 15  9  1  0  0  0  0
 15 16  1  0  0  0  0
 16 17  1  0  0  0  0
 18 17  1  0  0  0  0
 18 19  1  0  0  0  0
 20 21  1  0  0  0  0
 21 26  1  0  0  0  0
 21 22  1  0  0  0  0
 22 23  1  0  0  0  0
 23 24  1  0  0  0  0
 24 27  1  6  0  0  0
 25 24  1  0  0  0  0
 26 25  1  0  0  0  0
 27 29  1  0  0  0  0
 28 27  2  0  0  0  0
 29 30  1  0  0  0  0
 31 29  1  0  0  0  0
M  END
>  <Pose>
1

>  <Score>
-6.314

$$$$
