MODEL 1
REMARK VINA RESULT:    -6.598      0.000      0.000
REMARK INTER + INTRA:          -8.053
REMARK INTER:                  -7.755
REMARK INTRA:                  -0.298
REMARK UNBOUND:                -0.298
REMARK  3 active torsions:
REMARK  status: ('A' for Active; 'I' for Inactive)
REMARK    1  A    between atoms: S_1  and  N_4 
REMARK    2  A    between atoms: S_1  and  C_23 
REMARK       I    between atoms: N_7  and  C_10 
REMARK    3  A    between atoms: C_10  and  C_12 
ROOT
ATOM      1  N   UNK d   1       1.831 -15.237 -37.907  0.00  0.00    -0.303 N 
ATOM      2  C   UNK d   1       1.667 -16.139 -39.005  0.00  0.00     0.155 C 
ATOM      3  C   UNK d   1       2.504 -17.385 -38.885  0.00  0.00     0.146 C 
ATOM      4  N   UNK d   1       2.617 -17.842 -37.520  0.00  0.00    -0.345 N 
ATOM      5  C   UNK d   1       1.969 -17.197 -36.409  0.00  0.00     0.146 C 
ATOM      6  C   UNK d   1       1.585 -15.782 -36.620  0.00  0.00     0.155 C 
ATOM      7  C   UNK d   1       3.409 -18.994 -37.261  0.00  0.00     0.260 C 
ATOM      8  O   UNK d   1       3.547 -19.448 -36.077  0.00  0.00    -0.267 OA
ENDROOT
BRANCH   7   9
ATOM      9  C   UNK d   1       4.093 -19.695 -38.348  0.00  0.00     0.118 A 
ATOM     10  C   UNK d   1       5.439 -19.547 -38.614  0.00  0.00     0.141 A 
ATOM     11  N   UNK d   1       6.002 -20.226 -39.631  0.00  0.00    -0.242 NA
ATOM     12  C   UNK d   1       5.317 -21.065 -40.429  0.00  0.00     0.136 A 
ATOM     13  N   UNK d   1       4.004 -21.221 -40.183  0.00  0.00    -0.273 N 
ATOM     14  C   UNK d   1       5.933 -21.749 -41.470  0.00  0.00     0.051 A 
ATOM     15  C   UNK d   1       3.301 -22.058 -40.971  0.00  0.00     0.102 A 
ATOM     16  C   UNK d   1       3.404 -20.559 -39.175  0.00  0.00     0.270 A 
ATOM     17  C   UNK d   1       3.884 -22.750 -42.013  0.00  0.00     0.018 A 
ATOM     18  C   UNK d   1       5.230 -22.613 -42.292  0.00  0.00     0.005 A 
ATOM     19  O   UNK d   1       2.178 -20.704 -38.945  0.00  0.00    -0.266 OA
ENDBRANCH   7   9
BRANCH   1  20
ATOM     20  S   UNK d   1       1.209 -13.684 -38.170  0.00  0.00     0.267 S 
ATOM     21  O   UNK d   1       0.319 -13.655 -39.352  0.00  0.00    -0.200 OA
ATOM     22  O   UNK d   1       0.441 -13.255 -36.940  0.00  0.00    -0.200 OA
BRANCH  20  23
ATOM     23  C   UNK d   1       2.561 -12.563 -38.405  0.00  0.00     0.121 A 
ATOM     24  S   UNK d   1       3.508 -12.284 -39.795  0.00  0.00    -0.064 SA
ATOM     25  C   UNK d   1       4.551 -11.086 -39.176  0.00  0.00     0.075 A 
ATOM     26  C   UNK d   1       4.122 -10.939 -37.886  0.00  0.00     0.033 A 
ATOM     27 Cl   UNK d   1       5.878 -10.216 -39.972  0.00  0.00    -0.076 Cl
ATOM     28  C   UNK d   1       3.097 -11.698 -37.486  0.00  0.00     0.035 A 
ENDBRANCH  20  23
ENDBRANCH   1  20
TORSDOF 3
ENDMDL
