MODEL 1
REMARK VINA RESULT:    -6.427      0.000      0.000
REMARK INTER + INTRA:          -7.785
REMARK INTER:                  -7.554
REMARK INTRA:                  -0.231
REMARK UNBOUND:                -0.231
REMARK  3 active torsions:
REMARK  status: ('A' for Active; 'I' for Inactive)
REMARK    1  A    between atoms: S_1  and  N_4 
REMARK    2  A    between atoms: S_1  and  C_16 
REMARK       I    between atoms: N_7  and  C_10 
REMARK    3  A    between atoms: C_10  and  C_12 
ROOT
ATOM      1  S   UNK d   1       0.404 -15.851 -38.816  0.00  0.00     0.262 S 
ATOM      2  O   UNK d   1       0.136 -15.872 -40.314  0.00  0.00    -0.200 OA
ATOM      3  O   UNK d   1      -0.902 -16.352 -38.202  0.00  0.00    -0.200 OA
ENDROOT
BRANCH   1   4
ATOM      4  N   UNK d   1       0.707 -14.299 -38.268  0.00  0.00    -0.304 N 
ATOM      5  C   UNK d   1      -0.049 -13.250 -38.796  0.00  0.00     0.155 C 
ATOM      6  C   UNK d   1       0.134 -11.935 -38.025  0.00  0.00     0.146 C 
ATOM      7  N   UNK d   1       1.492 -11.754 -37.606  0.00  0.00    -0.349 N 
ATOM      8  C   UNK d   1       2.182 -12.887 -37.028  0.00  0.00     0.146 C 
ATOM      9  C   UNK d   1       2.123 -10.514 -37.756  0.00  0.00     0.224 C 
ATOM     10  C   UNK d   1       2.104 -14.006 -38.048  0.00  0.00     0.155 C 
ATOM     11  O   UNK d   1       1.503  -9.544 -38.262  0.00  0.00    -0.273 OA
BRANCH   9  12
ATOM     12  C   UNK d   1       3.539 -10.278 -37.333  0.00  0.00     0.078 C 
ATOM     13  C   UNK d   1       4.056  -8.903 -37.687  0.00  0.00     0.014 C 
ATOM     14  C   UNK d   1       4.550  -9.501 -39.002  0.00  0.00     0.002 C 
ATOM     15  C   UNK d   1       4.521 -10.868 -38.313  0.00  0.00     0.014 C 
ENDBRANCH   9  12
ENDBRANCH   1   4
BRANCH   1  16
ATOM     16  C   UNK d   1       1.618 -17.060 -38.463  0.00  0.00     0.104 A 
ATOM     17  C   UNK d   1       2.262 -17.706 -39.537  0.00  0.00     0.066 A 
ATOM     18  C   UNK d   1       3.182 -18.707 -39.324  0.00  0.00     0.098 A 
ATOM     19  C   UNK d   1       3.528 -19.138 -38.063  0.00  0.00     0.070 A 
ATOM     20  O   UNK d   1       3.806 -19.330 -40.405  0.00  0.00    -0.335 OA
ATOM     21  C   UNK d   1       2.905 -18.510 -37.013  0.00  0.00     0.058 A 
ATOM     22  N   UNK d   1       4.481 -20.175 -37.912  0.00  0.00    -0.323 N 
ATOM     23  C   UNK d   1       1.966 -17.488 -37.209  0.00  0.00     0.059 A 
ATOM     24 Cl   UNK d   1       1.274 -16.687 -35.818  0.00  0.00    -0.083 Cl
ATOM     25  C   UNK d   1       5.105 -20.802 -39.025  0.00  0.00     0.251 C 
ATOM     26  H   UNK d   1       4.740 -20.498 -36.951  0.00  0.00     0.169 HD
ATOM     27  O   UNK d   1       6.119 -21.524 -38.962  0.00  0.00    -0.270 OA
ATOM     28  C   UNK d   1       4.476 -20.560 -40.350  0.00  0.00     0.217 C 
ATOM     29  C   UNK d   1       3.486 -21.654 -40.682  0.00  0.00     0.050 C 
ENDBRANCH   1  16
TORSDOF 3
ENDMDL
