/Users/jonathanwahrer/Desktop/Msc/3_Semester/Drug_Design_Praktikum/waehrer_HTS_screening/HTS_experiment/out/docking_results/vina_output/6y4q/2012_docked.pdbqt
 OpenBabel03232218523D

 25 28  0  0  1  0  0  0  0  0999 V2000
    2.8780  -18.4590  -37.5560 N   0  0  0  0  0  0  0  0  0  0  0  0
    3.9990  -18.8310  -36.7620 C   0  0  0  0  0  0  0  0  0  0  0  0
    3.9480  -19.0690  -35.5430 O   0  0  0  0  0  0  0  0  0  0  0  0
    5.2000  -18.8810  -37.6110 C   0  0  1  0  0  3  0  0  0  0  0  0
    6.1300  -19.8350  -37.3500 O   0  0  0  0  0  0  0  0  0  0  0  0
    6.5820  -20.1690  -38.6140 N   0  0  0  0  0  0  0  0  0  0  0  0
    5.4600  -20.1640  -39.5010 C   0  0  0  0  0  0  0  0  0  0  0  0
    4.5870  -19.3710  -38.8900 C   0  0  0  0  0  0  0  0  0  0  0  0
    3.2490  -18.8000  -38.9170 C   0  0  0  0  0  0  0  0  0  0  0  0
    2.5760  -18.6510  -39.9690 O   0  0  0  0  0  0  0  0  0  0  0  0
    7.5700  -20.3690  -38.8360 H   0  0  0  0  0  0  0  0  0  0  0  0
    1.6240  -17.8910  -37.1990 C   0  0  0  0  0  0  0  0  0  0  0  0
    0.4280  -18.4690  -37.5580 C   0  0  0  0  0  3  0  0  0  0  0  0
   -0.7500  -17.8430  -37.1610 C   0  0  0  0  0  0  0  0  0  0  0  0
   -2.3130  -18.5310  -37.5940 Cl  0  0  0  0  0  0  0  0  0  0  0  0
   -0.7080  -16.6750  -36.4290 C   0  0  0  0  0  3  0  0  0  0  0  0
    0.4960  -16.0960  -36.0670 C   0  0  0  0  0  3  0  0  0  0  0  0
    1.6540  -16.7030  -36.4520 C   0  0  0  0  0  3  0  0  0  0  0  0
    5.3180  -20.8170  -40.7870 C   0  0  0  0  0  0  0  0  0  0  0  0
    4.7980  -22.1100  -40.9020 C   0  0  0  0  0  3  0  0  0  0  0  0
    4.7880  -22.4780  -42.1920 N   0  0  0  0  0  0  0  0  0  0  0  0
    5.2830  -21.4690  -42.9110 N   0  0  0  0  0  0  0  0  0  0  0  0
    4.3390  -23.7320  -42.7870 C   0  0  0  0  0  1  0  0  0  0  0  0
    5.6080  -20.4580  -42.0720 C   0  0  0  0  0  0  0  0  0  0  0  0
    6.2060  -19.1610  -42.4750 C   0  0  0  0  0  1  0  0  0  0  0  0
  1 12  1  0  0  0  0
  1  2  1  0  0  0  0
  2  3  2  0  0  0  0
  4  8  1  6  0  0  0
  4  5  1  0  0  0  0
  4  2  1  0  0  0  0
  6  5  1  0  0  0  0
  7  8  2  0  0  0  0
  7  6  1  0  0  0  0
  9  8  1  0  0  0  0
  9  1  1  0  0  0  0
 10  9  2  0  0  0  0
 11  6  1  0  0  0  0
 12 18  1  0  0  0  0
 13 12  2  0  0  0  0
 13 14  1  0  0  0  0
 14 16  2  0  0  0  0
 15 14  1  0  0  0  0
 16 17  1  0  0  0  0
 18 17  2  0  0  0  0
 19  7  1  0  0  0  0
 20 19  2  0  0  0  0
 21 20  1  0  0  0  0
 22 21  1  0  0  0  0
 22 24  2  0  0  0  0
 23 21  1  0  0  0  0
 24 19  1  0  0  0  0
 25 24  1  0  0  0  0
M  END
>  <Pose>
1

>  <Score>
-6.208

$$$$
