MODEL 1
REMARK VINA RESULT:    -6.208      0.000      0.000
REMARK INTER + INTRA:          -7.512
REMARK INTER:                  -6.934
REMARK INTRA:                  -0.577
REMARK UNBOUND:                -0.577
REMARK  2 active torsions:
REMARK  status: ('A' for Active; 'I' for Inactive)
REMARK    1  A    between atoms: C_4  and  N_8 
REMARK    2  A    between atoms: C_14  and  C_18 
ROOT
ATOM      1  N   UNK d   1       2.878 -18.459 -37.556  0.00  0.00    -0.246 N 
ATOM      2  C   UNK d   1       3.999 -18.831 -36.762  0.00  0.00     0.268 C 
ATOM      3  O   UNK d   1       3.948 -19.069 -35.543  0.00  0.00    -0.269 OA
ATOM      4  C   UNK d   1       5.200 -18.881 -37.611  0.00  0.00     0.285 C 
ATOM      5  O   UNK d   1       6.130 -19.835 -37.350  0.00  0.00    -0.260 OA
ATOM      6  N   UNK d   1       6.582 -20.169 -38.614  0.00  0.00    -0.264 N 
ATOM      7  C   UNK d   1       5.460 -20.164 -39.501  0.00  0.00     0.083 C 
ATOM      8  C   UNK d   1       4.587 -19.371 -38.890  0.00  0.00     0.080 C 
ATOM      9  C   UNK d   1       3.249 -18.800 -38.917  0.00  0.00     0.266 C 
ATOM     10  O   UNK d   1       2.576 -18.651 -39.969  0.00  0.00    -0.267 OA
ATOM     11  H   UNK d   1       7.570 -20.369 -38.836  0.00  0.00     0.194 HD
ENDROOT
BRANCH   1  12
ATOM     12  C   UNK d   1       1.624 -17.891 -37.199  0.00  0.00     0.047 A 
ATOM     13  C   UNK d   1       0.428 -18.469 -37.558  0.00  0.00     0.054 A 
ATOM     14  C   UNK d   1      -0.750 -17.843 -37.161  0.00  0.00     0.036 A 
ATOM     15 Cl   UNK d   1      -2.313 -18.531 -37.594  0.00  0.00    -0.084 Cl
ATOM     16  C   UNK d   1      -0.708 -16.675 -36.429  0.00  0.00     0.024 A 
ATOM     17  C   UNK d   1       0.496 -16.096 -36.067  0.00  0.00     0.004 A 
ATOM     18  C   UNK d   1       1.654 -16.703 -36.452  0.00  0.00     0.030 A 
ENDBRANCH   1  12
BRANCH   7  19
ATOM     19  C   UNK d   1       5.318 -20.817 -40.787  0.00  0.00     0.036 A 
ATOM     20  C   UNK d   1       4.798 -22.110 -40.902  0.00  0.00     0.127 A 
ATOM     21  N   UNK d   1       4.788 -22.478 -42.192  0.00  0.00    -0.284 N 
ATOM     22  N   UNK d   1       5.283 -21.469 -42.911  0.00  0.00    -0.177 NA
ATOM     23  C   UNK d   1       4.339 -23.732 -42.787  0.00  0.00     0.179 C 
ATOM     24  C   UNK d   1       5.608 -20.458 -42.072  0.00  0.00     0.065 A 
ATOM     25  C   UNK d   1       6.206 -19.161 -42.475  0.00  0.00     0.073 C 
ENDBRANCH   7  19
TORSDOF 2
ENDMDL
