MODEL 1
REMARK VINA RESULT:    -5.837      0.000      0.000
REMARK INTER + INTRA:          -7.066
REMARK INTER:                  -6.519
REMARK INTRA:                  -0.547
REMARK UNBOUND:                -0.547
REMARK  2 active torsions:
REMARK  status: ('A' for Active; 'I' for Inactive)
REMARK    1  A    between atoms: C_4  and  C_10 
REMARK    2  A    between atoms: C_5  and  O_8 
ROOT
ATOM      1  C   UNK d   1       2.088 -17.326 -36.768  0.00  0.00     0.188 A 
ATOM      2  N   UNK d   1       2.321 -18.208 -37.735  0.00  0.00    -0.107 N 
ATOM      3  C   UNK d   1       3.251 -19.118 -37.321  0.00  0.00     0.735 A 
ATOM      4  N   UNK d   1       3.567 -18.750 -36.058  0.00  0.00     0.045 NA
ATOM      5  N   UNK d   1       2.886 -17.690 -35.716  0.00  0.00    -0.114 NA
ATOM      6  N   UNK d   1       3.495 -20.018 -38.286  0.00  0.00    -0.174 N 
ATOM      7  C   UNK d   1       2.744 -19.730 -39.343  0.00  0.00     0.165 A 
ATOM      8  C   UNK d   1       2.001 -18.588 -38.998  0.00  0.00     0.170 A 
ATOM      9  N   UNK d   1       1.136 -18.072 -39.880  0.00  0.00    -0.286 N 
ATOM     10  C   UNK d   1       1.018 -18.683 -41.090  0.00  0.00     0.332 A 
ATOM     11  O   UNK d   1       0.191 -18.171 -41.908  0.00  0.00    -0.246 OA
ATOM     12  N   UNK d   1       1.698 -19.762 -41.466  0.00  0.00    -0.269 N 
ATOM     13  C   UNK d   1       2.559 -20.281 -40.589  0.00  0.00     0.282 A 
ATOM     14  O   UNK d   1       3.229 -21.302 -40.893  0.00  0.00    -0.265 OA
ATOM     15  C   UNK d   1       1.511 -20.363 -42.799  0.00  0.00     0.164 C 
ATOM     16  C   UNK d   1       0.319 -16.933 -39.581  0.00  0.00     0.163 C 
ATOM     17  C   UNK d   1       4.421 -21.130 -38.214  0.00  0.00     0.176 C 
ENDROOT
BRANCH   1  18
ATOM     18  C   UNK d   1       1.205 -16.169 -36.664  0.00  0.00     0.047 A 
ATOM     19  C   UNK d   1       1.669 -14.892 -36.967  0.00  0.00     0.037 A 
ATOM     20  C   UNK d   1       0.811 -13.827 -36.940  0.00  0.00     0.012 A 
ATOM     21 Br   UNK d   1       1.433 -12.060 -37.354  0.00  0.00    -0.051 Br
ATOM     22  C   UNK d   1      -0.530 -13.943 -36.620  0.00  0.00     0.022 A 
ATOM     23  C   UNK d   1      -0.979 -15.219 -36.321  0.00  0.00     0.039 A 
ATOM     24  C   UNK d   1      -0.132 -16.287 -36.345  0.00  0.00     0.082 A 
BRANCH  24  25
ATOM     25  O   UNK d   1      -0.576 -17.594 -36.043  0.00  0.00    -0.355 OA
ATOM     26  C   UNK d   1      -1.929 -17.963 -36.236  0.00  0.00     0.210 C 
ENDBRANCH  24  25
ENDBRANCH   1  18
TORSDOF 2
ENDMDL
