/Users/jonathanwahrer/Desktop/Msc/3_Semester/Drug_Design_Praktikum/waehrer_HTS_screening/HTS_experiment/out/docking_results/vina_output/6y4q/2017_docked.pdbqt
 OpenBabel03232218523D

 24 27  0  0  0  0  0  0  0  0999 V2000
    4.0810   -9.8910  -38.3140 Cl  0  0  0  0  0  0  0  0  0  0  0  0
    3.3960  -11.4910  -38.5440 C   0  0  0  0  0  0  0  0  0  0  0  0
    2.6680  -12.1320  -37.5600 C   0  0  0  0  0  2  0  0  0  0  0  0
    2.1420  -13.3710  -37.7480 N   0  0  0  0  0  0  0  0  0  0  0  0
    2.2930  -14.0530  -38.8960 C   0  0  0  0  0  0  0  0  0  0  0  0
    1.7770  -15.2810  -39.0920 N   0  0  0  0  0  0  0  0  0  0  0  0
    1.0670  -15.9120  -38.1400 C   0  0  0  0  0  0  0  0  0  0  0  0
    0.9040  -15.2110  -36.9440 C   0  0  0  0  0  2  0  0  0  0  0  0
    1.4380  -13.9550  -36.7550 C   0  0  0  0  0  0  0  0  0  0  0  0
    1.2880  -13.3200  -35.6610 O   0  0  0  0  0  0  0  0  0  0  0  0
    3.0210  -13.4310  -39.9030 C   0  0  0  0  0  3  0  0  0  0  0  0
    3.5630  -12.1740  -39.7300 C   0  0  0  0  0  3  0  0  0  0  0  0
    0.4770  -17.2650  -38.3090 C   0  0  0  0  0  2  0  0  0  0  0  0
    1.2740  -18.2120  -37.6200 N   0  0  0  0  0  0  0  0  0  0  0  0
    2.4660  -17.7540  -37.0100 C   0  0  0  0  0  2  0  0  0  0  0  0
    3.5640  -18.8020  -36.9150 C   0  0  0  0  0  2  0  0  0  0  0  0
    3.6820  -19.3930  -38.2740 C   0  0  0  0  0  0  0  0  0  0  0  0
    2.4970  -19.7700  -38.8700 C   0  0  0  0  0  0  0  0  0  0  0  0
    4.9100  -19.5410  -38.8780 C   0  0  0  0  0  3  0  0  0  0  0  0
    2.5520  -20.3070  -40.0980 N   0  0  0  0  0  0  0  0  0  0  0  0
    1.2470  -19.5510  -38.1020 C   0  0  0  0  0  2  0  0  0  0  0  0
    3.7560  -20.4710  -40.7300 C   0  0  0  0  0  0  0  0  0  0  0  0
    4.8990  -20.0880  -40.1130 N   0  0  0  0  0  0  0  0  0  0  0  0
    3.8300  -21.0640  -42.0900 C   0  0  0  0  0  1  0  0  0  0  0  0
  2  1  1  0  0  0  0
  2  3  1  0  0  0  0
  4  3  1  0  0  0  0
  4  9  1  0  0  0  0
  5  4  1  0  0  0  0
  6  5  1  0  0  0  0
  6  7  2  0  0  0  0
  7  8  1  0  0  0  0
  8  9  1  0  0  0  0
  9 10  2  0  0  0  0
 11 12  1  0  0  0  0
 11  5  2  0  0  0  0
 12  2  2  0  0  0  0
 13  7  1  0  0  0  0
 13 14  1  0  0  0  0
 14 15  1  0  0  0  0
 15 16  1  0  0  0  0
 17 16  1  0  0  0  0
 18 17  2  0  0  0  0
 18 21  1  0  0  0  0
 19 17  1  0  0  0  0
 20 18  1  0  0  0  0
 21 14  1  0  0  0  0
 22 23  1  0  0  0  0
 22 20  2  0  0  0  0
 23 19  2  0  0  0  0
 24 22  1  0  0  0  0
M  END
>  <Pose>
1

>  <Score>
-6.522

$$$$
