MODEL 1
REMARK VINA RESULT:    -6.522      0.000      0.000
REMARK INTER + INTRA:          -7.154
REMARK INTER:                  -7.284
REMARK INTRA:                   0.130
REMARK UNBOUND:                 0.130
REMARK  2 active torsions:
REMARK  status: ('A' for Active; 'I' for Inactive)
REMARK    1  A    between atoms: C_7  and  C_11 
REMARK    2  A    between atoms: C_11  and  N_12 
ROOT
ATOM      1 Cl   UNK d   1       4.081  -9.891 -38.314  0.00  0.00    -0.083 Cl
ATOM      2  C   UNK d   1       3.396 -11.491 -38.544  0.00  0.00     0.050 A 
ATOM      3  C   UNK d   1       2.668 -12.132 -37.560  0.00  0.00     0.125 A 
ATOM      4  N   UNK d   1       2.142 -13.371 -37.748  0.00  0.00    -0.272 N 
ATOM      5  C   UNK d   1       2.293 -14.053 -38.896  0.00  0.00     0.137 A 
ATOM      6  N   UNK d   1       1.777 -15.281 -39.092  0.00  0.00    -0.233 NA
ATOM      7  C   UNK d   1       1.067 -15.912 -38.140  0.00  0.00     0.059 A 
ATOM      8  C   UNK d   1       0.904 -15.211 -36.944  0.00  0.00     0.103 A 
ATOM      9  C   UNK d   1       1.438 -13.955 -36.755  0.00  0.00     0.255 A 
ATOM     10  O   UNK d   1       1.288 -13.320 -35.661  0.00  0.00    -0.268 OA
ATOM     11  C   UNK d   1       3.021 -13.431 -39.903  0.00  0.00     0.053 A 
ATOM     12  C   UNK d   1       3.563 -12.174 -39.730  0.00  0.00     0.029 A 
ENDROOT
BRANCH   7  13
ATOM     13  C   UNK d   1       0.477 -17.265 -38.309  0.00  0.00     0.177 C 
BRANCH  13  14
ATOM     14  N   UNK d   1       1.274 -18.212 -37.620  0.00  0.00    -0.401 N 
ATOM     15  C   UNK d   1       2.466 -17.754 -37.010  0.00  0.00     0.122 C 
ATOM     16  C   UNK d   1       3.564 -18.802 -36.915  0.00  0.00     0.061 C 
ATOM     17  C   UNK d   1       3.682 -19.393 -38.274  0.00  0.00    -0.013 A 
ATOM     18  C   UNK d   1       2.497 -19.770 -38.870  0.00  0.00     0.061 A 
ATOM     19  C   UNK d   1       4.910 -19.541 -38.878  0.00  0.00     0.128 A 
ATOM     20  N   UNK d   1       2.552 -20.307 -40.098  0.00  0.00    -0.236 NA
ATOM     21  C   UNK d   1       1.247 -19.551 -38.102  0.00  0.00     0.177 C 
ATOM     22  C   UNK d   1       3.756 -20.471 -40.730  0.00  0.00     0.122 A 
ATOM     23  N   UNK d   1       4.899 -20.088 -40.113  0.00  0.00    -0.245 NA
ATOM     24  C   UNK d   1       3.830 -21.064 -42.090  0.00  0.00     0.093 C 
ENDBRANCH  13  14
ENDBRANCH   7  13
TORSDOF 2
ENDMDL
