MODEL 1
REMARK VINA RESULT:    -5.134      0.000      0.000
REMARK INTER + INTRA:          -4.213
REMARK INTER:                  -5.734
REMARK INTRA:                   1.522
REMARK UNBOUND:                 1.522
REMARK  2 active torsions:
REMARK  status: ('A' for Active; 'I' for Inactive)
REMARK    1  A    between atoms: C_4  and  C_10 
REMARK    2  A    between atoms: C_5  and  O_8 
ROOT
ATOM      1  C   UNK d   1       0.987 -15.661 -36.037  0.00  0.00     0.048 C 
ATOM      2  C   UNK d   1       2.026 -16.244 -37.035  0.00  0.00     0.178 C 
ATOM      3  C   UNK d   1       1.358 -15.752 -38.334  0.00  0.00     0.233 C 
ATOM      4  O   UNK d   1       1.954 -15.177 -39.227  0.00  0.00    -0.273 OA
ATOM      5  N   UNK d   1      -0.052 -16.070 -38.332  0.00  0.00    -0.334 N 
ATOM      6  C   UNK d   1      -0.425 -17.135 -37.383  0.00  0.00     0.105 C 
ATOM      7  N   UNK d   1       0.596 -18.166 -37.621  0.00  0.00    -0.334 N 
ATOM      8  C   UNK d   1       1.899 -17.725 -37.190  0.00  0.00     0.233 C 
ATOM      9  O   UNK d   1       2.848 -18.498 -36.965  0.00  0.00    -0.273 OA
ATOM     10  C   UNK d   1      -0.110 -16.583 -35.967  0.00  0.00     0.064 C 
ATOM     11  C   UNK d   1      -1.801 -17.627 -37.487  0.00  0.00     0.063 C 
ATOM     12  H   UNK d   1      -0.746 -15.595 -38.916  0.00  0.00     0.165 HD
ATOM     13  H   UNK d   1       0.389 -19.078 -38.045  0.00  0.00     0.165 HD
ENDROOT
BRANCH   1  14
ATOM     14  C   UNK d   1       0.844 -14.282 -36.490  0.00  0.00    -0.018 A 
ATOM     15  C   UNK d   1       2.026 -13.579 -36.755  0.00  0.00     0.029 A 
ATOM     16  C   UNK d   1       2.000 -12.228 -37.108  0.00  0.00     0.011 A 
ATOM     17 Br   UNK d   1       3.626 -11.302 -37.450  0.00  0.00    -0.051 Br
ATOM     18  C   UNK d   1       0.829 -11.547 -37.209  0.00  0.00     0.022 A 
ATOM     19  C   UNK d   1      -0.333 -12.218 -36.952  0.00  0.00     0.038 A 
ATOM     20  C   UNK d   1      -0.329 -13.557 -36.602  0.00  0.00     0.074 A 
BRANCH  20  21
ATOM     21  O   UNK d   1      -1.473 -14.260 -36.351  0.00  0.00    -0.355 OA
ATOM     22  C   UNK d   1      -2.655 -13.943 -37.036  0.00  0.00     0.210 C 
ENDBRANCH  20  21
ENDBRANCH   1  14
TORSDOF 2
ENDMDL
