MODEL 1
REMARK VINA RESULT:    -6.179      0.000      0.000
REMARK INTER + INTRA:          -8.611
REMARK INTER:                  -7.805
REMARK INTRA:                  -0.806
REMARK UNBOUND:                -0.806
REMARK  5 active torsions:
REMARK  status: ('A' for Active; 'I' for Inactive)
REMARK    1  A    between atoms: C_11  and  C_23 
REMARK    2  A    between atoms: N_16  and  C_19 
REMARK    3  A    between atoms: C_19  and  C_20 
REMARK    4  A    between atoms: C_20  and  O_21 
REMARK    5  A    between atoms: C_23  and  O_24 
ROOT
ATOM      1 Cl   UNK d   1       3.179 -12.552 -40.539  0.00  0.00    -0.082 Cl
ATOM      2  C   UNK d   1       2.405 -13.703 -39.452  0.00  0.00     0.061 A 
ATOM      3  C   UNK d   1       2.196 -15.014 -39.917  0.00  0.00     0.066 A 
ATOM      4  C   UNK d   1       1.601 -15.903 -39.072  0.00  0.00     0.020 A 
ATOM      5  C   UNK d   1       1.202 -15.543 -37.792  0.00  0.00     0.019 A 
ATOM      6  C   UNK d   1       1.418 -14.253 -37.366  0.00  0.00    -0.060 A 
ATOM      7  C   UNK d   1       2.020 -13.324 -38.185  0.00  0.00     0.033 A 
ATOM      8  C   UNK d   1       0.975 -13.890 -35.974  0.00  0.00     0.048 C 
ATOM      9  C   UNK d   1       1.615 -17.234 -39.753  0.00  0.00     0.279 C 
ATOM     10  N   UNK d   1       0.473 -18.029 -39.537  0.00  0.00     0.116 N 
ATOM     11  C   UNK d   1       0.725 -18.803 -38.354  0.00  0.00     0.264 C 
ATOM     12  C   UNK d   1       2.142 -18.662 -37.974  0.00  0.00     0.130 C 
ATOM     13  C   UNK d   1       2.746 -18.077 -39.253  0.00  0.00     0.147 C 
ATOM     14  C   UNK d   1       2.966 -19.283 -40.030  0.00  0.00     0.235 C 
ATOM     15  O   UNK d   1       2.853 -19.558 -41.245  0.00  0.00    -0.272 OA
ATOM     16  N   UNK d   1       3.399 -20.273 -39.059  0.00  0.00    -0.286 N 
ATOM     17  C   UNK d   1       2.918 -19.881 -37.782  0.00  0.00     0.233 C 
ATOM     18  O   UNK d   1       3.135 -20.483 -36.721  0.00  0.00    -0.272 OA
ATOM     19  C   UNK d   1       1.880 -16.895 -41.150  0.00  0.00     0.267 C 
ATOM     20  O   UNK d   1       1.719 -17.563 -42.219  0.00  0.00    -0.270 OA
ATOM     21  N   UNK d   1       2.394 -15.585 -41.205  0.00  0.00    -0.323 N 
ATOM     22  H   UNK d   1      -0.409 -17.469 -39.452  0.00  0.00     0.318 HD
ATOM     23  H   UNK d   1       2.846 -15.073 -42.005  0.00  0.00     0.169 HD
ENDROOT
BRANCH  11  24
ATOM     24  C   UNK d   1       0.217 -20.227 -38.482  0.00  0.00     0.148 C 
ATOM     25  C   UNK d   1      -0.374 -20.420 -39.839  0.00  0.00     0.041 C 
BRANCH  24  26
ATOM     26  O   UNK d   1      -0.524 -20.675 -37.429  0.00  0.00    -0.394 OA
ATOM     27  H   UNK d   1      -1.450 -20.324 -37.395  0.00  0.00     0.210 HD
ENDBRANCH  24  26
ENDBRANCH  11  24
BRANCH  16  28
ATOM     28  C   UNK d   1       4.188 -21.454 -39.290  0.00  0.00     0.161 C 
BRANCH  28  29
ATOM     29  C   UNK d   1       5.637 -21.328 -38.999  0.00  0.00     0.187 C 
BRANCH  29  30
ATOM     30  O   UNK d   1       6.191 -20.085 -39.051  0.00  0.00    -0.394 OA
ATOM     31  C   UNK d   1       6.608 -19.574 -37.840  0.00  0.00     0.201 C 
ENDBRANCH  29  30
ENDBRANCH  28  29
ENDBRANCH  16  28
TORSDOF 5
ENDMDL
