MODEL 1
REMARK VINA RESULT:    -7.148      0.000      0.000
REMARK INTER + INTRA:          -9.816
REMARK INTER:                  -9.237
REMARK INTRA:                  -0.579
REMARK UNBOUND:                -0.579
REMARK  5 active torsions:
REMARK  status: ('A' for Active; 'I' for Inactive)
REMARK    1  A    between atoms: C_4  and  C_10 
REMARK    2  A    between atoms: C_5  and  O_8 
REMARK    3  A    between atoms: C_18  and  C_19 
REMARK    4  A    between atoms: C_19  and  N_20 
REMARK    5  A    between atoms: N_23  and  C_26 
ROOT
ATOM      1  C   UNK d   1       2.594 -12.277 -37.738  0.00  0.00     0.055 C 
ATOM      2  C   UNK d   1       2.012 -13.410 -37.513  0.00  0.00     0.128 A 
ATOM      3  O   UNK d   1       2.131 -14.552 -38.255  0.00  0.00    -0.305 OA
ATOM      4  C   UNK d   1       1.352 -15.553 -37.678  0.00  0.00     0.101 A 
ATOM      5  C   UNK d   1       0.703 -15.121 -36.567  0.00  0.00     0.051 A 
ATOM      6  C   UNK d   1      -0.119 -15.980 -35.828  0.00  0.00     0.021 A 
ATOM      7  C   UNK d   1      -0.313 -17.289 -36.184  0.00  0.00     0.041 A 
ATOM      8  C   UNK d   1       0.376 -17.687 -37.343  0.00  0.00     0.118 A 
ATOM      9  C   UNK d   1       1.181 -16.884 -38.076  0.00  0.00     0.039 A 
ATOM     10  O   UNK d   1       0.129 -19.036 -37.677  0.00  0.00    -0.191 OA
ATOM     11  C   UNK d   1       1.098 -13.717 -36.411  0.00  0.00     0.218 A 
ATOM     12  O   UNK d   1       0.721 -12.929 -35.495  0.00  0.00    -0.284 OA
ENDROOT
BRANCH   1  13
ATOM     13  C   UNK d   1       3.505 -11.960 -38.828  0.00  0.00     0.001 A 
ATOM     14  C   UNK d   1       3.456 -12.670 -39.999  0.00  0.00     0.033 A 
ATOM     15  C   UNK d   1       4.358 -12.396 -41.042  0.00  0.00     0.011 A 
ATOM     16 Br   UNK d   1       4.319 -13.352 -42.681  0.00  0.00    -0.051 Br
ATOM     17  C   UNK d   1       5.299 -11.404 -40.876  0.00  0.00     0.022 A 
ATOM     18  C   UNK d   1       5.350 -10.701 -39.716  0.00  0.00     0.039 A 
ATOM     19  C   UNK d   1       4.450 -10.972 -38.674  0.00  0.00     0.078 A 
BRANCH  19  20
ATOM     20  O   UNK d   1       4.452 -10.308 -37.497  0.00  0.00    -0.355 OA
ATOM     21  C   UNK d   1       4.139  -8.976 -37.276  0.00  0.00     0.210 C 
ENDBRANCH  19  20
ENDBRANCH   1  13
BRANCH   9  22
ATOM     22  C   UNK d   1       1.864 -17.285 -39.321  0.00  0.00     0.279 C 
BRANCH  22  23
ATOM     23  N   UNK d   1       2.403 -18.621 -39.223  0.00  0.00    -0.064 N 
ATOM     24  C   UNK d   1       3.537 -18.614 -38.317  0.00  0.00     0.254 C 
ATOM     25  C   UNK d   1       4.664 -19.465 -38.725  0.00  0.00     0.144 C 
ATOM     26  N   UNK d   1       4.333 -20.637 -39.471  0.00  0.00    -0.410 N 
ATOM     27  C   UNK d   1       3.024 -20.783 -39.921  0.00  0.00     0.144 C 
ATOM     28  C   UNK d   1       2.465 -19.404 -40.360  0.00  0.00     0.254 C 
ATOM     29  H   UNK d   1       1.611 -19.111 -38.599  0.00  0.00     0.280 HD
BRANCH  26  30
ATOM     30  C   UNK d   1       5.371 -21.222 -40.232  0.00  0.00     0.112 C 
ATOM     31  C   UNK d   1       4.933 -22.127 -41.329  0.00  0.00     0.026 C 
ENDBRANCH  26  30
ENDBRANCH  22  23
ENDBRANCH   9  22
TORSDOF 5
ENDMDL
