MODEL 1
REMARK VINA RESULT:    -6.965      0.000      0.000
REMARK INTER + INTRA:          -9.656
REMARK INTER:                  -9.002
REMARK INTRA:                  -0.655
REMARK UNBOUND:                -0.655
REMARK  5 active torsions:
REMARK  status: ('A' for Active; 'I' for Inactive)
REMARK    1  A    between atoms: S_1  and  N_4 
REMARK    2  A    between atoms: S_1  and  C_24 
REMARK       I    between atoms: N_7  and  C_10 
REMARK    3  A    between atoms: C_10  and  C_12 
REMARK    4  A    between atoms: C_12  and  S_13 
REMARK    5  A    between atoms: S_13  and  C_14 
ROOT
ATOM      1  N   UNK d   1       4.692 -20.827 -40.621  0.00  0.00    -0.203 NA
ATOM      2  C   UNK d   1       3.950 -22.059 -40.800  0.00  0.00     0.127 C 
ATOM      3  C   UNK d   1       3.975 -22.485 -42.263  0.00  0.00     0.141 C 
ATOM      4  N   UNK d   1       5.372 -22.700 -42.639  0.00  0.00    -0.349 N 
ATOM      5  C   UNK d   1       6.335 -22.232 -41.685  0.00  0.00     0.141 C 
ATOM      6  C   UNK d   1       5.954 -20.828 -41.297  0.00  0.00     0.127 C 
ATOM      7  C   UNK d   1       5.665 -23.336 -43.849  0.00  0.00     0.229 C 
ATOM      8  O   UNK d   1       4.682 -23.723 -44.603  0.00  0.00    -0.273 OA
ENDROOT
BRANCH   7   9
ATOM      9  C   UNK d   1       6.978 -23.649 -44.423  0.00  0.00     0.183 C 
BRANCH   9  10
ATOM     10  S   UNK d   1       7.479 -25.355 -44.241  0.00  0.00    -0.100 SA
BRANCH  10  11
ATOM     11  C   UNK d   1       9.070 -25.572 -43.464  0.00  0.00     0.110 A 
ATOM     12  N   UNK d   1       9.201 -26.270 -42.344  0.00  0.00    -0.234 NA
ATOM     13  C   UNK d   1      10.371 -26.477 -41.733  0.00  0.00     0.236 A 
ATOM     14  N   UNK d   1      11.496 -25.936 -42.294  0.00  0.00    -0.222 NA
ATOM     15  C   UNK d   1      11.399 -25.226 -43.423  0.00  0.00     0.161 A 
ATOM     16  N   UNK d   1      12.348 -24.600 -44.177  0.00  0.00    -0.256 N 
ATOM     17  C   UNK d   1      10.185 -25.015 -44.052  0.00  0.00     0.066 A 
ATOM     18  N   UNK d   1      11.753 -24.037 -45.209  0.00  0.00    -0.182 NA
ATOM     19  C   UNK d   1      13.753 -24.573 -43.894  0.00  0.00     0.182 C 
ATOM     20  C   UNK d   1      10.439 -24.266 -45.170  0.00  0.00     0.157 A 
ENDBRANCH  10  11
ENDBRANCH   9  10
ENDBRANCH   7   9
BRANCH   1  21
ATOM     21  S   UNK d   1       4.890 -20.498 -38.945  0.00  0.00     0.243 S 
ATOM     22  O   UNK d   1       4.604 -21.786 -38.209  0.00  0.00    -0.206 OA
ATOM     23  O   UNK d   1       6.288 -20.103 -38.609  0.00  0.00    -0.206 OA
BRANCH  21  24
ATOM     24  C   UNK d   1       3.754 -19.261 -38.453  0.00  0.00     0.074 A 
ATOM     25  C   UNK d   1       2.922 -18.586 -39.316  0.00  0.00     0.026 A 
ATOM     26  C   UNK d   1       2.057 -17.617 -38.869  0.00  0.00     0.025 A 
ATOM     27  C   UNK d   1       2.005 -17.298 -37.512  0.00  0.00     0.034 A 
ATOM     28  C   UNK d   1       2.846 -17.976 -36.623  0.00  0.00     0.025 A 
ATOM     29 Cl   UNK d   1       0.902 -16.066 -36.959  0.00  0.00    -0.084 Cl
ATOM     30  C   UNK d   1       3.705 -18.944 -37.096  0.00  0.00     0.026 A 
ENDBRANCH  21  24
ENDBRANCH   1  21
TORSDOF 5
ENDMDL
