MODEL 1
REMARK VINA RESULT:    -6.439      0.000      0.000
REMARK INTER + INTRA:          -9.450
REMARK INTER:                  -7.568
REMARK INTRA:                  -1.881
REMARK UNBOUND:                -1.881
REMARK  3 active torsions:
REMARK  status: ('A' for Active; 'I' for Inactive)
REMARK    1  A    between atoms: S_1  and  N_4 
REMARK    2  A    between atoms: S_1  and  C_24 
REMARK    3  A    between atoms: C_10  and  C_12 
ROOT
ATOM      1  N   UNK d   1       4.434 -20.602 -42.824  0.00  0.00    -0.304 N 
ATOM      2  C   UNK d   1       4.349 -19.173 -42.650  0.00  0.00     0.155 C 
ATOM      3  C   UNK d   1       2.912 -18.751 -42.949  0.00  0.00     0.145 C 
ATOM      4  N   UNK d   1       2.016 -19.686 -42.383  0.00  0.00    -0.356 N 
ATOM      5  C   UNK d   1       2.006 -20.973 -43.211  0.00  0.00     0.145 C 
ATOM      6  C   UNK d   1       3.419 -21.188 -43.619  0.00  0.00     0.155 C 
ATOM      7  C   UNK d   1       1.243 -19.658 -41.258  0.00  0.00     0.179 C 
ATOM      8  O   UNK d   1       0.411 -20.756 -41.243  0.00  0.00    -0.172 OA
ENDROOT
BRANCH   7   9
ATOM      9  C   UNK d   1       1.007 -18.883 -40.105  0.00  0.00     0.090 C 
ATOM     10  C   UNK d   1       0.156 -18.738 -39.144  0.00  0.00     0.063 A 
ATOM     11  N   UNK d   1      -1.012 -19.504 -39.011  0.00  0.00    -0.297 N 
ATOM     12  C   UNK d   1       0.430 -17.750 -38.058  0.00  0.00     0.008 A 
ATOM     13  N   UNK d   1      -1.924 -19.403 -37.937  0.00  0.00    -0.265 N 
ATOM     14  H   UNK d   1      -1.287 -20.170 -39.736  0.00  0.00     0.187 HD
ATOM     15  C   UNK d   1      -1.670 -18.479 -36.918  0.00  0.00     0.271 A 
ATOM     16  H   UNK d   1      -2.776 -20.039 -37.946  0.00  0.00     0.190 HD
ATOM     17  O   UNK d   1      -2.474 -18.378 -35.955  0.00  0.00    -0.266 OA
ATOM     18  C   UNK d   1      -0.459 -17.645 -37.004  0.00  0.00     0.046 A 
ATOM     19  C   UNK d   1      -0.263 -16.750 -35.966  0.00  0.00     0.018 A 
ATOM     20  C   UNK d   1       0.844 -15.929 -35.962  0.00  0.00     0.001 A 
ATOM     21  C   UNK d   1       1.723 -16.038 -37.010  0.00  0.00     0.001 A 
ATOM     22  C   UNK d   1       1.522 -16.943 -38.058  0.00  0.00     0.015 A 
ENDBRANCH   7   9
BRANCH   1  23
ATOM     23  S   UNK d   1       4.962 -21.465 -41.483  0.00  0.00     0.260 S 
ATOM     24  O   UNK d   1       4.367 -22.864 -41.566  0.00  0.00    -0.200 OA
ATOM     25  O   UNK d   1       6.465 -21.679 -41.617  0.00  0.00    -0.200 OA
BRANCH  23  26
ATOM     26  C   UNK d   1       4.667 -20.731 -39.956  0.00  0.00     0.079 A 
ATOM     27  C   UNK d   1       3.598 -21.100 -39.179  0.00  0.00     0.027 A 
ATOM     28  C   UNK d   1       3.381 -20.495 -37.954  0.00  0.00     0.025 A 
ATOM     29  C   UNK d   1       4.214 -19.512 -37.469  0.00  0.00     0.034 A 
ATOM     30  C   UNK d   1       5.295 -19.134 -38.249  0.00  0.00     0.025 A 
ATOM     31 Cl   UNK d   1       3.894 -18.776 -35.911  0.00  0.00    -0.084 Cl
ATOM     32  C   UNK d   1       5.502 -19.752 -39.481  0.00  0.00     0.027 A 
ENDBRANCH  23  26
ENDBRANCH   1  23
TORSDOF 3
ENDMDL
