MODEL 1
REMARK VINA RESULT:    -6.062      0.000      0.000
REMARK INTER + INTRA:          -8.654
REMARK INTER:                  -7.834
REMARK INTRA:                  -0.820
REMARK UNBOUND:                -0.820
REMARK  5 active torsions:
REMARK  status: ('A' for Active; 'I' for Inactive)
REMARK    1  A    between atoms: C_3  and  N_18 
REMARK    2  A    between atoms: C_5  and  N_8 
REMARK    3  A    between atoms: N_8  and  C_9 
REMARK    4  A    between atoms: C_9  and  C_10 
REMARK       I    between atoms: C_10  and  N_12 
REMARK    5  A    between atoms: C_22  and  C_23 
ROOT
ATOM      1 Cl   UNK d   1       0.549  -9.977 -37.657  0.00  0.00    -0.082 Cl
ATOM      2  C   UNK d   1       0.736 -11.627 -37.148  0.00  0.00     0.063 A 
ATOM      3  C   UNK d   1       1.940 -12.274 -37.262  0.00  0.00     0.086 A 
ATOM      4  C   UNK d   1       2.023 -13.582 -36.842  0.00  0.00     0.062 A 
ATOM      5  C   UNK d   1       0.958 -14.277 -36.311  0.00  0.00     0.030 A 
ATOM      6  C   UNK d   1      -0.242 -13.613 -36.204  0.00  0.00     0.031 A 
ATOM      7  C   UNK d   1      -0.336 -12.303 -36.623  0.00  0.00     0.028 A 
ENDROOT
BRANCH   5   8
ATOM      8  N   UNK d   1       1.076 -15.655 -35.876  0.00  0.00    -0.382 N 
ATOM      9  H   UNK d   1       0.990 -15.911 -34.888  0.00  0.00     0.160 HD
BRANCH   8  10
ATOM     10  C   UNK d   1       1.316 -16.621 -36.891  0.00  0.00     0.207 C 
BRANCH  10  11
ATOM     11  C   UNK d   1       2.315 -17.656 -36.645  0.00  0.00     0.171 C 
ATOM     12  O   UNK d   1       2.806 -17.597 -35.431  0.00  0.00    -0.175 OA
ATOM     13  N   UNK d   1       2.823 -18.656 -37.436  0.00  0.00    -0.358 N 
ATOM     14  C   UNK d   1       2.389 -18.997 -38.753  0.00  0.00     0.151 C 
ATOM     15  C   UNK d   1       3.954 -19.475 -36.949  0.00  0.00     0.151 C 
ATOM     16  C   UNK d   1       3.578 -18.865 -39.700  0.00  0.00     0.187 C 
ATOM     17  O   UNK d   1       4.499 -19.840 -39.256  0.00  0.00    -0.388 OA
ATOM     18  C   UNK d   1       5.020 -19.425 -38.050  0.00  0.00     0.187 C 
ENDBRANCH  10  11
ENDBRANCH   8  10
ENDBRANCH   5   8
BRANCH   3  19
ATOM     19  N   UNK d   1       3.082 -11.655 -37.799  0.00  0.00    -0.196 N 
ATOM     20  N   UNK d   1       3.970 -10.983 -37.094  0.00  0.00    -0.039 NA
ATOM     21  N   UNK d   1       4.929 -10.534 -37.881  0.00  0.00    -0.023 NA
ATOM     22  N   UNK d   1       4.628 -10.936 -39.100  0.00  0.00    -0.113 NA
ATOM     23  C   UNK d   1       3.462 -11.648 -39.070  0.00  0.00     0.158 A 
BRANCH  23  24
ATOM     24  C   UNK d   1       2.859 -12.220 -40.273  0.00  0.00     0.059 A 
ATOM     25  C   UNK d   1       3.577 -12.907 -41.340  0.00  0.00     0.013 A 
ATOM     26  C   UNK d   1       2.836 -13.777 -40.310  0.00  0.00     0.013 A 
ENDBRANCH  23  24
ENDBRANCH   3  19
TORSDOF 5
ENDMDL
