MODEL 1
REMARK VINA RESULT:    -6.761      0.000      0.000
REMARK INTER + INTRA:          -9.662
REMARK INTER:                  -9.133
REMARK INTRA:                  -0.529
REMARK UNBOUND:                -0.529
REMARK  8 active torsions:
REMARK  status: ('A' for Active; 'I' for Inactive)
REMARK    1  A    between atoms: C_5  and  C_8 
REMARK    2  A    between atoms: C_15  and  O_17 
REMARK    3  A    between atoms: O_17  and  C_18 
REMARK    4  A    between atoms: C_20  and  C_27 
REMARK    5  A    between atoms: C_21  and  O_26 
REMARK    6  A    between atoms: C_22  and  O_25 
REMARK    7  A    between atoms: C_23  and  O_24 
REMARK    8  A    between atoms: C_27  and  O_28 
ROOT
ATOM      1  C   UNK d   1       1.534 -16.456 -37.851  0.00  0.00     0.048 A 
ATOM      2  C   UNK d   1       1.415 -16.662 -39.222  0.00  0.00     0.159 A 
ATOM      3  O   UNK d   1       1.938 -17.702 -39.828  0.00  0.00    -0.321 OA
ATOM      4  C   UNK d   1       2.615 -18.629 -39.193  0.00  0.00     0.091 A 
ATOM      5  C   UNK d   1       2.786 -18.511 -37.834  0.00  0.00     0.049 A 
ATOM      6  C   UNK d   1       3.501 -19.505 -37.211  0.00  0.00     0.021 A 
ATOM      7  C   UNK d   1       4.036 -20.580 -37.874  0.00  0.00     0.038 A 
ATOM      8  C   UNK d   1       3.872 -20.720 -39.267  0.00  0.00     0.074 A 
ATOM      9  C   UNK d   1       3.156 -19.722 -39.884  0.00  0.00     0.075 A 
ATOM     10  C   UNK d   1       2.250 -17.432 -37.167  0.00  0.00     0.197 A 
ATOM     11  O   UNK d   1       2.406 -17.322 -35.921  0.00  0.00    -0.286 OA
ENDROOT
BRANCH   8  12
ATOM     12  O   UNK d   1       4.425 -21.816 -39.896  0.00  0.00    -0.318 OA
BRANCH  12  13
ATOM     13  C   UNK d   1       5.124 -21.814 -41.068  0.00  0.00     0.298 C 
ATOM     14  O   UNK d   1       5.401 -20.508 -41.553  0.00  0.00    -0.348 OA
ATOM     15  C   UNK d   1       6.497 -20.647 -42.377  0.00  0.00     0.179 C 
ATOM     16  C   UNK d   1       6.258 -21.487 -43.593  0.00  0.00     0.180 C 
ATOM     17  C   UNK d   1       5.468 -22.737 -43.285  0.00  0.00     0.183 C 
ATOM     18  C   UNK d   1       4.413 -22.491 -42.226  0.00  0.00     0.205 C 
BRANCH  15  19
ATOM     19  C   UNK d   1       7.104 -19.327 -42.779  0.00  0.00     0.198 C 
BRANCH  19  20
ATOM     20  O   UNK d   1       8.496 -19.365 -42.766  0.00  0.00    -0.398 OA
ATOM     21  H   UNK d   1       8.735 -20.345 -42.750  0.00  0.00     0.209 HD
ENDBRANCH  19  20
ENDBRANCH  15  19
BRANCH  16  22
ATOM     22  O   UNK d   1       7.513 -21.912 -44.057  0.00  0.00    -0.390 OA
ATOM     23  H   UNK d   1       8.007 -21.159 -44.468  0.00  0.00     0.210 HD
ENDBRANCH  16  22
BRANCH  17  24
ATOM     24  O   UNK d   1       4.933 -23.249 -44.459  0.00  0.00    -0.390 OA
ATOM     25  H   UNK d   1       4.028 -22.860 -44.664  0.00  0.00     0.210 HD
ENDBRANCH  17  24
BRANCH  18  26
ATOM     26  O   UNK d   1       3.883 -23.721 -41.856  0.00  0.00    -0.388 OA
ATOM     27  H   UNK d   1       4.566 -24.429 -41.911  0.00  0.00     0.210 HD
ENDBRANCH  18  26
ENDBRANCH  12  13
ENDBRANCH   8  12
BRANCH   1  28
ATOM     28  C   UNK d   1       0.949 -15.301 -37.204  0.00  0.00    -0.020 A 
ATOM     29  C   UNK d   1       1.685 -14.202 -36.810  0.00  0.00     0.014 A 
ATOM     30  C   UNK d   1       1.060 -13.125 -36.193  0.00  0.00     0.020 A 
ATOM     31  C   UNK d   1      -0.294 -13.104 -35.950  0.00  0.00     0.011 A 
ATOM     32 Br   UNK d   1      -1.140 -11.614 -35.100  0.00  0.00    -0.051 Br
ATOM     33  C   UNK d   1      -1.035 -14.209 -36.345  0.00  0.00     0.020 A 
ATOM     34  C   UNK d   1      -0.413 -15.277 -36.958  0.00  0.00     0.014 A 
ENDBRANCH   1  28
TORSDOF 8
ENDMDL
