/Users/jonathanwahrer/Desktop/Msc/3_Semester/Drug_Design_Praktikum/waehrer_HTS_screening/HTS_experiment/out/docking_results/vina_output/6y4q/2063_docked.pdbqt
 OpenBabel03232218543D

 34 37  0  0  1  0  0  0  0  0999 V2000
    1.5340  -16.4560  -37.8510 C   0  0  0  0  0  0  0  0  0  0  0  0
    1.4150  -16.6620  -39.2220 C   0  0  0  0  0  3  0  0  0  0  0  0
    1.9380  -17.7020  -39.8280 O   0  0  0  0  0  0  0  0  0  0  0  0
    2.6150  -18.6290  -39.1930 C   0  0  0  0  0  0  0  0  0  0  0  0
    2.7860  -18.5110  -37.8340 C   0  0  0  0  0  0  0  0  0  0  0  0
    3.5010  -19.5050  -37.2110 C   0  0  0  0  0  3  0  0  0  0  0  0
    4.0360  -20.5800  -37.8740 C   0  0  0  0  0  3  0  0  0  0  0  0
    3.8720  -20.7200  -39.2670 C   0  0  0  0  0  0  0  0  0  0  0  0
    3.1560  -19.7220  -39.8840 C   0  0  0  0  0  3  0  0  0  0  0  0
    2.2500  -17.4320  -37.1670 C   0  0  0  0  0  0  0  0  0  0  0  0
    2.4060  -17.3220  -35.9210 O   0  0  0  0  0  0  0  0  0  0  0  0
    4.4250  -21.8160  -39.8960 O   0  0  0  0  0  0  0  0  0  0  0  0
    5.1240  -21.8140  -41.0680 C   0  0  2  0  0  3  0  0  0  0  0  0
    5.4010  -20.5080  -41.5530 O   0  0  0  0  0  0  0  0  0  0  0  0
    6.4970  -20.6470  -42.3770 C   0  0  1  0  0  3  0  0  0  0  0  0
    6.2580  -21.4870  -43.5930 C   0  0  2  0  0  3  0  0  0  0  0  0
    5.4680  -22.7370  -43.2850 C   0  0  1  0  0  3  0  0  0  0  0  0
    4.4130  -22.4910  -42.2260 C   0  0  1  0  0  3  0  0  0  0  0  0
    7.1040  -19.3270  -42.7790 C   0  0  0  0  0  2  0  0  0  0  0  0
    8.4960  -19.3650  -42.7660 O   0  0  0  0  0  0  0  0  0  0  0  0
    8.7350  -20.3450  -42.7500 H   0  0  0  0  0  0  0  0  0  0  0  0
    7.5130  -21.9120  -44.0570 O   0  0  0  0  0  0  0  0  0  0  0  0
    8.0070  -21.1590  -44.4680 H   0  0  0  0  0  0  0  0  0  0  0  0
    4.9330  -23.2490  -44.4590 O   0  0  0  0  0  0  0  0  0  0  0  0
    4.0280  -22.8600  -44.6640 H   0  0  0  0  0  0  0  0  0  0  0  0
    3.8830  -23.7210  -41.8560 O   0  0  0  0  0  0  0  0  0  0  0  0
    4.5660  -24.4290  -41.9110 H   0  0  0  0  0  0  0  0  0  0  0  0
    0.9490  -15.3010  -37.2040 C   0  0  0  0  0  0  0  0  0  0  0  0
    1.6850  -14.2020  -36.8100 C   0  0  0  0  0  3  0  0  0  0  0  0
    1.0600  -13.1250  -36.1930 C   0  0  0  0  0  3  0  0  0  0  0  0
   -0.2940  -13.1040  -35.9500 C   0  0  0  0  0  0  0  0  0  0  0  0
   -1.1400  -11.6140  -35.1000 Br  0  0  0  0  0  0  0  0  0  0  0  0
   -1.0350  -14.2090  -36.3450 C   0  0  0  0  0  3  0  0  0  0  0  0
   -0.4130  -15.2770  -36.9580 C   0  0  0  0  0  3  0  0  0  0  0  0
  1 28  1  0  0  0  0
  1 10  1  0  0  0  0
  2  1  2  0  0  0  0
  3  2  1  0  0  0  0
  3  4  1  0  0  0  0
  4  5  1  0  0  0  0
  5  6  2  0  0  0  0
  5 10  1  0  0  0  0
  7  6  1  0  0  0  0
  8  7  2  0  0  0  0
  9  8  1  0  0  0  0
  9  4  2  0  0  0  0
 10 11  2  0  0  0  0
 12  8  1  0  0  0  0
 13 12  1  1  0  0  0
 14 13  1  0  0  0  0
 15 19  1  6  0  0  0
 15 14  1  0  0  0  0
 16 22  1  1  0  0  0
 16 17  1  0  0  0  0
 16 15  1  0  0  0  0
 17 24  1  6  0  0  0
 17 18  1  0  0  0  0
 18 26  1  1  0  0  0
 18 13  1  0  0  0  0
 19 20  1  0  0  0  0
 20 21  1  0  0  0  0
 23 22  1  0  0  0  0
 25 24  1  0  0  0  0
 27 26  1  0  0  0  0
 28 34  2  0  0  0  0
 28 29  1  0  0  0  0
 29 30  2  0  0  0  0
 30 31  1  0  0  0  0
 31 32  1  0  0  0  0
 33 31  2  0  0  0  0
 34 33  1  0  0  0  0
M  END
>  <Pose>
1

>  <Score>
-6.761

$$$$
