/Users/jonathanwahrer/Desktop/Msc/3_Semester/Drug_Design_Praktikum/waehrer_HTS_screening/HTS_experiment/out/docking_results/vina_output/6y4q/2072_docked.pdbqt
 OpenBabel03232218553D

 27 30  0  0  0  0  0  0  0  0999 V2000
    2.9270  -19.6700  -37.4200 N   0  0  0  0  0  0  0  0  0  0  0  0
    1.7350  -19.9050  -38.1490 C   0  0  0  0  0  2  0  0  0  0  0  0
    0.7610  -18.7680  -38.2740 C   0  0  0  0  0  2  0  0  0  0  0  0
    1.4800  -17.5370  -38.3050 N   0  0  0  0  0  0  0  0  0  0  0  0
    2.0960  -17.3960  -36.9860 C   0  0  0  0  0  2  0  0  0  0  0  0
    3.1760  -18.4060  -36.8660 C   0  0  0  0  0  2  0  0  0  0  0  0
    0.7060  -16.3900  -38.6380 C   0  0  0  0  0  2  0  0  0  0  0  0
    1.2950  -15.6310  -39.7780 C   0  0  0  0  0  2  0  0  0  0  0  0
    2.0250  -14.4590  -39.3420 N   0  0  0  0  0  0  0  0  0  0  0  0
    2.0540  -13.9340  -38.1180 N   0  0  0  0  0  0  0  0  0  0  0  0
    2.8510  -12.8570  -38.0910 C   0  0  0  0  0  0  0  0  0  0  0  0
    3.3380  -12.6930  -39.3270 N   0  0  0  0  0  0  0  0  0  0  0  0
    3.2410  -11.9510  -37.1210 C   0  0  0  0  0  3  0  0  0  0  0  0
    4.1830  -11.6760  -39.6210 C   0  0  0  0  0  3  0  0  0  0  0  0
    2.8170  -13.6950  -40.0960 C   0  0  0  0  0  0  0  0  0  0  0  0
    4.5850  -10.7620  -38.6730 C   0  0  0  0  0  3  0  0  0  0  0  0
    4.0980  -10.9060  -37.3890 C   0  0  0  0  0  3  0  0  0  0  0  0
    3.0970  -13.7970  -41.3140 O   0  0  0  0  0  0  0  0  0  0  0  0
    4.2780  -20.1750  -38.3620 S   0  0  0  0  0  0  0  0  0  0  0  0
    5.5060  -19.4450  -37.8660 O   0  0  0  0  0  0  0  0  0  0  0  0
    4.5300  -21.6300  -38.2310 O   0  0  0  0  0  0  0  0  0  0  0  0
    3.9940  -19.8220  -40.0730 C   0  0  0  0  0  0  0  0  0  0  0  0
    3.6530  -20.8930  -41.3550 S   0  0  0  0  0  0  0  0  0  0  0  0
    3.5230  -19.7700  -42.6270 C   0  0  0  0  0  0  0  0  0  0  0  0
    3.7530  -18.5710  -42.0070 C   0  0  0  0  0  3  0  0  0  0  0  0
    3.1460  -20.0730  -44.4930 Br  0  0  0  0  0  0  0  0  0  0  0  0
    3.9960  -18.5980  -40.6910 C   0  0  0  0  0  3  0  0  0  0  0  0
  1  6  1  0  0  0  0
  2  1  1  0  0  0  0
  3  2  1  0  0  0  0
  4  3  1  0  0  0  0
  4  5  1  0  0  0  0
  5  6  1  0  0  0  0
  7  4  1  0  0  0  0
  8  9  1  0  0  0  0
  8  7  1  0  0  0  0
  9 10  1  0  0  0  0
 10 11  2  0  0  0  0
 11 13  1  0  0  0  0
 12 11  1  0  0  0  0
 14 12  1  0  0  0  0
 14 16  2  0  0  0  0
 15  9  1  0  0  0  0
 15 12  1  0  0  0  0
 16 17  1  0  0  0  0
 17 13  2  0  0  0  0
 18 15  2  0  0  0  0
 19 21  2  0  0  0  0
 19 20  2  0  0  0  0
 19  1  1  0  0  0  0
 22 19  1  0  0  0  0
 23 22  1  0  0  0  0
 24 25  2  0  0  0  0
 24 23  1  0  0  0  0
 25 27  1  0  0  0  0
 26 24  1  0  0  0  0
 27 22  2  0  0  0  0
M  END
>  <Pose>
1

>  <Score>
-6.222

$$$$
