MODEL 1
REMARK VINA RESULT:    -6.222      0.000      0.000
REMARK INTER + INTRA:          -9.072
REMARK INTER:                  -8.041
REMARK INTRA:                  -1.031
REMARK UNBOUND:                -1.031
REMARK  5 active torsions:
REMARK  status: ('A' for Active; 'I' for Inactive)
REMARK    1  A    between atoms: S_1  and  N_4 
REMARK    2  A    between atoms: S_1  and  C_22 
REMARK    3  A    between atoms: N_7  and  C_10 
REMARK    4  A    between atoms: C_10  and  C_11 
REMARK    5  A    between atoms: C_11  and  N_12 
ROOT
ATOM      1  N   UNK d   1       2.927 -19.670 -37.420  0.00  0.00    -0.203 NA
ATOM      2  C   UNK d   1       1.735 -19.905 -38.149  0.00  0.00     0.138 C 
ATOM      3  C   UNK d   1       0.761 -18.768 -38.274  0.00  0.00     0.288 C 
ATOM      4  N   UNK d   1       1.480 -17.537 -38.305  0.00  0.00     0.092 N 
ATOM      5  C   UNK d   1       2.096 -17.396 -36.986  0.00  0.00     0.288 C 
ATOM      6  C   UNK d   1       3.176 -18.406 -36.866  0.00  0.00     0.138 C 
ENDROOT
BRANCH   4   7
ATOM      7  C   UNK d   1       0.706 -16.390 -38.638  0.00  0.00     0.294 C 
BRANCH   7   8
ATOM      8  C   UNK d   1       1.295 -15.631 -39.778  0.00  0.00     0.186 C 
BRANCH   8   9
ATOM      9  N   UNK d   1       2.025 -14.459 -39.342  0.00  0.00    -0.216 N 
ATOM     10  N   UNK d   1       2.054 -13.934 -38.118  0.00  0.00    -0.149 NA
ATOM     11  C   UNK d   1       2.851 -12.857 -38.091  0.00  0.00     0.158 A 
ATOM     12  N   UNK d   1       3.338 -12.693 -39.327  0.00  0.00    -0.256 N 
ATOM     13  C   UNK d   1       3.241 -11.951 -37.121  0.00  0.00     0.053 A 
ATOM     14  C   UNK d   1       4.183 -11.676 -39.621  0.00  0.00     0.103 A 
ATOM     15  C   UNK d   1       2.817 -13.695 -40.096  0.00  0.00     0.350 A 
ATOM     16  C   UNK d   1       4.585 -10.762 -38.673  0.00  0.00     0.018 A 
ATOM     17  C   UNK d   1       4.098 -10.906 -37.389  0.00  0.00     0.005 A 
ATOM     18  O   UNK d   1       3.097 -13.797 -41.314  0.00  0.00    -0.244 OA
ENDBRANCH   8   9
ENDBRANCH   7   8
ENDBRANCH   4   7
BRANCH   1  19
ATOM     19  S   UNK d   1       4.278 -20.175 -38.362  0.00  0.00     0.250 S 
ATOM     20  O   UNK d   1       5.506 -19.445 -37.866  0.00  0.00    -0.205 OA
ATOM     21  O   UNK d   1       4.530 -21.630 -38.231  0.00  0.00    -0.205 OA
BRANCH  19  22
ATOM     22  C   UNK d   1       3.994 -19.822 -40.073  0.00  0.00     0.116 A 
ATOM     23  S   UNK d   1       3.653 -20.893 -41.355  0.00  0.00    -0.070 SA
ATOM     24  C   UNK d   1       3.523 -19.770 -42.627  0.00  0.00     0.052 A 
ATOM     25  C   UNK d   1       3.753 -18.571 -42.007  0.00  0.00     0.028 A 
ATOM     26 Br   UNK d   1       3.146 -20.073 -44.493  0.00  0.00    -0.043 Br
ATOM     27  C   UNK d   1       3.996 -18.598 -40.691  0.00  0.00     0.034 A 
ENDBRANCH  19  22
ENDBRANCH   1  19
TORSDOF 5
ENDMDL
