MODEL 1
REMARK VINA RESULT:    -6.335      0.000      0.000
REMARK INTER + INTRA:          -9.896
REMARK INTER:                  -8.372
REMARK INTRA:                  -1.524
REMARK UNBOUND:                -1.524
REMARK  6 active torsions:
REMARK  status: ('A' for Active; 'I' for Inactive)
REMARK    1  A    between atoms: C_5  and  C_8 
REMARK    2  A    between atoms: C_12  and  C_17 
REMARK    3  A    between atoms: C_17  and  N_18 
REMARK    4  A    between atoms: N_21  and  C_24 
REMARK    5  A    between atoms: C_24  and  C_25 
REMARK    6  A    between atoms: C_25  and  O_26 
ROOT
ATOM      1  C   UNK d   1       1.602 -16.377 -37.756  0.00  0.00     0.051 A 
ATOM      2  C   UNK d   1       2.167 -17.340 -36.952  0.00  0.00     0.032 A 
ATOM      3  C   UNK d   1       2.780 -18.447 -37.556  0.00  0.00    -0.000 A 
ATOM      4  C   UNK d   1       2.820 -18.587 -38.926  0.00  0.00     0.100 A 
ATOM      5  C   UNK d   1       3.407 -19.648 -39.617  0.00  0.00     0.039 A 
ATOM      6  C   UNK d   1       3.998 -20.614 -38.764  0.00  0.00     0.118 A 
ATOM      7  C   UNK d   1       3.983 -20.507 -37.377  0.00  0.00     0.041 A 
ATOM      8  C   UNK d   1       3.371 -19.414 -36.784  0.00  0.00     0.017 A 
ATOM      9  O   UNK d   1       4.637 -21.742 -39.241  0.00  0.00    -0.191 OA
ATOM     10  O   UNK d   1       2.285 -17.673 -39.630  0.00  0.00    -0.273 OA
ATOM     11  C   UNK d   1       1.682 -16.583 -39.149  0.00  0.00     0.299 A 
ATOM     12  O   UNK d   1       1.175 -15.736 -39.895  0.00  0.00    -0.259 OA
ENDROOT
BRANCH   5  13
ATOM     13  C   UNK d   1       3.629 -19.779 -41.014  0.00  0.00     0.279 C 
BRANCH  13  14
ATOM     14  N   UNK d   1       4.157 -18.742 -41.863  0.00  0.00    -0.064 N 
ATOM     15  C   UNK d   1       5.645 -18.695 -41.810  0.00  0.00     0.265 C 
ATOM     16  C   UNK d   1       6.194 -20.077 -41.785  0.00  0.00     0.300 C 
ATOM     17  N   UNK d   1       5.867 -20.893 -42.931  0.00  0.00     0.093 N 
ATOM     18  C   UNK d   1       4.628 -20.537 -43.534  0.00  0.00     0.300 C 
ATOM     19  C   UNK d   1       4.024 -19.239 -43.271  0.00  0.00     0.265 C 
ATOM     20  H   UNK d   1       3.746 -17.837 -41.871  0.00  0.00     0.280 HD
BRANCH  17  21
ATOM     21  C   UNK d   1       5.860 -22.316 -42.556  0.00  0.00     0.298 C 
BRANCH  21  22
ATOM     22  C   UNK d   1       4.502 -22.949 -42.749  0.00  0.00     0.194 C 
BRANCH  22  23
ATOM     23  O   UNK d   1       3.885 -23.269 -41.548  0.00  0.00    -0.399 OA
ATOM     24  H   UNK d   1       3.631 -24.245 -41.577  0.00  0.00     0.209 HD
ENDBRANCH  22  23
ENDBRANCH  21  22
ENDBRANCH  17  21
ENDBRANCH  13  14
ENDBRANCH   5  13
BRANCH   1  25
ATOM     25  C   UNK d   1       1.046 -15.129 -37.196  0.00  0.00    -0.020 A 
ATOM     26  C   UNK d   1      -0.336 -15.118 -36.926  0.00  0.00     0.014 A 
ATOM     27  C   UNK d   1      -0.918 -14.002 -36.352  0.00  0.00     0.024 A 
ATOM     28  C   UNK d   1      -0.181 -12.869 -36.028  0.00  0.00     0.034 A 
ATOM     29 Cl   UNK d   1      -0.894 -11.460 -35.206  0.00  0.00    -0.084 Cl
ATOM     30  C   UNK d   1       1.175 -12.887 -36.302  0.00  0.00     0.024 A 
ATOM     31  C   UNK d   1       1.734 -14.014 -36.879  0.00  0.00     0.014 A 
ENDBRANCH   1  25
TORSDOF 6
ENDMDL
