MODEL 1
REMARK VINA RESULT:    -5.996      0.000      0.000
REMARK INTER + INTRA:          -9.447
REMARK INTER:                  -8.099
REMARK INTRA:                  -1.347
REMARK UNBOUND:                -1.347
REMARK  6 active torsions:
REMARK  status: ('A' for Active; 'I' for Inactive)
REMARK    1  A    between atoms: C_5  and  C_8 
REMARK    2  A    between atoms: C_8  and  N_9 
REMARK    3  A    between atoms: C_13  and  N_14 
REMARK    4  A    between atoms: N_17  and  C_20 
REMARK    5  A    between atoms: C_20  and  C_21 
REMARK    6  A    between atoms: C_21  and  O_23 
ROOT
ATOM      1  N   UNK d   1       1.030 -18.449 -38.073  0.00  0.00    -0.168 N 
ATOM      2  C   UNK d   1       2.278 -19.018 -38.012  0.00  0.00     0.167 A 
ATOM      3  C   UNK d   1       2.459 -19.851 -39.098  0.00  0.00     0.185 A 
ATOM      4  N   UNK d   1       1.320 -19.776 -39.793  0.00  0.00    -0.044 NA
ATOM      5  C   UNK d   1       0.443 -18.924 -39.172  0.00  0.00     0.707 A 
ATOM      6  N   UNK d   1       3.607 -20.536 -39.264  0.00  0.00    -0.286 N 
ATOM      7  C   UNK d   1       4.572 -20.389 -38.345  0.00  0.00     0.330 A 
ATOM      8  O   UNK d   1       5.638 -21.032 -38.510  0.00  0.00    -0.246 OA
ATOM      9  N   UNK d   1       4.433 -19.593 -37.279  0.00  0.00    -0.273 N 
ATOM     10  C   UNK d   1       3.283 -18.882 -37.078  0.00  0.00     0.280 A 
ATOM     11  O   UNK d   1       3.183 -18.146 -36.067  0.00  0.00    -0.265 OA
ATOM     12  C   UNK d   1       3.757 -21.397 -40.423  0.00  0.00     0.163 C 
ATOM     13  H   UNK d   1       5.200 -19.491 -36.567  0.00  0.00     0.173 HD
ENDROOT
BRANCH   5  14
ATOM     14  N   UNK d   1      -0.866 -18.741 -39.644  0.00  0.00    -0.212 N 
ATOM     15  C   UNK d   1      -1.494 -17.579 -40.165  0.00  0.00     0.160 C 
ATOM     16  C   UNK d   1      -3.009 -17.584 -39.929  0.00  0.00     0.137 C 
ATOM     17  N   UNK d   1      -3.454 -18.365 -38.850  0.00  0.00    -0.400 N 
ATOM     18  C   UNK d   1      -2.941 -19.674 -38.740  0.00  0.00     0.137 C 
ATOM     19  C   UNK d   1      -1.747 -19.941 -39.627  0.00  0.00     0.160 C 
BRANCH  17  20
ATOM     20  C   UNK d   1      -4.016 -17.754 -37.718  0.00  0.00     0.228 C 
BRANCH  20  21
ATOM     21  C   UNK d   1      -3.093 -17.268 -36.680  0.00  0.00     0.276 C 
ATOM     22  O   UNK d   1      -2.796 -17.949 -35.663  0.00  0.00    -0.263 OA
BRANCH  21  23
ATOM     23  O   UNK d   1      -2.519 -16.022 -36.804  0.00  0.00    -0.325 OA
ATOM     24  C   UNK d   1      -3.240 -14.895 -37.221  0.00  0.00     0.213 C 
ENDBRANCH  21  23
ENDBRANCH  20  21
ENDBRANCH  17  20
ENDBRANCH   5  14
BRANCH   1  25
ATOM     25  C   UNK d   1       0.529 -17.503 -37.110  0.00  0.00     0.186 C 
BRANCH  25  26
ATOM     26  C   UNK d   1       1.051 -16.105 -37.390  0.00  0.00    -0.039 A 
ATOM     27  C   UNK d   1       1.107 -15.240 -36.337  0.00  0.00     0.010 A 
ATOM     28  C   UNK d   1       1.613 -13.956 -36.542  0.00  0.00     0.019 A 
ATOM     29  C   UNK d   1       2.049 -13.572 -37.790  0.00  0.00     0.011 A 
ATOM     30 Br   UNK d   1       2.746 -11.823 -38.095  0.00  0.00    -0.051 Br
ATOM     31  C   UNK d   1       1.977 -14.477 -38.837  0.00  0.00     0.019 A 
ATOM     32  C   UNK d   1       1.479 -15.741 -38.634  0.00  0.00     0.010 A 
ENDBRANCH  25  26
ENDBRANCH   1  25
TORSDOF 6
ENDMDL
