/Users/jonathanwahrer/Desktop/Msc/3_Semester/Drug_Design_Praktikum/waehrer_HTS_screening/HTS_experiment/out/docking_results/vina_output/6y4q/2087_docked.pdbqt
 OpenBabel03232218553D

 32 35  0  0  0  0  0  0  0  0999 V2000
    1.0300  -18.4490  -38.0730 N   0  0  0  0  0  0  0  0  0  0  0  0
    2.2780  -19.0180  -38.0120 C   0  0  0  0  0  0  0  0  0  0  0  0
    2.4590  -19.8510  -39.0980 C   0  0  0  0  0  0  0  0  0  0  0  0
    1.3200  -19.7760  -39.7930 N   0  0  0  0  0  0  0  0  0  0  0  0
    0.4430  -18.9240  -39.1720 C   0  0  0  0  0  0  0  0  0  0  0  0
    3.6070  -20.5360  -39.2640 N   0  0  0  0  0  0  0  0  0  0  0  0
    4.5720  -20.3890  -38.3450 C   0  0  0  0  0  0  0  0  0  0  0  0
    5.6380  -21.0320  -38.5100 O   0  0  0  0  0  0  0  0  0  0  0  0
    4.4330  -19.5930  -37.2790 N   0  0  0  0  0  0  0  0  0  0  0  0
    3.2830  -18.8820  -37.0780 C   0  0  0  0  0  0  0  0  0  0  0  0
    3.1830  -18.1460  -36.0670 O   0  0  0  0  0  0  0  0  0  0  0  0
    3.7570  -21.3970  -40.4230 C   0  0  0  0  0  1  0  0  0  0  0  0
    5.2000  -19.4910  -36.5670 H   0  0  0  0  0  0  0  0  0  0  0  0
   -0.8660  -18.7410  -39.6440 N   0  0  0  0  0  0  0  0  0  0  0  0
   -1.4940  -17.5790  -40.1650 C   0  0  0  0  0  2  0  0  0  0  0  0
   -3.0090  -17.5840  -39.9290 C   0  0  0  0  0  2  0  0  0  0  0  0
   -3.4540  -18.3650  -38.8500 N   0  0  0  0  0  0  0  0  0  0  0  0
   -2.9410  -19.6740  -38.7400 C   0  0  0  0  0  2  0  0  0  0  0  0
   -1.7470  -19.9410  -39.6270 C   0  0  0  0  0  2  0  0  0  0  0  0
   -4.0160  -17.7540  -37.7180 C   0  0  0  0  0  2  0  0  0  0  0  0
   -3.0930  -17.2680  -36.6800 C   0  0  0  0  0  0  0  0  0  0  0  0
   -2.7960  -17.9490  -35.6630 O   0  0  0  0  0  0  0  0  0  0  0  0
   -2.5190  -16.0220  -36.8040 O   0  0  0  0  0  0  0  0  0  0  0  0
   -3.2400  -14.8950  -37.2210 C   0  0  0  0  0  1  0  0  0  0  0  0
    0.5290  -17.5030  -37.1100 C   0  0  0  0  0  2  0  0  0  0  0  0
    1.0510  -16.1050  -37.3900 C   0  0  0  0  0  0  0  0  0  0  0  0
    1.1070  -15.2400  -36.3370 C   0  0  0  0  0  3  0  0  0  0  0  0
    1.6130  -13.9560  -36.5420 C   0  0  0  0  0  3  0  0  0  0  0  0
    2.0490  -13.5720  -37.7900 C   0  0  0  0  0  0  0  0  0  0  0  0
    2.7460  -11.8230  -38.0950 Br  0  0  0  0  0  0  0  0  0  0  0  0
    1.9770  -14.4770  -38.8370 C   0  0  0  0  0  3  0  0  0  0  0  0
    1.4790  -15.7410  -38.6340 C   0  0  0  0  0  3  0  0  0  0  0  0
  1  2  1  0  0  0  0
  1 25  1  0  0  0  0
  2 10  1  0  0  0  0
  3  2  2  0  0  0  0
  4  5  2  0  0  0  0
  4  3  1  0  0  0  0
  5  1  1  0  0  0  0
  6  3  1  0  0  0  0
  6  7  1  0  0  0  0
  7  9  1  0  0  0  0
  8  7  2  0  0  0  0
  9 10  1  0  0  0  0
  9 13  1  0  0  0  0
 10 11  2  0  0  0  0
 12  6  1  0  0  0  0
 14 19  1  0  0  0  0
 14  5  1  0  0  0  0
 15 16  1  0  0  0  0
 15 14  1  0  0  0  0
 16 17  1  0  0  0  0
 17 18  1  0  0  0  0
 17 20  1  0  0  0  0
 19 18  1  0  0  0  0
 20 21  1  0  0  0  0
 21 22  2  0  0  0  0
 23 21  1  0  0  0  0
 24 23  1  0  0  0  0
 26 25  1  0  0  0  0
 26 27  1  0  0  0  0
 28 27  2  0  0  0  0
 29 28  1  0  0  0  0
 30 29  1  0  0  0  0
 31 32  1  0  0  0  0
 31 29  2  0  0  0  0
 32 26  2  0  0  0  0
M  END
>  <Pose>
1

>  <Score>
-5.996

$$$$
