MODEL 1
REMARK VINA RESULT:    -6.038      0.000      0.000
REMARK INTER + INTRA:          -8.115
REMARK INTER:                  -7.097
REMARK INTRA:                  -1.017
REMARK UNBOUND:                -1.017
REMARK  3 active torsions:
REMARK  status: ('A' for Active; 'I' for Inactive)
REMARK    1  A    between atoms: C_5  and  C_8 
REMARK    2  A    between atoms: C_8  and  N_9 
REMARK    3  A    between atoms: C_13  and  N_14 
ROOT
ATOM      1  N   UNK d   1       1.269 -18.603 -38.201  0.00  0.00    -0.168 N 
ATOM      2  C   UNK d   1       2.442 -19.253 -38.152  0.00  0.00     0.167 A 
ATOM      3  C   UNK d   1       2.515 -20.121 -39.219  0.00  0.00     0.185 A 
ATOM      4  N   UNK d   1       1.382 -19.971 -39.886  0.00  0.00    -0.044 NA
ATOM      5  C   UNK d   1       0.604 -19.055 -39.292  0.00  0.00     0.707 A 
ATOM      6  N   UNK d   1       3.583 -20.922 -39.464  0.00  0.00    -0.286 N 
ATOM      7  C   UNK d   1       4.611 -20.841 -38.604  0.00  0.00     0.330 A 
ATOM      8  O   UNK d   1       5.591 -21.591 -38.844  0.00  0.00    -0.246 OA
ATOM      9  N   UNK d   1       4.601 -20.012 -37.546  0.00  0.00    -0.273 N 
ATOM     10  C   UNK d   1       3.546 -19.214 -37.294  0.00  0.00     0.280 A 
ATOM     11  O   UNK d   1       3.506 -18.437 -36.330  0.00  0.00    -0.265 OA
ATOM     12  C   UNK d   1       3.569 -21.806 -40.610  0.00  0.00     0.163 C 
ATOM     13  H   UNK d   1       5.405 -19.954 -36.885  0.00  0.00     0.173 HD
ENDROOT
BRANCH   1  14
ATOM     14  C   UNK d   1       0.792 -17.615 -37.265  0.00  0.00     0.186 C 
BRANCH  14  15
ATOM     15  C   UNK d   1       1.224 -16.243 -37.445  0.00  0.00    -0.039 A 
ATOM     16  C   UNK d   1       1.604 -15.662 -38.615  0.00  0.00     0.010 A 
ATOM     17  C   UNK d   1       1.970 -14.321 -38.724  0.00  0.00     0.019 A 
ATOM     18  C   UNK d   1       1.951 -13.520 -37.587  0.00  0.00     0.011 A 
ATOM     19 Br   UNK d   1       2.423 -11.674 -37.649  0.00  0.00    -0.051 Br
ATOM     20  C   UNK d   1       1.573 -14.065 -36.382  0.00  0.00     0.019 A 
ATOM     21  C   UNK d   1       1.221 -15.394 -36.322  0.00  0.00     0.010 A 
ENDBRANCH  14  15
ENDBRANCH   1  14
BRANCH   5  22
ATOM     22  N   UNK d   1      -0.696 -18.624 -39.717  0.00  0.00    -0.213 N 
ATOM     23  C   UNK d   1      -1.843 -19.348 -39.217  0.00  0.00     0.160 C 
ATOM     24  C   UNK d   1      -2.519 -20.023 -40.401  0.00  0.00     0.136 C 
ATOM     25  N   UNK d   1      -2.234 -19.384 -41.642  0.00  0.00    -0.414 N 
ATOM     26  C   UNK d   1      -2.014 -17.977 -41.586  0.00  0.00     0.136 C 
ATOM     27  C   UNK d   1      -1.497 -20.114 -42.602  0.00  0.00     0.143 C 
ATOM     28  C   UNK d   1      -0.948 -17.531 -40.619  0.00  0.00     0.160 C 
ENDBRANCH   5  22
TORSDOF 3
ENDMDL
