/Users/jonathanwahrer/Desktop/Msc/3_Semester/Drug_Design_Praktikum/waehrer_HTS_screening/HTS_experiment/out/docking_results/vina_output/6y4q/2105_docked.pdbqt
 OpenBabel03232218563D

 29 32  0  0  1  0  0  0  0  0999 V2000
    3.6890  -20.1180  -41.0120 Cl  0  0  0  0  0  0  0  0  0  0  0  0
    3.3260  -19.3670  -39.4720 C   0  0  0  0  0  0  0  0  0  0  0  0
    2.1490  -18.6390  -39.2960 C   0  0  0  0  0  0  0  0  0  0  0  0
    1.8300  -18.0390  -38.1140 C   0  0  0  0  0  0  0  0  0  0  0  0
    2.7420  -18.1880  -37.0780 C   0  0  0  0  0  3  0  0  0  0  0  0
    3.9090  -18.9040  -37.2320 C   0  0  0  0  0  3  0  0  0  0  0  0
    4.2140  -19.5020  -38.4340 C   0  0  0  0  0  3  0  0  0  0  0  0
    0.5290  -17.3540  -38.2590 C   0  0  2  0  0  0  0  0  0  0  0  0
    0.6980  -15.8680  -38.0670 C   0  0  0  0  0  0  0  0  0  0  0  0
    0.0320  -15.1760  -37.1850 C   0  0  0  0  0  0  0  0  0  0  0  0
   -0.9230  -15.7850  -36.3180 N   0  0  0  0  0  0  0  0  0  0  0  0
   -1.1440  -17.1790  -36.4310 C   0  0  0  0  0  0  0  0  0  0  0  0
   -0.4790  -17.8860  -37.3170 C   0  0  0  0  0  0  0  0  0  0  0  0
   -0.7370  -19.3170  -37.3990 C   0  0  0  0  0  0  0  0  0  0  0  0
   -0.9280  -20.4560  -37.4740 N   0  0  0  0  0  0  0  0  0  0  0  0
    0.4470  -13.7620  -37.2750 C   0  0  0  0  0  0  0  0  0  0  0  0
    1.3930  -13.7110  -38.2700 O   0  0  0  0  0  0  0  0  0  0  0  0
    1.5880  -14.9690  -38.7910 C   0  0  0  0  0  0  0  0  0  0  0  0
    2.3860  -15.3170  -39.7290 O   0  0  0  0  0  0  0  0  0  0  0  0
    0.9440  -13.3070  -35.9200 C   0  0  0  0  0  1  0  0  0  0  0  0
   -0.7080  -12.8570  -37.6630 C   0  0  0  0  0  1  0  0  0  0  0  0
    0.1250  -17.6220  -39.6590 C   0  0  0  0  0  0  0  0  0  0  0  0
   -0.9480  -17.2190  -40.2350 O   0  0  0  0  0  0  0  0  0  0  0  0
    1.1340  -18.4040  -40.2570 N   0  0  0  0  0  0  0  0  0  0  0  0
   -1.4580  -15.2380  -35.6110 H   0  0  0  0  0  0  0  0  0  0  0  0
    1.0990  -18.7430  -41.2670 H   0  0  0  0  0  0  0  0  0  0  0  0
   -2.0860  -17.8610  -35.5980 N   0  0  0  0  0  0  0  0  0  0  0  0
   -2.1210  -18.8880  -35.5740 H   0  0  0  0  0  0  0  0  0  0  0  0
   -2.7270  -17.2990  -35.0240 H   0  0  0  0  0  0  0  0  0  0  0  0
  1  2  1  0  0  0  0
  2  3  2  0  0  0  0
  2  7  1  0  0  0  0
  3  4  1  0  0  0  0
  4  5  2  0  0  0  0
  6  5  1  0  0  0  0
  7  6  2  0  0  0  0
  8 22  1  6  0  0  0
  8  4  1  0  0  0  0
  8  9  1  0  0  0  0
  8 13  1  0  0  0  0
  9 10  2  0  0  0  0
 10 11  1  0  0  0  0
 11 25  1  0  0  0  0
 12 11  1  0  0  0  0
 12 27  1  0  0  0  0
 13 12  2  0  0  0  0
 14 13  1  0  0  0  0
 15 14  3  0  0  0  0
 16 10  1  0  0  0  0
 16 20  1  0  0  0  0
 17 16  1  0  0  0  0
 18 17  1  0  0  0  0
 18  9  1  0  0  0  0
 19 18  2  0  0  0  0
 21 16  1  0  0  0  0
 23 22  2  0  0  0  0
 24 22  1  0  0  0  0
 24  3  1  0  0  0  0
 26 24  1  0  0  0  0
 27 28  1  0  0  0  0
 27 29  1  0  0  0  0
M  END
>  <Pose>
1

>  <Score>
-6.205

$$$$
