MODEL 1
REMARK VINA RESULT:    -6.205      0.000      0.000
REMARK INTER + INTRA:          -6.386
REMARK INTER:                  -6.386
REMARK INTRA:                   0.000
REMARK UNBOUND:                 0.000
REMARK  1 active torsions:
REMARK  status: ('A' for Active; 'I' for Inactive)
REMARK    1  A    between atoms: C_12  and  N_16 
ROOT
ATOM      1 Cl   UNK d   1       3.689 -20.118 -41.012  0.00  0.00    -0.082 Cl
ATOM      2  C   UNK d   1       3.326 -19.367 -39.472  0.00  0.00     0.061 A 
ATOM      3  C   UNK d   1       2.149 -18.639 -39.296  0.00  0.00     0.065 A 
ATOM      4  C   UNK d   1       1.830 -18.039 -38.114  0.00  0.00    -0.002 A 
ATOM      5  C   UNK d   1       2.742 -18.188 -37.078  0.00  0.00     0.011 A 
ATOM      6  C   UNK d   1       3.909 -18.904 -37.232  0.00  0.00     0.002 A 
ATOM      7  C   UNK d   1       4.214 -19.502 -38.434  0.00  0.00     0.026 A 
ATOM      8  C   UNK d   1       0.529 -17.354 -38.259  0.00  0.00     0.146 A 
ATOM      9  C   UNK d   1       0.698 -15.868 -38.067  0.00  0.00     0.071 A 
ATOM     10  C   UNK d   1       0.032 -15.176 -37.185  0.00  0.00     0.060 A 
ATOM     11  N   UNK d   1      -0.923 -15.785 -36.318  0.00  0.00    -0.342 N 
ATOM     12  C   UNK d   1      -1.144 -17.179 -36.431  0.00  0.00     0.118 A 
ATOM     13  C   UNK d   1      -0.479 -17.886 -37.317  0.00  0.00     0.093 A 
ATOM     14  C   UNK d   1      -0.737 -19.317 -37.399  0.00  0.00     0.101 C 
ATOM     15  N   UNK d   1      -0.928 -20.456 -37.474  0.00  0.00    -0.191 NA
ATOM     16  C   UNK d   1       0.447 -13.762 -37.275  0.00  0.00     0.106 A 
ATOM     17  O   UNK d   1       1.393 -13.711 -38.270  0.00  0.00    -0.301 OA
ATOM     18  C   UNK d   1       1.588 -14.969 -38.791  0.00  0.00     0.294 A 
ATOM     19  O   UNK d   1       2.386 -15.317 -39.729  0.00  0.00    -0.259 OA
ATOM     20  C   UNK d   1       0.944 -13.307 -35.920  0.00  0.00     0.053 C 
ATOM     21  C   UNK d   1      -0.708 -12.857 -37.663  0.00  0.00     0.053 C 
ATOM     22  C   UNK d   1       0.125 -17.622 -39.659  0.00  0.00     0.246 A 
ATOM     23  O   UNK d   1      -0.948 -17.219 -40.235  0.00  0.00    -0.271 OA
ATOM     24  N   UNK d   1       1.134 -18.404 -40.257  0.00  0.00    -0.324 N 
ATOM     25  H   UNK d   1      -1.458 -15.238 -35.611  0.00  0.00     0.167 HD
ATOM     26  H   UNK d   1       1.099 -18.743 -41.267  0.00  0.00     0.169 HD
ENDROOT
BRANCH  12  27
ATOM     27  N   UNK d   1      -2.086 -17.861 -35.598  0.00  0.00    -0.384 N 
ATOM     28  H   UNK d   1      -2.121 -18.888 -35.574  0.00  0.00     0.157 HD
ATOM     29  H   UNK d   1      -2.727 -17.299 -35.024  0.00  0.00     0.157 HD
ENDBRANCH  12  27
TORSDOF 1
ENDMDL
