MODEL 1
REMARK VINA RESULT:    -6.080      0.000      0.000
REMARK INTER + INTRA:          -6.719
REMARK INTER:                  -6.435
REMARK INTRA:                  -0.284
REMARK UNBOUND:                -0.284
REMARK  1 active torsions:
REMARK  status: ('A' for Active; 'I' for Inactive)
REMARK    1  A    between atoms: C_5  and  N_8 
ROOT
ATOM      1  N   UNK d   1       1.775 -17.696 -37.740  0.00  0.00    -0.250 N 
ATOM      2  C   UNK d   1       1.727 -17.069 -36.450  0.00  0.00     0.263 C 
ATOM      3  O   UNK d   1       2.490 -17.307 -35.481  0.00  0.00    -0.270 OA
ATOM      4  C   UNK d   1       0.626 -16.079 -36.410  0.00  0.00     0.259 C 
ATOM      5  O   UNK d   1       1.043 -14.833 -35.956  0.00  0.00    -0.266 OA
ATOM      6  N   UNK d   1       1.877 -14.328 -36.851  0.00  0.00    -0.288 N 
ATOM      7  C   UNK d   1       1.656 -14.876 -38.116  0.00  0.00     0.125 C 
ATOM      8  C   UNK d   1       0.450 -15.792 -37.898  0.00  0.00     0.144 C 
ATOM      9  C   UNK d   1       0.686 -17.137 -38.474  0.00  0.00     0.240 C 
ATOM     10  O   UNK d   1       0.085 -17.729 -39.421  0.00  0.00    -0.272 OA
ATOM     11  C   UNK d   1       1.494 -13.984 -39.272  0.00  0.00     0.028 C 
ATOM     12  C   UNK d   1       1.640 -12.530 -39.054  0.00  0.00     0.004 C 
ATOM     13  C   UNK d   1       2.675 -12.300 -37.975  0.00  0.00     0.022 C 
ATOM     14  C   UNK d   1       2.143 -12.955 -36.727  0.00  0.00     0.150 C 
ENDROOT
BRANCH   1  15
ATOM     15  C   UNK d   1       2.705 -18.672 -38.211  0.00  0.00     0.045 A 
ATOM     16  C   UNK d   1       2.990 -19.835 -37.528  0.00  0.00     0.032 A 
ATOM     17  C   UNK d   1       3.894 -20.776 -37.992  0.00  0.00     0.026 A 
ATOM     18  C   UNK d   1       4.556 -20.575 -39.186  0.00  0.00     0.034 A 
ATOM     19 Cl   UNK d   1       5.703 -21.760 -39.785  0.00  0.00    -0.084 Cl
ATOM     20  C   UNK d   1       4.279 -19.414 -39.878  0.00  0.00     0.026 A 
ATOM     21  C   UNK d   1       3.375 -18.478 -39.410  0.00  0.00     0.032 A 
ENDBRANCH   1  15
TORSDOF 1
ENDMDL
