MODEL 1
REMARK VINA RESULT:    -6.545      0.000      0.000
REMARK INTER + INTRA:          -8.498
REMARK INTER:                  -7.501
REMARK INTRA:                  -0.997
REMARK UNBOUND:                -0.997
REMARK  3 active torsions:
REMARK  status: ('A' for Active; 'I' for Inactive)
REMARK    1  A    between atoms: C_7  and  C_9 
REMARK       I    between atoms: C_9  and  N_11 
REMARK    2  A    between atoms: C_14  and  N_19 
REMARK    3  A    between atoms: C_15  and  O_18 
REMARK       I    between atoms: N_22  and  C_25 
ROOT
ATOM      1  C   UNK d   1       0.967 -16.590 -38.417  0.00  0.00     0.203 C 
ATOM      2  O   UNK d   1      -0.084 -16.736 -39.235  0.00  0.00    -0.170 OA
ATOM      3  N   UNK d   1       1.200 -17.696 -37.629  0.00  0.00    -0.358 N 
ATOM      4  C   UNK d   1       0.235 -18.791 -37.930  0.00  0.00     0.127 C 
ATOM      5  C   UNK d   1       0.813 -19.670 -39.023  0.00  0.00     0.058 C 
ATOM      6  C   UNK d   1       2.281 -19.477 -39.033  0.00  0.00     0.253 C 
ATOM      7  C   UNK d   1       2.884 -19.841 -37.715  0.00  0.00     0.153 C 
ATOM      8  C   UNK d   1       3.463 -18.537 -37.139  0.00  0.00     0.054 C 
ATOM      9  C   UNK d   1       2.220 -17.776 -36.641  0.00  0.00     0.127 C 
ENDROOT
BRANCH   1  10
ATOM     10  C   UNK d   1       1.610 -15.311 -38.552  0.00  0.00     0.088 A 
ATOM     11  N   UNK d   1       2.203 -14.745 -39.606  0.00  0.00    -0.352 N 
ATOM     12  C   UNK d   1       2.717 -13.521 -39.275  0.00  0.00     0.043 A 
ATOM     13  H   UNK d   1       2.286 -15.105 -40.565  0.00  0.00     0.166 HD
ATOM     14  C   UNK d   1       2.438 -13.312 -37.970  0.00  0.00    -0.005 A 
ATOM     15  C   UNK d   1       3.406 -12.574 -39.984  0.00  0.00     0.032 A 
ATOM     16  C   UNK d   1       2.828 -12.149 -37.297  0.00  0.00     0.037 A 
ATOM     17  C   UNK d   1       1.749 -14.411 -37.497  0.00  0.00     0.048 A 
ATOM     18  C   UNK d   1       3.510 -11.219 -38.013  0.00  0.00     0.035 A 
ATOM     19 Cl   UNK d   1       4.022  -9.739 -37.198  0.00  0.00    -0.084 Cl
ATOM     20  C   UNK d   1       3.808 -11.410 -39.347  0.00  0.00     0.026 A 
ENDBRANCH   1  10
BRANCH   6  21
ATOM     21  N   UNK d   1       3.030 -20.060 -40.100  0.00  0.00     0.098 N 
ATOM     22  C   UNK d   1       4.015 -19.193 -40.697  0.00  0.00     0.293 C 
ATOM     23  C   UNK d   1       3.394 -18.024 -41.361  0.00  0.00     0.156 C 
ATOM     24  N   UNK d   1       2.431 -18.557 -42.331  0.00  0.00    -0.349 N 
ATOM     25  C   UNK d   1       2.357 -19.993 -42.416  0.00  0.00     0.156 C 
ATOM     26  C   UNK d   1       1.655 -17.665 -43.131  0.00  0.00     0.215 C 
ATOM     27  C   UNK d   1       2.215 -20.696 -41.099  0.00  0.00     0.293 C 
ATOM     28  O   UNK d   1       0.835 -18.125 -43.937  0.00  0.00    -0.274 OA
ATOM     29  C   UNK d   1       1.866 -16.192 -42.965  0.00  0.00     0.117 C 
ENDBRANCH   6  21
BRANCH   7  30
ATOM     30  O   UNK d   1       3.859 -20.833 -37.792  0.00  0.00    -0.393 OA
ATOM     31  H   UNK d   1       3.352 -21.701 -37.914  0.00  0.00     0.210 HD
ENDBRANCH   7  30
TORSDOF 3
ENDMDL
