MODEL 1
REMARK VINA RESULT:    -6.180      0.000      0.000
REMARK INTER + INTRA:          -9.696
REMARK INTER:                  -8.348
REMARK INTRA:                  -1.348
REMARK UNBOUND:                -1.348
REMARK  6 active torsions:
REMARK  status: ('A' for Active; 'I' for Inactive)
REMARK    1  A    between atoms: N_11  and  C_12 
REMARK    2  A    between atoms: C_12  and  C_13 
REMARK    3  A    between atoms: C_16  and  C_18 
REMARK       I    between atoms: C_18  and  N_20 
REMARK    4  A    between atoms: N_20  and  C_21 
REMARK    5  A    between atoms: C_21  and  C_22 
REMARK    6  A    between atoms: C_22  and  N_23 
ROOT
ATOM      1  C   UNK d   1       1.152 -17.088 -38.262  0.00  0.00     0.174 A 
ATOM      2  N   UNK d   1       0.567 -18.291 -38.399  0.00  0.00    -0.109 NA
ATOM      3  O   UNK d   1       1.371 -19.237 -38.005  0.00  0.00    -0.186 OA
ATOM      4  C   UNK d   1       2.486 -18.658 -37.608  0.00  0.00     0.264 A 
ATOM      5  N   UNK d   1       2.369 -17.336 -37.760  0.00  0.00    -0.198 NA
ENDROOT
BRANCH   1   6
ATOM      6  C   UNK d   1       0.519 -15.780 -38.583  0.00  0.00     0.217 C 
BRANCH   6   7
ATOM      7  N   UNK d   1       1.112 -14.732 -37.804  0.00  0.00    -0.283 N 
ATOM      8  C   UNK d   1       1.998 -13.794 -38.152  0.00  0.00     0.075 A 
ATOM      9  C   UNK d   1       2.636 -13.509 -39.351  0.00  0.00     0.056 A 
ATOM     10  C   UNK d   1       2.278 -12.989 -37.045  0.00  0.00     0.108 A 
ATOM     11  C   UNK d   1       3.522 -12.436 -39.390  0.00  0.00     0.036 A 
ATOM     12 Cl   UNK d   1       4.335 -12.071 -40.904  0.00  0.00    -0.084 Cl
ATOM     13  C   UNK d   1       3.777 -11.658 -38.274  0.00  0.00     0.026 A 
ATOM     14  C   UNK d   1       3.149 -11.940 -37.100  0.00  0.00     0.041 A 
ATOM     15  O   UNK d   1       1.547 -13.487 -36.096  0.00  0.00    -0.259 OA
ATOM     16  C   UNK d   1       0.846 -14.514 -36.504  0.00  0.00     0.373 A 
ATOM     17  O   UNK d   1       0.061 -15.165 -35.764  0.00  0.00    -0.237 OA
ENDBRANCH   6   7
ENDBRANCH   1   6
BRANCH   4  18
ATOM     18  C   UNK d   1       3.641 -19.462 -37.082  0.00  0.00     0.297 C 
ATOM     19  O   UNK d   1       3.976 -19.056 -35.916  0.00  0.00    -0.264 OA
ATOM     20  N   UNK d   1       4.172 -20.454 -37.819  0.00  0.00    -0.352 N 
ATOM     21  H   UNK d   1       5.026 -20.751 -36.787  0.00  0.00     0.162 HD
BRANCH  20  22
ATOM     22  C   UNK d   1       4.730 -21.477 -38.562  0.00  0.00     0.142 C 
BRANCH  22  23
ATOM     23  C   UNK d   1       4.646 -21.247 -40.076  0.00  0.00     0.136 C 
BRANCH  23  24
ATOM     24  N   UNK d   1       3.748 -20.236 -40.475  0.00  0.00    -0.407 N 
ATOM     25  C   UNK d   1       2.567 -20.783 -41.017  0.00  0.00     0.143 C 
ATOM     26  C   UNK d   1       1.887 -19.877 -41.987  0.00  0.00     0.187 C 
ATOM     27  O   UNK d   1       1.933 -18.593 -41.506  0.00  0.00    -0.388 OA
ATOM     28  C   UNK d   1       3.205 -18.056 -41.458  0.00  0.00     0.187 C 
ATOM     29  C   UNK d   1       4.248 -19.028 -40.990  0.00  0.00     0.143 C 
ENDBRANCH  23  24
ENDBRANCH  22  23
ENDBRANCH  20  22
ENDBRANCH   4  18
TORSDOF 6
ENDMDL
