/Users/jonathanwahrer/Desktop/Msc/3_Semester/Drug_Design_Praktikum/waehrer_HTS_screening/HTS_experiment/out/docking_results/vina_output/6y4q/2122_docked.pdbqt
 OpenBabel03232218573D

 29 32  0  0  0  0  0  0  0  0999 V2000
    1.1520  -17.0880  -38.2620 C   0  0  0  0  0  0  0  0  0  0  0  0
    0.5670  -18.2910  -38.3990 N   0  0  0  0  0  0  0  0  0  0  0  0
    1.3710  -19.2370  -38.0050 O   0  0  0  0  0  0  0  0  0  0  0  0
    2.4860  -18.6580  -37.6080 C   0  0  0  0  0  0  0  0  0  0  0  0
    2.3690  -17.3360  -37.7600 N   0  0  0  0  0  0  0  0  0  0  0  0
    0.5190  -15.7800  -38.5830 C   0  0  0  0  0  2  0  0  0  0  0  0
    1.1120  -14.7320  -37.8040 N   0  0  0  0  0  0  0  0  0  0  0  0
    1.9980  -13.7940  -38.1520 C   0  0  0  0  0  0  0  0  0  0  0  0
    2.6360  -13.5090  -39.3510 C   0  0  0  0  0  3  0  0  0  0  0  0
    2.2780  -12.9890  -37.0450 C   0  0  0  0  0  0  0  0  0  0  0  0
    3.5220  -12.4360  -39.3900 C   0  0  0  0  0  0  0  0  0  0  0  0
    4.3350  -12.0710  -40.9040 Cl  0  0  0  0  0  0  0  0  0  0  0  0
    3.7770  -11.6580  -38.2740 C   0  0  0  0  0  3  0  0  0  0  0  0
    3.1490  -11.9400  -37.1000 C   0  0  0  0  0  3  0  0  0  0  0  0
    1.5470  -13.4870  -36.0960 O   0  0  0  0  0  0  0  0  0  0  0  0
    0.8460  -14.5140  -36.5040 C   0  0  0  0  0  0  0  0  0  0  0  0
    0.0610  -15.1650  -35.7640 O   0  0  0  0  0  0  0  0  0  0  0  0
    3.6410  -19.4620  -37.0820 C   0  0  0  0  0  0  0  0  0  0  0  0
    3.9760  -19.0560  -35.9160 O   0  0  0  0  0  0  0  0  0  0  0  0
    4.1720  -20.4540  -37.8190 N   0  0  0  0  0  0  0  0  0  0  0  0
    5.0260  -20.7510  -36.7870 H   0  0  0  0  0  0  0  0  0  0  0  0
    4.7300  -21.4770  -38.5620 C   0  0  0  0  0  2  0  0  0  0  0  0
    4.6460  -21.2470  -40.0760 C   0  0  0  0  0  2  0  0  0  0  0  0
    3.7480  -20.2360  -40.4750 N   0  0  0  0  0  0  0  0  0  0  0  0
    2.5670  -20.7830  -41.0170 C   0  0  0  0  0  2  0  0  0  0  0  0
    1.8870  -19.8770  -41.9870 C   0  0  0  0  0  2  0  0  0  0  0  0
    1.9330  -18.5930  -41.5060 O   0  0  0  0  0  0  0  0  0  0  0  0
    3.2050  -18.0560  -41.4580 C   0  0  0  0  0  2  0  0  0  0  0  0
    4.2480  -19.0280  -40.9900 C   0  0  0  0  0  2  0  0  0  0  0  0
  1  5  1  0  0  0  0
  2  1  2  0  0  0  0
  2  3  1  0  0  0  0
  3  4  1  0  0  0  0
  4 18  1  0  0  0  0
  5  4  2  0  0  0  0
  6  1  1  0  0  0  0
  6  7  1  0  0  0  0
  7 16  1  0  0  0  0
  8  7  1  0  0  0  0
  8 10  1  0  0  0  0
  9  8  2  0  0  0  0
 10 15  1  0  0  0  0
 11  9  1  0  0  0  0
 11 13  2  0  0  0  0
 12 11  1  0  0  0  0
 13 14  1  0  0  0  0
 14 10  2  0  0  0  0
 16 15  1  0  0  0  0
 16 17  2  0  0  0  0
 18 19  2  0  0  0  0
 20 18  1  0  0  0  0
 20 21  1  0  0  0  0
 22 20  1  0  0  0  0
 23 22  1  0  0  0  0
 24 23  1  0  0  0  0
 25 24  1  0  0  0  0
 26 27  1  0  0  0  0
 26 25  1  0  0  0  0
 27 28  1  0  0  0  0
 28 29  1  0  0  0  0
 29 24  1  0  0  0  0
M  END
>  <Pose>
1

>  <Score>
-6.180

$$$$
