MODEL 1
REMARK VINA RESULT:    -6.415      0.000      0.000
REMARK INTER + INTRA:          -7.439
REMARK INTER:                  -7.165
REMARK INTRA:                  -0.275
REMARK UNBOUND:                -0.275
REMARK  2 active torsions:
REMARK  status: ('A' for Active; 'I' for Inactive)
REMARK    1  A    between atoms: C_5  and  N_8 
REMARK    2  A    between atoms: C_12  and  C_21 
ROOT
ATOM      1  N   UNK d   1       1.696 -16.672 -38.078  0.00  0.00    -0.252 N 
ATOM      2  C   UNK d   1       2.560 -17.649 -37.516  0.00  0.00     0.239 C 
ATOM      3  O   UNK d   1       2.733 -17.843 -36.284  0.00  0.00    -0.272 OA
ATOM      4  C   UNK d   1       3.247 -18.428 -38.600  0.00  0.00     0.138 C 
ATOM      5  C   UNK d   1       2.982 -19.890 -38.462  0.00  0.00     0.142 C 
ATOM      6  O   UNK d   1       2.541 -20.295 -39.746  0.00  0.00    -0.355 OA
ATOM      7  C   UNK d   1       1.513 -19.327 -39.871  0.00  0.00     0.089 C 
ATOM      8  C   UNK d   1       2.386 -18.077 -39.822  0.00  0.00     0.133 C 
ATOM      9  C   UNK d   1       1.658 -16.862 -39.487  0.00  0.00     0.239 C 
ATOM     10  O   UNK d   1       1.094 -16.117 -40.329  0.00  0.00    -0.272 OA
ATOM     11  C   UNK d   1       0.780 -19.547 -38.601  0.00  0.00     0.010 C 
ATOM     12  C   UNK d   1       1.686 -20.030 -37.725  0.00  0.00     0.016 C 
ATOM     13  C   UNK d   1       0.704 -19.458 -41.093  0.00  0.00     0.051 C 
ENDROOT
BRANCH   1  14
ATOM     14  C   UNK d   1       0.950 -15.635 -37.435  0.00  0.00     0.045 A 
ATOM     15  C   UNK d   1      -0.417 -15.669 -37.291  0.00  0.00     0.032 A 
ATOM     16  C   UNK d   1      -1.128 -14.659 -36.668  0.00  0.00     0.026 A 
ATOM     17  C   UNK d   1      -0.470 -13.564 -36.163  0.00  0.00     0.034 A 
ATOM     18 Cl   UNK d   1      -1.338 -12.249 -35.366  0.00  0.00    -0.084 Cl
ATOM     19  C   UNK d   1       0.899 -13.515 -36.302  0.00  0.00     0.026 A 
ATOM     20  C   UNK d   1       1.615 -14.534 -36.928  0.00  0.00     0.032 A 
ENDBRANCH   1  14
BRANCH   5  21
ATOM     21  C   UNK d   1       4.071 -20.721 -37.934  0.00  0.00     0.298 C 
ATOM     22  O   UNK d   1       4.270 -21.796 -38.803  0.00  0.00    -0.356 OA
ATOM     23  C   UNK d   1       5.161 -21.407 -39.770  0.00  0.00     0.197 C 
ATOM     24  C   UNK d   1       5.969 -20.346 -39.070  0.00  0.00     0.197 C 
ATOM     25  O   UNK d   1       5.262 -19.993 -37.943  0.00  0.00    -0.356 OA
ENDBRANCH   5  21
TORSDOF 2
ENDMDL
