MODEL 1
REMARK VINA RESULT:    -6.694      0.000      0.000
REMARK INTER + INTRA:          -9.142
REMARK INTER:                  -8.259
REMARK INTRA:                  -0.883
REMARK UNBOUND:                -0.883
REMARK  4 active torsions:
REMARK  status: ('A' for Active; 'I' for Inactive)
REMARK    1  A    between atoms: C_5  and  N_8 
REMARK       I    between atoms: N_8  and  C_9 
REMARK       I    between atoms: C_9  and  N_11 
REMARK    2  A    between atoms: N_11  and  N_12 
REMARK       I    between atoms: N_12  and  C_13 
REMARK    3  A    between atoms: C_13  and  C_15 
REMARK    4  A    between atoms: N_17  and  C_26 
ROOT
ATOM      1  C   UNK d   1       6.622 -23.264 -42.930  0.00  0.00     0.244 A 
ATOM      2  N   UNK d   1       7.813 -23.812 -42.953  0.00  0.00    -0.127 NA
ATOM      3  N   UNK d   1       7.800 -25.079 -43.479  0.00  0.00    -0.058 N 
ATOM      4  C   UNK d   1       6.439 -25.342 -43.824  0.00  0.00     0.756 A 
ATOM      5  N   UNK d   1       5.845 -26.369 -44.354  0.00  0.00     0.020 NA
ATOM      6  N   UNK d   1       4.446 -26.382 -44.600  0.00  0.00    -0.258 N 
ATOM      7  C   UNK d   1       3.624 -25.286 -44.283  0.00  0.00     0.110 A 
ATOM      8  C   UNK d   1       2.316 -25.287 -44.498  0.00  0.00     0.050 C 
ATOM      9  C   UNK d   1       4.272 -24.121 -43.689  0.00  0.00     0.295 A 
ATOM     10  O   UNK d   1       3.569 -23.147 -43.403  0.00  0.00    -0.265 OA
ATOM     11  N   UNK d   1       5.683 -24.184 -43.474  0.00  0.00    -0.080 N 
ATOM     12  H   UNK d   1       4.071 -27.258 -45.029  0.00  0.00     0.190 HD
ENDROOT
BRANCH   1  13
ATOM     13  C   UNK d   1       6.337 -21.934 -42.429  0.00  0.00     0.308 C 
ATOM     14  N   UNK d   1       5.466 -21.780 -41.324  0.00  0.00    -0.259 N 
ATOM     15  H   UNK d   1       5.039 -22.580 -40.834  0.00  0.00     0.190 HD
ATOM     16  O   UNK d   1       6.849 -20.900 -42.966  0.00  0.00    -0.262 OA
BRANCH  14  17
ATOM     17  N   UNK d   1       5.184 -20.495 -40.875  0.00  0.00    -0.248 N 
ATOM     18  C   UNK d   1       4.124 -20.108 -40.032  0.00  0.00     0.339 C 
ATOM     19  N   UNK d   1       3.896 -18.785 -39.614  0.00  0.00    -0.308 N 
ATOM     20  O   UNK d   1       3.330 -20.997 -39.620  0.00  0.00    -0.245 OA
ATOM     21  H   UNK d   1       4.536 -18.021 -39.946  0.00  0.00     0.170 HD
ATOM     22  H   UNK d   1       5.864 -19.752 -41.241  0.00  0.00     0.192 HD
BRANCH  19  23
ATOM     23  C   UNK d   1       2.848 -18.360 -38.749  0.00  0.00     0.036 A 
ATOM     24  C   UNK d   1       1.555 -18.180 -39.232  0.00  0.00     0.031 A 
ATOM     25  C   UNK d   1       0.522 -17.769 -38.418  0.00  0.00     0.026 A 
ATOM     26  C   UNK d   1       0.820 -17.542 -37.100  0.00  0.00     0.034 A 
ATOM     27 Cl   UNK d   1      -0.437 -17.017 -35.971  0.00  0.00    -0.084 Cl
ATOM     28  C   UNK d   1       2.076 -17.707 -36.582  0.00  0.00     0.026 A 
ATOM     29  C   UNK d   1       3.100 -18.117 -37.406  0.00  0.00     0.031 A 
ENDBRANCH  19  23
ENDBRANCH  14  17
ENDBRANCH   1  13
BRANCH   3  30
ATOM     30  C   UNK d   1       8.915 -25.957 -43.597  0.00  0.00     0.077 A 
ATOM     31  C   UNK d   1       9.691 -26.280 -42.511  0.00  0.00     0.033 A 
ATOM     32  C   UNK d   1      10.763 -27.161 -42.563  0.00  0.00     0.009 A 
ATOM     33  C   UNK d   1      11.098 -27.766 -43.757  0.00  0.00    -0.062 A 
ATOM     34  C   UNK d   1      10.335 -27.455 -44.863  0.00  0.00     0.009 A 
ATOM     35  C   UNK d   1      12.220 -28.750 -43.850  0.00  0.00     0.048 C 
ATOM     36  C   UNK d   1       9.265 -26.566 -44.781  0.00  0.00     0.033 A 
ENDBRANCH   3  30
TORSDOF 4
ENDMDL
