MODEL 1
REMARK VINA RESULT:    -7.132      0.000      0.000
REMARK INTER + INTRA:         -10.012
REMARK INTER:                  -9.216
REMARK INTRA:                  -0.796
REMARK UNBOUND:                -0.796
REMARK  5 active torsions:
REMARK  status: ('A' for Active; 'I' for Inactive)
REMARK    1  A    between atoms: C_10  and  C_22 
REMARK    2  A    between atoms: N_15  and  C_18 
REMARK    3  A    between atoms: C_18  and  C_19 
REMARK    4  A    between atoms: C_19  and  O_20 
REMARK    5  A    between atoms: C_22  and  C_23 
ROOT
ATOM      1 Cl   UNK d   1       1.847 -20.582 -40.252  0.00  0.00    -0.082 Cl
ATOM      2  C   UNK d   1       2.219 -19.589 -38.858  0.00  0.00     0.061 A 
ATOM      3  C   UNK d   1       1.631 -18.360 -38.640  0.00  0.00     0.066 A 
ATOM      4  C   UNK d   1       1.950 -17.596 -37.523  0.00  0.00     0.019 A 
ATOM      5  C   UNK d   1       2.868 -18.127 -36.659  0.00  0.00     0.013 A 
ATOM      6  C   UNK d   1       3.463 -19.350 -36.858  0.00  0.00     0.002 A 
ATOM      7  C   UNK d   1       3.148 -20.094 -37.955  0.00  0.00     0.026 A 
ATOM      8  C   UNK d   1       1.166 -16.357 -37.579  0.00  0.00     0.279 A 
ATOM      9  N   UNK d   1       2.002 -15.170 -37.587  0.00  0.00     0.114 N 
ATOM     10  C   UNK d   1       1.035 -14.117 -37.264  0.00  0.00     0.240 C 
ATOM     11  C   UNK d   1       0.071 -14.702 -36.304  0.00  0.00     0.128 C 
ATOM     12  C   UNK d   1       0.361 -16.169 -36.321  0.00  0.00     0.147 C 
ATOM     13  C   UNK d   1      -0.912 -16.895 -36.337  0.00  0.00     0.235 C 
ATOM     14  O   UNK d   1      -1.022 -18.123 -36.092  0.00  0.00    -0.272 OA
ATOM     15  N   UNK d   1      -1.920 -15.950 -36.671  0.00  0.00    -0.286 N 
ATOM     16  C   UNK d   1      -1.343 -14.661 -36.832  0.00  0.00     0.233 C 
ATOM     17  O   UNK d   1      -1.859 -13.618 -37.320  0.00  0.00    -0.272 OA
ATOM     18  C   UNK d   1       0.359 -16.425 -38.808  0.00  0.00     0.267 A 
ATOM     19  O   UNK d   1      -0.446 -15.595 -39.255  0.00  0.00    -0.270 OA
ATOM     20  N   UNK d   1       0.673 -17.665 -39.425  0.00  0.00    -0.323 N 
ATOM     21  H   UNK d   1       2.439 -15.003 -38.535  0.00  0.00     0.318 HD
ATOM     22  H   UNK d   1       0.272 -18.040 -40.326  0.00  0.00     0.169 HD
ENDROOT
BRANCH  10  23
ATOM     23  C   UNK d   1       1.717 -12.911 -36.692  0.00  0.00     0.075 C 
BRANCH  23  24
ATOM     24  C   UNK d   1       2.711 -12.288 -37.582  0.00  0.00    -0.056 A 
ATOM     25  C   UNK d   1       3.680 -11.475 -36.998  0.00  0.00     0.007 A 
ATOM     26  C   UNK d   1       4.632 -10.897 -37.798  0.00  0.00     0.001 A 
ATOM     27  C   UNK d   1       4.676 -11.082 -39.159  0.00  0.00     0.000 A 
ATOM     28  C   UNK d   1       3.701 -11.892 -39.698  0.00  0.00     0.001 A 
ATOM     29  C   UNK d   1       2.721 -12.499 -38.940  0.00  0.00     0.007 A 
ENDBRANCH  23  24
ENDBRANCH  10  23
BRANCH  15  30
ATOM     30  C   UNK d   1      -3.337 -16.270 -36.824  0.00  0.00     0.161 C 
BRANCH  30  31
ATOM     31  C   UNK d   1      -3.553 -16.767 -38.246  0.00  0.00     0.187 C 
BRANCH  31  32
ATOM     32  O   UNK d   1      -3.593 -18.152 -38.285  0.00  0.00    -0.394 OA
ATOM     33  C   UNK d   1      -2.832 -18.605 -39.345  0.00  0.00     0.201 C 
ENDBRANCH  31  32
ENDBRANCH  30  31
ENDBRANCH  15  30
TORSDOF 5
ENDMDL
