MODEL 1
REMARK VINA RESULT:    -6.198      0.000      0.000
REMARK INTER + INTRA:          -8.110
REMARK INTER:                  -7.466
REMARK INTRA:                  -0.644
REMARK UNBOUND:                -0.644
REMARK  4 active torsions:
REMARK  status: ('A' for Active; 'I' for Inactive)
REMARK    1  A    between atoms: C_5  and  C_8 
REMARK    2  A    between atoms: C_8  and  N_9 
REMARK    3  A    between atoms: N_12  and  C_15 
REMARK    4  A    between atoms: C_17  and  N_24 
ROOT
ATOM      1  N   UNK d   1       0.844 -17.537 -38.215  0.00  0.00    -0.405 N 
ATOM      2  C   UNK d   1       0.948 -17.305 -39.601  0.00  0.00     0.137 C 
ATOM      3  C   UNK d   1       1.971 -18.122 -40.342  0.00  0.00     0.144 C 
ATOM      4  N   UNK d   1       2.211 -19.330 -39.509  0.00  0.00    -0.360 N 
ATOM      5  C   UNK d   1       1.043 -19.847 -38.904  0.00  0.00     0.144 C 
ATOM      6  C   UNK d   1       0.646 -18.896 -37.795  0.00  0.00     0.137 C 
ENDROOT
BRANCH   4   7
ATOM      7  C   UNK d   1       3.538 -19.808 -39.461  0.00  0.00     0.176 A 
ATOM      8  N   UNK d   1       4.426 -19.223 -38.603  0.00  0.00    -0.043 NA
ATOM      9  C   UNK d   1       5.706 -19.553 -38.486  0.00  0.00     0.724 A 
ATOM     10  N   UNK d   1       6.186 -20.538 -39.263  0.00  0.00    -0.041 NA
ATOM     11  C   UNK d   1       5.354 -21.156 -40.132  0.00  0.00     0.200 A 
ATOM     12  N   UNK d   1       5.545 -22.160 -41.007  0.00  0.00    -0.222 NA
ATOM     13  C   UNK d   1       4.007 -20.812 -40.259  0.00  0.00     0.129 A 
ATOM     14  C   UNK d   1       4.396 -22.422 -41.632  0.00  0.00     0.210 A 
ATOM     15  N   UNK d   1       3.432 -21.600 -41.182  0.00  0.00    -0.344 N 
ATOM     16  H   UNK d   1       2.444 -21.621 -41.514  0.00  0.00     0.167 HD
BRANCH   9  17
ATOM     17  N   UNK d   1       6.590 -18.892 -37.557  0.00  0.00    -0.231 N 
ATOM     18  H   UNK d   1       6.890 -19.336 -36.678  0.00  0.00     0.174 HD
ATOM     19  H   UNK d   1       6.942 -17.938 -37.771  0.00  0.00     0.174 HD
ENDBRANCH   9  17
ENDBRANCH   4   7
BRANCH   1  20
ATOM     20  C   UNK d   1       1.602 -16.721 -37.348  0.00  0.00     0.155 C 
BRANCH  20  21
ATOM     21  C   UNK d   1       0.955 -15.499 -36.874  0.00  0.00    -0.041 A 
ATOM     22  C   UNK d   1       1.699 -14.401 -36.523  0.00  0.00     0.010 A 
ATOM     23  C   UNK d   1       1.146 -13.210 -36.065  0.00  0.00     0.024 A 
ATOM     24  C   UNK d   1      -0.228 -13.153 -35.966  0.00  0.00     0.034 A 
ATOM     25 Cl   UNK d   1      -0.997 -11.687 -35.395  0.00  0.00    -0.084 Cl
ATOM     26  C   UNK d   1      -0.977 -14.254 -36.315  0.00  0.00     0.024 A 
ATOM     27  C   UNK d   1      -0.411 -15.421 -36.766  0.00  0.00     0.010 A 
ENDBRANCH  20  21
ENDBRANCH   1  20
TORSDOF 4
ENDMDL
