/Users/jonathanwahrer/Desktop/Msc/3_Semester/Drug_Design_Praktikum/waehrer_HTS_screening/HTS_experiment/out/docking_results/vina_output/6y4q/2149_docked.pdbqt
 OpenBabel03232218583D

 24 27  0  0  0  0  0  0  0  0999 V2000
    0.8520  -16.8920  -37.1480 N   0  0  0  0  0  0  0  0  0  0  0  0
    0.3940  -16.9270  -38.3850 N   0  0  0  0  0  0  0  0  0  0  0  0
    1.1580  -17.6800  -39.1550 N   0  0  0  0  0  0  0  0  0  0  0  0
    2.1570  -18.1650  -38.4170 C   0  0  0  0  0  0  0  0  0  0  0  0
    1.9650  -17.6680  -37.1470 C   0  0  0  0  0  0  0  0  0  0  0  0
    2.8490  -18.0130  -36.2000 N   0  0  0  0  0  0  0  0  0  0  0  0
    3.8870  -18.8190  -36.4830 C   0  0  0  0  0  3  0  0  0  0  0  0
    4.0530  -19.2920  -37.7310 N   0  0  0  0  0  0  0  0  0  0  0  0
    3.2140  -19.0000  -38.7590 C   0  0  0  0  0  0  0  0  0  0  0  0
    0.3080  -16.1810  -35.9920 C   0  0  0  0  0  2  0  0  0  0  0  0
    0.3990  -14.7260  -36.2750 C   0  0  0  0  0  0  0  0  0  0  0  0
   -0.7710  -14.0290  -36.4040 C   0  0  0  0  0  3  0  0  0  0  0  0
   -0.7780  -12.6690  -36.6670 C   0  0  0  0  0  3  0  0  0  0  0  0
    0.4160  -12.0060  -36.8020 C   0  0  0  0  0  0  0  0  0  0  0  0
    0.4300  -10.2780  -37.1370 Cl  0  0  0  0  0  0  0  0  0  0  0  0
    1.5910  -12.7180  -36.6700 C   0  0  0  0  0  3  0  0  0  0  0  0
    1.5970  -14.0650  -36.4100 C   0  0  0  0  0  3  0  0  0  0  0  0
    3.3830  -19.4930  -40.0650 N   0  0  0  0  0  0  0  0  0  0  0  0
    4.2280  -18.9410  -41.0900 C   0  0  0  0  0  2  0  0  0  0  0  0
    5.2130  -19.9760  -41.4910 C   0  0  0  0  0  2  0  0  0  0  0  0
    4.9490  -21.3100  -41.1510 N   0  0  0  0  0  0  0  0  0  0  0  0
    3.6480  -21.7200  -40.8310 C   0  0  0  0  0  2  0  0  0  0  0  0
    5.8580  -21.7260  -40.0980 C   0  0  0  0  0  1  0  0  0  0  0  0
    2.6620  -20.6700  -40.4800 C   0  0  0  0  0  2  0  0  0  0  0  0
  1  5  1  0  0  0  0
  1 10  1  0  0  0  0
  2  1  1  0  0  0  0
  3  4  1  0  0  0  0
  3  2  2  0  0  0  0
  4  5  1  0  0  0  0
  5  6  2  0  0  0  0
  7  6  1  0  0  0  0
  8  7  2  0  0  0  0
  9  4  2  0  0  0  0
  9  8  1  0  0  0  0
 11 10  1  0  0  0  0
 12 11  1  0  0  0  0
 13 12  2  0  0  0  0
 14 16  2  0  0  0  0
 14 13  1  0  0  0  0
 15 14  1  0  0  0  0
 16 17  1  0  0  0  0
 17 11  2  0  0  0  0
 18  9  1  0  0  0  0
 19 18  1  0  0  0  0
 20 21  1  0  0  0  0
 20 19  1  0  0  0  0
 21 22  1  0  0  0  0
 21 23  1  0  0  0  0
 22 24  1  0  0  0  0
 24 18  1  0  0  0  0
M  END
>  <Pose>
1

>  <Score>
-5.983

$$$$
