MODEL 1
REMARK VINA RESULT:    -6.624      0.000      0.000
REMARK INTER + INTRA:          -7.943
REMARK INTER:                  -7.399
REMARK INTRA:                  -0.544
REMARK UNBOUND:                -0.544
REMARK  2 active torsions:
REMARK  status: ('A' for Active; 'I' for Inactive)
REMARK    1  A    between atoms: C_10  and  N_11 
REMARK    2  A    between atoms: N_14  and  C_17 
ROOT
ATOM      1  N   UNK d   1       4.032 -20.145 -39.710  0.00  0.00    -0.384 N 
ATOM      2  C   UNK d   1       3.884 -20.488 -38.316  0.00  0.00     0.142 C 
ATOM      3  C   UNK d   1       3.599 -19.222 -37.549  0.00  0.00     0.144 C 
ATOM      4  N   UNK d   1       2.616 -18.372 -38.189  0.00  0.00    -0.362 N 
ATOM      5  C   UNK d   1       2.764 -18.074 -39.600  0.00  0.00     0.144 C 
ATOM      6  C   UNK d   1       2.989 -19.367 -40.339  0.00  0.00     0.142 C 
ENDROOT
BRANCH   1   7
ATOM      7  C   UNK d   1       5.195 -20.602 -40.387  0.00  0.00     0.134 C 
ATOM      8  C   UNK d   1       5.235 -21.621 -41.214  0.00  0.00     0.124 A 
ATOM      9  N   UNK d   1       4.087 -22.400 -41.533  0.00  0.00    -0.340 N 
ATOM     10  N   UNK d   1       6.463 -21.979 -41.829  0.00  0.00    -0.308 N 
ATOM     11  C   UNK d   1       4.094 -23.506 -42.422  0.00  0.00     0.049 A 
ATOM     12  H   UNK d   1       3.193 -22.123 -41.074  0.00  0.00     0.167 HD
ATOM     13  C   UNK d   1       5.284 -23.862 -43.024  0.00  0.00     0.060 A 
ATOM     14  C   UNK d   1       2.984 -24.263 -42.733  0.00  0.00     0.032 A 
ATOM     15  C   UNK d   1       5.352 -24.924 -43.893  0.00  0.00     0.043 A 
ATOM     16  C   UNK d   1       6.493 -23.073 -42.714  0.00  0.00     0.259 A 
ATOM     17  C   UNK d   1       4.232 -25.669 -44.192  0.00  0.00     0.035 A 
ATOM     18 Cl   UNK d   1       4.363 -27.026 -45.315  0.00  0.00    -0.084 Cl
ATOM     19  C   UNK d   1       3.036 -25.329 -43.601  0.00  0.00     0.026 A 
ATOM     20  O   UNK d   1       7.558 -23.453 -43.302  0.00  0.00    -0.267 OA
ATOM     21  H   UNK d   1       7.349 -21.456 -41.646  0.00  0.00     0.170 HD
ENDBRANCH   1   7
BRANCH   4  22
ATOM     22  C   UNK d   1       1.526 -17.845 -37.430  0.00  0.00     0.142 A 
ATOM     23  N   UNK d   1       1.726 -16.737 -36.690  0.00  0.00    -0.224 NA
ATOM     24  C   UNK d   1       0.714 -16.201 -35.951  0.00  0.00     0.237 A 
ATOM     25  N   UNK d   1      -0.512 -16.770 -35.943  0.00  0.00    -0.222 NA
ATOM     26  C   UNK d   1      -0.771 -17.870 -36.658  0.00  0.00     0.162 A 
ATOM     27  N   UNK d   1      -1.872 -18.624 -36.829  0.00  0.00    -0.256 N 
ATOM     28  C   UNK d   1       0.276 -18.406 -37.409  0.00  0.00     0.076 A 
ATOM     29  N   UNK d   1      -1.554 -19.605 -37.654  0.00  0.00    -0.182 NA
ATOM     30  C   UNK d   1      -3.193 -18.422 -36.226  0.00  0.00     0.182 C 
ATOM     31  C   UNK d   1      -0.248 -19.499 -38.027  0.00  0.00     0.158 A 
ENDBRANCH   4  22
TORSDOF 2
ENDMDL
