/Users/jonathanwahrer/Desktop/Msc/3_Semester/Drug_Design_Praktikum/waehrer_HTS_screening/HTS_experiment/out/docking_results/vina_output/6y4q/2177_docked.pdbqt
 OpenBabel03232218593D

 31 35  0  0  0  0  0  0  0  0999 V2000
    4.0320  -20.1450  -39.7100 N   0  0  0  0  0  0  0  0  0  0  0  0
    3.8840  -20.4880  -38.3160 C   0  0  0  0  0  2  0  0  0  0  0  0
    3.5990  -19.2220  -37.5490 C   0  0  0  0  0  2  0  0  0  0  0  0
    2.6160  -18.3720  -38.1890 N   0  0  0  0  0  0  0  0  0  0  0  0
    2.7640  -18.0740  -39.6000 C   0  0  0  0  0  2  0  0  0  0  0  0
    2.9890  -19.3670  -40.3390 C   0  0  0  0  0  2  0  0  0  0  0  0
    5.1950  -20.6020  -40.3870 C   0  0  0  0  0  3  0  0  0  0  0  0
    5.2350  -21.6210  -41.2140 C   0  0  0  0  0  0  0  0  0  0  0  0
    4.0870  -22.4000  -41.5330 N   0  0  0  0  0  0  0  0  0  0  0  0
    6.4630  -21.9790  -41.8290 N   0  0  0  0  0  0  0  0  0  0  0  0
    4.0940  -23.5060  -42.4220 C   0  0  0  0  0  0  0  0  0  0  0  0
    3.1930  -22.1230  -41.0740 H   0  0  0  0  0  0  0  0  0  0  0  0
    5.2840  -23.8620  -43.0240 C   0  0  0  0  0  0  0  0  0  0  0  0
    2.9840  -24.2630  -42.7330 C   0  0  0  0  0  3  0  0  0  0  0  0
    5.3520  -24.9240  -43.8930 C   0  0  0  0  0  3  0  0  0  0  0  0
    6.4930  -23.0730  -42.7140 C   0  0  0  0  0  0  0  0  0  0  0  0
    4.2320  -25.6690  -44.1920 C   0  0  0  0  0  0  0  0  0  0  0  0
    4.3630  -27.0260  -45.3150 Cl  0  0  0  0  0  0  0  0  0  0  0  0
    3.0360  -25.3290  -43.6010 C   0  0  0  0  0  3  0  0  0  0  0  0
    7.5580  -23.4530  -43.3020 O   0  0  0  0  0  0  0  0  0  0  0  0
    7.3490  -21.4560  -41.6460 H   0  0  0  0  0  0  0  0  0  0  0  0
    1.5260  -17.8450  -37.4300 C   0  0  0  0  0  0  0  0  0  0  0  0
    1.7260  -16.7370  -36.6900 N   0  0  0  0  0  0  0  0  0  0  0  0
    0.7140  -16.2010  -35.9510 C   0  0  0  0  0  3  0  0  0  0  0  0
   -0.5120  -16.7700  -35.9430 N   0  0  0  0  0  0  0  0  0  0  0  0
   -0.7710  -17.8700  -36.6580 C   0  0  0  0  0  0  0  0  0  0  0  0
   -1.8720  -18.6240  -36.8290 N   0  0  0  0  0  0  0  0  0  0  0  0
    0.2760  -18.4060  -37.4090 C   0  0  0  0  0  0  0  0  0  0  0  0
   -1.5540  -19.6050  -37.6540 N   0  0  0  0  0  0  0  0  0  0  0  0
   -3.1930  -18.4220  -36.2260 C   0  0  0  0  0  1  0  0  0  0  0  0
   -0.2480  -19.4990  -38.0270 C   0  0  0  0  0  3  0  0  0  0  0  0
  1  2  1  0  0  0  0
  2  3  1  0  0  0  0
  4  3  1  0  0  0  0
  4 22  1  0  0  0  0
  5  4  1  0  0  0  0
  6  1  1  0  0  0  0
  6  5  1  0  0  0  0
  7  1  1  0  0  0  0
  8  7  2  0  0  0  0
  9  8  1  0  0  0  0
  9 12  1  0  0  0  0
 10 21  1  0  0  0  0
 10  8  1  0  0  0  0
 11  9  1  0  0  0  0
 13 16  1  0  0  0  0
 13 11  2  0  0  0  0
 14 11  1  0  0  0  0
 15 13  1  0  0  0  0
 16 10  1  0  0  0  0
 17 15  2  0  0  0  0
 17 19  1  0  0  0  0
 18 17  1  0  0  0  0
 19 14  2  0  0  0  0
 20 16  2  0  0  0  0
 22 28  2  0  0  0  0
 22 23  1  0  0  0  0
 23 24  2  0  0  0  0
 24 25  1  0  0  0  0
 26 25  2  0  0  0  0
 27 26  1  0  0  0  0
 27 30  1  0  0  0  0
 28 26  1  0  0  0  0
 29 27  1  0  0  0  0
 31 29  2  0  0  0  0
 31 28  1  0  0  0  0
M  END
>  <Pose>
1

>  <Score>
-6.624

$$$$
