MODEL 1
REMARK VINA RESULT:    -7.162      0.000      0.000
REMARK INTER + INTRA:          -9.498
REMARK INTER:                  -8.837
REMARK INTRA:                  -0.661
REMARK UNBOUND:                -0.661
REMARK  4 active torsions:
REMARK  status: ('A' for Active; 'I' for Inactive)
REMARK    1  A    between atoms: C_13  and  C_14 
REMARK    2  A    between atoms: C_14  and  N_15 
REMARK    3  A    between atoms: N_18  and  C_21 
REMARK    4  A    between atoms: C_24  and  O_27 
ROOT
ATOM      1  N   UNK d   1       0.249 -15.251 -36.343  0.00  0.00    -0.064 N 
ATOM      2  C   UNK d   1       0.556 -16.530 -35.919  0.00  0.00     0.255 C 
ATOM      3  C   UNK d   1       0.182 -17.579 -37.023  0.00  0.00     0.150 C 
ATOM      4  N   UNK d   1       1.295 -17.231 -38.030  0.00  0.00    -0.378 N 
ATOM      5  C   UNK d   1       1.102 -15.987 -38.597  0.00  0.00     0.150 C 
ATOM      6  C   UNK d   1      -0.044 -15.319 -37.804  0.00  0.00     0.255 C 
ATOM      7  H   UNK d   1      -0.719 -15.010 -35.952  0.00  0.00     0.280 HD
ENDROOT
BRANCH   1   8
ATOM      8  C   UNK d   1       1.034 -14.114 -36.136  0.00  0.00     0.274 C 
BRANCH   8   9
ATOM      9  C   UNK d   1       0.464 -12.758 -36.080  0.00  0.00    -0.014 A 
ATOM     10  C   UNK d   1       1.055 -11.869 -37.032  0.00  0.00     0.008 A 
ATOM     11  C   UNK d   1       2.105 -12.286 -37.774  0.00  0.00     0.041 A 
ATOM     12  C   UNK d   1       0.564 -10.599 -37.155  0.00  0.00     0.093 A 
ATOM     13  C   UNK d   1       2.710 -11.452 -38.675  0.00  0.00     0.071 A 
ATOM     14 Cl   UNK d   1       4.124 -11.904 -39.634  0.00  0.00    -0.081 Cl
ATOM     15  C   UNK d   1       2.243 -10.144 -38.849  0.00  0.00     0.131 A 
ATOM     16  C   UNK d   1       1.185  -9.734 -38.088  0.00  0.00     0.080 A 
ATOM     17  O   UNK d   1       2.826  -9.264 -39.788  0.00  0.00    -0.190 OA
ATOM     18  O   UNK d   1      -0.429 -10.153 -36.439  0.00  0.00    -0.275 OA
ATOM     19  C   UNK d   1      -1.009 -10.941 -35.541  0.00  0.00     0.288 A 
ATOM     20  O   UNK d   1      -1.950 -10.497 -34.872  0.00  0.00    -0.260 OA
ATOM     21  C   UNK d   1      -0.561 -12.264 -35.351  0.00  0.00     0.092 A 
ENDBRANCH   8   9
ENDBRANCH   1   8
BRANCH   4  22
ATOM     22  C   UNK d   1       2.295 -18.226 -38.094  0.00  0.00     0.030 A 
ATOM     23  C   UNK d   1       3.223 -18.497 -37.150  0.00  0.00     0.032 A 
ATOM     24  C   UNK d   1       4.022 -19.675 -37.200  0.00  0.00     0.039 A 
ATOM     25  C   UNK d   1       3.887 -20.591 -38.209  0.00  0.00     0.068 A 
ATOM     26  C   UNK d   1       2.939 -20.317 -39.190  0.00  0.00     0.039 A 
ATOM     27  C   UNK d   1       2.169 -19.165 -39.135  0.00  0.00     0.032 A 
BRANCH  25  28
ATOM     28  O   UNK d   1       4.691 -21.724 -38.215  0.00  0.00    -0.356 OA
ATOM     29  C   UNK d   1       5.991 -21.703 -38.823  0.00  0.00     0.210 C 
ENDBRANCH  25  28
ENDBRANCH   4  22
TORSDOF 4
ENDMDL
