MODEL 1
REMARK VINA RESULT:    -6.349      0.000      0.000
REMARK INTER + INTRA:          -8.871
REMARK INTER:                  -8.019
REMARK INTRA:                  -0.853
REMARK UNBOUND:                -0.853
REMARK  5 active torsions:
REMARK  status: ('A' for Active; 'I' for Inactive)
REMARK    1  A    between atoms: S_1  and  N_4 
REMARK    2  A    between atoms: C_6  and  C_10 
REMARK    3  A    between atoms: N_13  and  C_20 
REMARK    4  A    between atoms: C_17  and  O_19 
REMARK    5  A    between atoms: C_20  and  C_21 
ROOT
ATOM      1  C   UNK d   1       3.551 -21.397 -41.091  0.00  0.00     0.137 A 
ATOM      2  N   UNK d   1       2.745 -20.610 -40.383  0.00  0.00    -0.211 NA
ATOM      3  C   UNK d   1       3.046 -20.228 -39.130  0.00  0.00     0.184 A 
ATOM      4  N   UNK d   1       2.418 -19.449 -38.207  0.00  0.00    -0.227 N 
ATOM      5  N   UNK d   1       3.195 -19.431 -37.145  0.00  0.00    -0.063 NA
ATOM      6  N   UNK d   1       4.285 -20.152 -37.332  0.00  0.00    -0.124 NA
ATOM      7  C   UNK d   1       4.233 -20.671 -38.564  0.00  0.00     0.180 A 
ATOM      8  C   UNK d   1       5.082 -21.490 -39.289  0.00  0.00     0.199 A 
ATOM      9  N   UNK d   1       4.690 -21.813 -40.528  0.00  0.00    -0.207 NA
ENDROOT
BRANCH   1  10
ATOM     10  C   UNK d   1       3.254 -21.834 -42.483  0.00  0.00     0.076 C 
ATOM     11  C   UNK d   1       4.349 -22.526 -43.166  0.00  0.00     0.147 C 
ATOM     12  N   UNK d   1       4.294 -23.896 -43.409  0.00  0.00    -0.310 N 
ATOM     13  C   UNK d   1       3.332 -24.700 -42.812  0.00  0.00     0.135 C 
ATOM     14  C   UNK d   1       2.344 -24.015 -41.913  0.00  0.00     0.021 C 
ATOM     15  C   UNK d   1       2.005 -22.676 -42.464  0.00  0.00     0.015 C 
BRANCH  12  16
ATOM     16  S   UNK d   1       5.781 -24.606 -43.805  0.00  0.00     0.224 S 
ATOM     17  O   UNK d   1       5.977 -24.786 -45.269  0.00  0.00    -0.206 OA
ATOM     18  O   UNK d   1       5.871 -25.937 -43.088  0.00  0.00    -0.206 OA
ATOM     19  C   UNK d   1       7.150 -23.630 -43.163  0.00  0.00     0.186 C 
ENDBRANCH  12  16
ENDBRANCH   1  10
BRANCH   8  20
ATOM     20  O   UNK d   1       6.274 -21.943 -38.741  0.00  0.00    -0.343 OA
ATOM     21  H   UNK d   1       6.943 -22.430 -39.317  0.00  0.00     0.219 HD
ENDBRANCH   8  20
BRANCH   4  22
ATOM     22  C   UNK d   1       1.162 -18.786 -38.370  0.00  0.00     0.195 C 
BRANCH  22  23
ATOM     23  C   UNK d   1       1.140 -17.410 -37.819  0.00  0.00    -0.017 A 
ATOM     24  C   UNK d   1       1.610 -16.384 -38.600  0.00  0.00     0.042 A 
ATOM     25  C   UNK d   1       1.626 -15.063 -38.160  0.00  0.00     0.024 A 
ATOM     26 Cl   UNK d   1       2.220 -16.711 -40.209  0.00  0.00    -0.084 Cl
ATOM     27  C   UNK d   1       1.158 -14.751 -36.902  0.00  0.00     0.002 A 
ATOM     28  C   UNK d   1       0.683 -15.775 -36.112  0.00  0.00     0.001 A 
ATOM     29  C   UNK d   1       0.673 -17.093 -36.563  0.00  0.00     0.010 A 
ENDBRANCH  22  23
ENDBRANCH   4  22
TORSDOF 5
ENDMDL
