/Users/jonathanwahrer/Desktop/Msc/3_Semester/Drug_Design_Praktikum/waehrer_HTS_screening/HTS_experiment/out/docking_results/vina_output/6y4q/2197_docked.pdbqt
 OpenBabel03232218593D

 28 31  0  0  1  0  0  0  0  0999 V2000
    4.2560  -21.6130  -38.9470 N   0  0  0  0  0  0  0  0  0  0  0  0
    3.5160  -20.7800  -37.9770 C   0  0  0  0  0  2  0  0  0  0  0  0
    3.9430  -19.3750  -38.1880 C   0  0  2  0  0  3  0  0  0  0  0  0
    5.2570  -19.1020  -38.2830 O   0  0  0  0  0  0  0  0  0  0  0  0
    6.1370  -20.0850  -38.5250 C   0  0  0  0  0  2  0  0  0  0  0  0
    5.6150  -21.4790  -38.5680 C   0  0  0  0  0  2  0  0  0  0  0  0
    3.3580  -18.5690  -37.0760 C   0  0  0  0  0  0  0  0  0  0  0  0
    3.9280  -18.6390  -35.9550 O   0  0  0  0  0  0  0  0  0  0  0  0
    2.2240  -17.7440  -37.1910 N   0  0  0  0  0  0  0  0  0  0  0  0
    1.4660  -17.5640  -38.4150 C   0  0  0  0  0  2  0  0  0  0  0  0
    1.7090  -16.9780  -36.0460 C   0  0  0  0  0  2  0  0  0  0  0  0
    0.2660  -16.7010  -38.0770 C   0  0  0  0  0  2  0  0  0  0  0  0
    0.6420  -15.3900  -37.5820 N   0  0  0  0  0  0  0  0  0  0  0  0
    1.6220  -15.5330  -36.5540 C   0  0  0  0  0  2  0  0  0  0  0  0
    1.0360  -14.5870  -38.6940 C   0  0  0  0  0  2  0  0  0  0  0  0
    2.2450  -13.7320  -38.4300 C   0  0  0  0  0  3  0  0  0  0  0  0
    1.9880  -12.2430  -38.6600 C   0  0  0  0  0  2  0  0  0  0  0  0
    2.9570  -13.0210  -39.4940 C   0  0  0  0  0  2  0  0  0  0  0  0
    3.8020  -21.2700  -40.5310 S   0  0  0  0  0  0  0  0  0  0  0  0
    2.3220  -20.8640  -40.5050 O   0  0  0  0  0  0  0  0  0  0  0  0
    4.5000  -20.0640  -41.1120 O   0  0  0  0  0  0  0  0  0  0  0  0
    3.8900  -22.6350  -41.5980 C   0  0  0  0  0  0  0  0  0  0  0  0
    5.0380  -22.9390  -42.2970 C   0  0  0  0  0  0  0  0  0  0  0  0
    5.0990  -23.9890  -43.1930 C   0  0  0  0  0  3  0  0  0  0  0  0
    6.5370  -22.0340  -42.0110 Cl  0  0  0  0  0  0  0  0  0  0  0  0
    3.9880  -24.7670  -43.4010 C   0  0  0  0  0  3  0  0  0  0  0  0
    2.8240  -24.4770  -42.7050 C   0  0  0  0  0  3  0  0  0  0  0  0
    2.7680  -23.4360  -41.8220 C   0  0  0  0  0  3  0  0  0  0  0  0
  1  6  1  0  0  0  0
  1  2  1  0  0  0  0
  3  2  1  0  0  0  0
  3  7  1  1  0  0  0
  4  3  1  0  0  0  0
  5  4  1  0  0  0  0
  6  5  1  0  0  0  0
  7  8  2  0  0  0  0
  9  7  1  0  0  0  0
  9 11  1  0  0  0  0
 10 12  1  0  0  0  0
 10  9  1  0  0  0  0
 12 13  1  0  0  0  0
 13 14  1  0  0  0  0
 14 11  1  0  0  0  0
 15 16  1  0  0  0  0
 15 13  1  0  0  0  0
 17 16  1  0  0  0  0
 18 17  1  0  0  0  0
 18 16  1  0  0  0  0
 19 20  2  0  0  0  0
 19  1  1  0  0  0  0
 21 19  2  0  0  0  0
 22 19  1  0  0  0  0
 23 25  1  0  0  0  0
 23 22  2  0  0  0  0
 24 23  1  0  0  0  0
 26 24  2  0  0  0  0
 26 27  1  0  0  0  0
 27 28  2  0  0  0  0
 28 22  1  0  0  0  0
M  END
>  <Pose>
1

>  <Score>
-6.603

$$$$
