MODEL 1
REMARK VINA RESULT:    -6.603      0.000      0.000
REMARK INTER + INTRA:          -8.636
REMARK INTER:                  -8.532
REMARK INTRA:                  -0.103
REMARK UNBOUND:                -0.103
REMARK  5 active torsions:
REMARK  status: ('A' for Active; 'I' for Inactive)
REMARK    1  A    between atoms: S_1  and  N_4 
REMARK    2  A    between atoms: S_1  and  C_22 
REMARK    3  A    between atoms: C_6  and  C_10 
REMARK       I    between atoms: C_10  and  N_12 
REMARK    4  A    between atoms: N_15  and  C_18 
REMARK    5  A    between atoms: C_18  and  C_19 
ROOT
ATOM      1  N   UNK d   1       4.256 -21.613 -38.947  0.00  0.00    -0.202 NA
ATOM      2  C   UNK d   1       3.516 -20.780 -37.977  0.00  0.00     0.149 C 
ATOM      3  C   UNK d   1       3.943 -19.375 -38.188  0.00  0.00     0.227 C 
ATOM      4  O   UNK d   1       5.257 -19.102 -38.283  0.00  0.00    -0.374 OA
ATOM      5  C   UNK d   1       6.137 -20.085 -38.525  0.00  0.00     0.184 C 
ATOM      6  C   UNK d   1       5.615 -21.479 -38.568  0.00  0.00     0.134 C 
ENDROOT
BRANCH   3   7
ATOM      7  C   UNK d   1       3.358 -18.569 -37.076  0.00  0.00     0.250 C 
ATOM      8  O   UNK d   1       3.928 -18.639 -35.955  0.00  0.00    -0.270 OA
ATOM      9  N   UNK d   1       2.224 -17.744 -37.191  0.00  0.00    -0.347 N 
ATOM     10  C   UNK d   1       1.466 -17.564 -38.415  0.00  0.00     0.156 C 
ATOM     11  C   UNK d   1       1.709 -16.978 -36.046  0.00  0.00     0.156 C 
ATOM     12  C   UNK d   1       0.266 -16.701 -38.077  0.00  0.00     0.292 C 
ATOM     13  N   UNK d   1       0.642 -15.390 -37.582  0.00  0.00     0.091 N 
ATOM     14  C   UNK d   1       1.622 -15.533 -36.554  0.00  0.00     0.292 C 
BRANCH  13  15
ATOM     15  C   UNK d   1       1.036 -14.587 -38.694  0.00  0.00     0.277 C 
BRANCH  15  16
ATOM     16  C   UNK d   1       2.245 -13.732 -38.430  0.00  0.00     0.014 A 
ATOM     17  C   UNK d   1       1.988 -12.243 -38.660  0.00  0.00     0.007 A 
ATOM     18  C   UNK d   1       2.957 -13.021 -39.494  0.00  0.00     0.007 A 
ENDBRANCH  15  16
ENDBRANCH  13  15
ENDBRANCH   3   7
BRANCH   1  19
ATOM     19  S   UNK d   1       3.802 -21.270 -40.531  0.00  0.00     0.245 S 
ATOM     20  O   UNK d   1       2.322 -20.864 -40.505  0.00  0.00    -0.206 OA
ATOM     21  O   UNK d   1       4.500 -20.064 -41.112  0.00  0.00    -0.206 OA
BRANCH  19  22
ATOM     22  C   UNK d   1       3.890 -22.635 -41.598  0.00  0.00     0.096 A 
ATOM     23  C   UNK d   1       5.038 -22.939 -42.297  0.00  0.00     0.056 A 
ATOM     24  C   UNK d   1       5.099 -23.989 -43.193  0.00  0.00     0.025 A 
ATOM     25 Cl   UNK d   1       6.537 -22.034 -42.011  0.00  0.00    -0.083 Cl
ATOM     26  C   UNK d   1       3.988 -24.767 -43.401  0.00  0.00     0.002 A 
ATOM     27  C   UNK d   1       2.824 -24.477 -42.705  0.00  0.00     0.002 A 
ATOM     28  C   UNK d   1       2.768 -23.436 -41.822  0.00  0.00     0.026 A 
ENDBRANCH  19  22
ENDBRANCH   1  19
TORSDOF 5
ENDMDL
