/Users/jonathanwahrer/Desktop/Msc/3_Semester/Drug_Design_Praktikum/waehrer_HTS_screening/HTS_experiment/out/docking_results/vina_output/6y4q/2210_docked.pdbqt
 OpenBabel03232219003D

 33 36  0  0  1  0  0  0  0  0999 V2000
    1.9580  -16.9580  -35.8540 C   0  0  0  0  0  2  0  0  0  0  0  0
    2.5530  -17.6750  -36.8160 C   0  0  1  0  0  3  0  0  0  0  0  0
    2.3660  -17.4590  -38.1770 O   0  0  0  0  0  0  0  0  0  0  0  0
    3.1610  -18.3670  -38.8900 C   0  0  0  0  0  0  0  0  0  0  0  0
    3.8740  -19.1880  -38.0700 C   0  0  0  0  0  0  0  0  0  0  0  0
    4.7370  -20.1380  -38.5640 C   0  0  0  0  0  3  0  0  0  0  0  0
    4.8990  -20.2780  -39.9380 C   0  0  0  0  0  3  0  0  0  0  0  0
    4.1640  -19.4340  -40.7720 C   0  0  0  0  0  0  0  0  0  0  0  0
    3.3110  -18.4990  -40.2800 C   0  0  0  0  0  0  0  0  0  0  0  0
    4.3820  -19.6380  -42.1350 O   0  0  0  0  0  1  0  0  0  0  0  0
    3.4950  -18.7670  -36.6890 C   0  0  0  0  0  0  0  0  0  0  0  0
    3.9040  -19.2600  -35.6300 O   0  0  0  0  0  0  0  0  0  0  0  0
    2.3650  -17.7090  -41.0970 C   0  0  0  0  0  2  0  0  0  0  0  0
    1.0340  -18.0330  -40.8860 N   0  0  0  0  0  4  0  0  0  0  0  0
    0.5720  -19.1370  -41.7860 C   0  0  0  0  0  2  0  0  0  0  0  0
   -0.1420  -20.1250  -40.8300 C   0  0  0  0  0  2  0  0  0  0  0  0
   -0.4100  -19.4710  -39.5890 N   0  0  0  0  0  0  0  0  0  0  0  0
   -0.9950  -18.1910  -39.6870 C   0  0  0  0  0  2  0  0  0  0  0  0
   -0.0670  -17.2510  -40.5730 C   0  0  0  0  0  2  0  0  0  0  0  0
    1.1850  -18.6800  -39.9510 H   0  0  0  0  0  0  0  0  0  0  0  0
   -0.0770  -20.1000  -38.4100 C   0  0  0  0  0  2  0  0  0  0  0  0
   -1.1340  -20.7360  -37.5640 C   0  0  0  0  0  2  0  0  0  0  0  0
   -1.6220  -21.9080  -38.1630 O   0  0  0  0  0  0  0  0  0  0  0  0
   -1.4910  -22.6790  -37.5200 H   0  0  0  0  0  0  0  0  0  0  0  0
    1.0740  -15.8820  -36.3360 C   0  0  0  0  0  0  0  0  0  0  0  0
    1.5990  -14.6740  -36.6270 C   0  0  0  0  0  3  0  0  0  0  0  0
    0.7300  -13.6320  -36.9950 C   0  0  0  0  0  0  0  0  0  0  0  0
    1.4420  -11.9150  -37.4130 Br  0  0  0  0  0  0  0  0  0  0  0  0
   -0.6290  -13.8120  -37.0610 C   0  0  0  0  0  3  0  0  0  0  0  0
   -1.1310  -15.0600  -36.7510 C   0  0  0  0  0  3  0  0  0  0  0  0
   -0.2830  -16.1160  -36.3860 C   0  0  0  0  0  0  0  0  0  0  0  0
   -0.7850  -17.3700  -36.0730 O   0  0  0  0  0  0  0  0  0  0  0  0
   -2.1210  -17.7310  -36.0140 C   0  0  0  0  0  1  0  0  0  0  0  0
  2 11  1  0  0  0  0
  2  1  1  6  0  0  0
  3  2  1  0  0  0  0
  4  3  1  0  0  0  0
  4  5  1  0  0  0  0
  5 11  1  0  0  0  0
  6  5  2  0  0  0  0
  7  6  1  0  0  0  0
  8  9  1  0  0  0  0
  8  7  2  0  0  0  0
  9  4  2  0  0  0  0
 10  8  1  0  0  0  0
 11 12  2  0  0  0  0
 13 14  1  0  0  0  0
 13  9  1  0  0  0  0
 14 19  1  0  0  0  0
 14 20  1  0  0  0  0
 15 14  1  0  0  0  0
 15 16  1  0  0  0  0
 16 17  1  0  0  0  0
 17 21  1  0  0  0  0
 18 17  1  0  0  0  0
 19 18  1  0  0  0  0
 21 22  1  0  0  0  0
 23 22  1  0  0  0  0
 23 24  1  0  0  0  0
 25  1  1  0  0  0  0
 26 25  2  0  0  0  0
 27 26  1  0  0  0  0
 28 27  1  0  0  0  0
 29 27  2  0  0  0  0
 29 30  1  0  0  0  0
 30 31  2  0  0  0  0
 31 25  1  0  0  0  0
 31 32  1  0  0  0  0
 32 33  1  0  0  0  0
M  END
>  <Pose>
1

>  <Score>
-5.929

$$$$
