MODEL 1
REMARK VINA RESULT:    -5.929      0.000      0.000
REMARK INTER + INTRA:         -10.154
REMARK INTER:                  -8.182
REMARK INTRA:                  -1.972
REMARK UNBOUND:                -1.972
REMARK  7 active torsions:
REMARK  status: ('A' for Active; 'I' for Inactive)
REMARK    1  A    between atoms: C_4  and  C_10 
REMARK    2  A    between atoms: C_5  and  O_8 
REMARK    3  A    between atoms: C_18  and  C_19 
REMARK    4  A    between atoms: C_19  and  N_20 
REMARK    5  A    between atoms: N_23  and  C_26 
REMARK    6  A    between atoms: C_26  and  C_27 
REMARK    7  A    between atoms: C_27  and  O_28 
ROOT
ATOM      1  C   UNK d   1       1.958 -16.958 -35.854  0.00  0.00     0.055 C 
ATOM      2  C   UNK d   1       2.553 -17.675 -36.816  0.00  0.00     0.128 A 
ATOM      3  O   UNK d   1       2.366 -17.459 -38.177  0.00  0.00    -0.305 OA
ATOM      4  C   UNK d   1       3.161 -18.367 -38.890  0.00  0.00     0.101 A 
ATOM      5  C   UNK d   1       3.874 -19.188 -38.070  0.00  0.00     0.051 A 
ATOM      6  C   UNK d   1       4.737 -20.138 -38.564  0.00  0.00     0.021 A 
ATOM      7  C   UNK d   1       4.899 -20.278 -39.938  0.00  0.00     0.041 A 
ATOM      8  C   UNK d   1       4.164 -19.434 -40.772  0.00  0.00     0.118 A 
ATOM      9  C   UNK d   1       3.311 -18.499 -40.280  0.00  0.00     0.039 A 
ATOM     10  O   UNK d   1       4.382 -19.638 -42.135  0.00  0.00    -0.191 OA
ATOM     11  C   UNK d   1       3.495 -18.767 -36.689  0.00  0.00     0.218 A 
ATOM     12  O   UNK d   1       3.904 -19.260 -35.630  0.00  0.00    -0.284 OA
ENDROOT
BRANCH   9  13
ATOM     13  C   UNK d   1       2.365 -17.709 -41.097  0.00  0.00     0.279 C 
BRANCH  13  14
ATOM     14  N   UNK d   1       1.034 -18.033 -40.886  0.00  0.00    -0.064 N 
ATOM     15  C   UNK d   1       0.572 -19.137 -41.786  0.00  0.00     0.254 C 
ATOM     16  C   UNK d   1      -0.142 -20.125 -40.830  0.00  0.00     0.144 C 
ATOM     17  N   UNK d   1      -0.410 -19.471 -39.589  0.00  0.00    -0.407 N 
ATOM     18  C   UNK d   1      -0.995 -18.191 -39.687  0.00  0.00     0.144 C 
ATOM     19  C   UNK d   1      -0.067 -17.251 -40.573  0.00  0.00     0.254 C 
ATOM     20  H   UNK d   1       1.185 -18.680 -39.951  0.00  0.00     0.280 HD
BRANCH  17  21
ATOM     21  C   UNK d   1      -0.077 -20.100 -38.410  0.00  0.00     0.143 C 
BRANCH  21  22
ATOM     22  C   UNK d   1      -1.134 -20.736 -37.564  0.00  0.00     0.183 C 
BRANCH  22  23
ATOM     23  O   UNK d   1      -1.622 -21.908 -38.163  0.00  0.00    -0.399 OA
ATOM     24  H   UNK d   1      -1.491 -22.679 -37.520  0.00  0.00     0.209 HD
ENDBRANCH  22  23
ENDBRANCH  21  22
ENDBRANCH  17  21
ENDBRANCH  13  14
ENDBRANCH   9  13
BRANCH   1  25
ATOM     25  C   UNK d   1       1.074 -15.882 -36.336  0.00  0.00     0.001 A 
ATOM     26  C   UNK d   1       1.599 -14.674 -36.627  0.00  0.00     0.033 A 
ATOM     27  C   UNK d   1       0.730 -13.632 -36.995  0.00  0.00     0.011 A 
ATOM     28 Br   UNK d   1       1.442 -11.915 -37.413  0.00  0.00    -0.051 Br
ATOM     29  C   UNK d   1      -0.629 -13.812 -37.061  0.00  0.00     0.022 A 
ATOM     30  C   UNK d   1      -1.131 -15.060 -36.751  0.00  0.00     0.039 A 
ATOM     31  C   UNK d   1      -0.283 -16.116 -36.386  0.00  0.00     0.078 A 
BRANCH  31  32
ATOM     32  O   UNK d   1      -0.785 -17.370 -36.073  0.00  0.00    -0.355 OA
ATOM     33  C   UNK d   1      -2.121 -17.731 -36.014  0.00  0.00     0.210 C 
ENDBRANCH  31  32
ENDBRANCH   1  25
TORSDOF 7
ENDMDL
