/Users/jonathanwahrer/Desktop/Msc/3_Semester/Drug_Design_Praktikum/waehrer_HTS_screening/HTS_experiment/out/docking_results/vina_output/6y4q/2213_docked.pdbqt
 OpenBabel03232219003D

 31 34  0  0  1  0  0  0  0  0999 V2000
    3.8720  -22.2230  -40.8090 Cl  0  0  0  0  0  0  0  0  0  0  0  0
    3.8860  -20.9270  -39.6340 C   0  0  0  0  0  0  0  0  0  0  0  0
    2.6660  -20.3150  -39.3100 C   0  0  1  0  0  3  0  0  0  0  0  0
    2.6450  -19.2960  -38.3940 C   0  0  0  0  0  0  0  0  0  0  0  0
    3.8670  -18.9220  -37.8250 C   0  0  0  0  0  3  0  0  0  0  0  0
    5.0590  -19.5310  -38.1510 C   0  0  0  0  0  0  0  0  0  0  0  0
    5.0850  -20.5590  -39.0750 C   0  0  0  0  0  3  0  0  0  0  0  0
    6.5830  -19.0430  -37.4210 Cl  0  0  0  0  0  0  0  0  0  0  0  0
    1.4130  -18.5980  -37.9940 C   0  0  0  0  0  0  0  0  0  0  0  0
    0.2430  -19.1410  -38.7040 C   0  0  0  0  0  0  0  0  0  0  0  0
    0.2860  -20.1530  -39.6110 C   0  0  0  0  0  0  0  0  0  0  0  0
   -0.8310  -20.6190  -40.2420 N   0  0  0  0  0  0  0  0  0  0  0  0
   -1.9930  -20.0440  -39.9410 C   0  0  0  0  0  0  0  0  0  0  0  0
   -3.0610  -20.4440  -40.5040 O   0  0  0  0  0  0  0  0  0  0  0  0
   -2.0820  -19.0370  -39.0480 N   0  0  0  0  0  0  0  0  0  0  0  0
   -0.9940  -18.5730  -38.4230 C   0  0  0  0  0  0  0  0  0  0  0  0
   -1.0760  -17.6350  -37.5900 O   0  0  0  0  0  0  0  0  0  0  0  0
   -3.3830  -18.4510  -38.7600 C   0  0  0  0  0  1  0  0  0  0  0  0
   -0.7500  -21.6980  -41.2030 C   0  0  0  0  0  1  0  0  0  0  0  0
    1.4900  -20.7300  -39.9070 O   0  0  0  0  0  0  0  0  0  0  0  0
    1.5370  -17.1150  -38.1910 C   0  0  0  0  0  3  0  0  0  0  0  0
    1.7060  -16.5580  -39.4350 C   0  0  0  0  0  0  0  0  0  0  0  0
    1.8300  -15.2380  -39.6410 N   0  0  0  0  0  0  0  0  0  0  0  0
    1.7490  -17.3950  -40.5310 O   0  0  0  0  0  0  0  0  0  0  0  0
    1.7880  -14.4220  -38.5700 C   0  0  0  0  0  0  0  0  0  0  0  0
    2.0020  -14.6790  -40.9690 C   0  0  0  0  0  1  0  0  0  0  0  0
    1.9070  -13.1780  -38.7760 O   0  0  0  0  0  0  0  0  0  0  0  0
    1.6250  -14.9240  -37.3340 N   0  0  0  0  0  0  0  0  0  0  0  0
    1.4980  -16.2390  -37.1070 C   0  0  0  0  0  0  0  0  0  0  0  0
    1.5880  -14.0080  -36.2170 C   0  0  0  0  0  1  0  0  0  0  0  0
    1.3450  -16.7370  -35.9660 O   0  0  0  0  0  0  0  0  0  0  0  0
  1  2  1  0  0  0  0
  2  3  1  0  0  0  0
  2  7  2  0  0  0  0
  3 20  1  6  0  0  0
  3  4  1  0  0  0  0
  4  9  2  0  0  0  0
  4  5  1  0  0  0  0
  6  5  2  0  0  0  0
  6  8  1  0  0  0  0
  7  6  1  0  0  0  0
 10 16  1  0  0  0  0
 10  9  1  0  0  0  0
 11 10  2  0  0  0  0
 12 13  1  0  0  0  0
 12 11  1  0  0  0  0
 13 15  1  0  0  0  0
 14 13  2  0  0  0  0
 15 18  1  0  0  0  0
 15 16  1  0  0  0  0
 16 17  2  0  0  0  0
 19 12  1  0  0  0  0
 20 11  1  0  0  0  0
 21  9  1  0  0  0  0
 21 29  1  0  0  0  0
 22 21  1  0  0  0  0
 23 22  1  0  0  0  0
 23 25  1  0  0  0  0
 24 22  2  0  0  0  0
 25 28  1  0  0  0  0
 26 23  1  0  0  0  0
 27 25  2  0  0  0  0
 28 29  1  0  0  0  0
 28 30  1  0  0  0  0
 29 31  2  0  0  0  0
M  END
>  <Pose>
1

>  <Score>
-6.929

$$$$
