MODEL 1
REMARK VINA RESULT:    -6.929      0.000      0.000
REMARK INTER + INTRA:          -7.101
REMARK INTER:                  -7.334
REMARK INTRA:                   0.232
REMARK UNBOUND:                 0.232
REMARK  1 active torsions:
REMARK  status: ('A' for Active; 'I' for Inactive)
REMARK    1  A    between atoms: C_9  and  C_21 
ROOT
ATOM      1 Cl   UNK d   1       3.872 -22.223 -40.809  0.00  0.00    -0.081 Cl
ATOM      2  C   UNK d   1       3.886 -20.927 -39.634  0.00  0.00     0.070 A 
ATOM      3  C   UNK d   1       2.666 -20.315 -39.310  0.00  0.00     0.107 A 
ATOM      4  C   UNK d   1       2.645 -19.296 -38.394  0.00  0.00    -0.007 A 
ATOM      5  C   UNK d   1       3.867 -18.922 -37.825  0.00  0.00     0.035 A 
ATOM      6  C   UNK d   1       5.059 -19.531 -38.151  0.00  0.00     0.036 A 
ATOM      7  C   UNK d   1       5.085 -20.559 -39.075  0.00  0.00     0.050 A 
ATOM      8 Cl   UNK d   1       6.583 -19.043 -37.421  0.00  0.00    -0.084 Cl
ATOM      9  C   UNK d   1       1.413 -18.598 -37.994  0.00  0.00     0.107 A 
ATOM     10  C   UNK d   1       0.243 -19.141 -38.704  0.00  0.00     0.075 A 
ATOM     11  C   UNK d   1       0.286 -20.153 -39.611  0.00  0.00     0.167 A 
ATOM     12  N   UNK d   1      -0.831 -20.619 -40.242  0.00  0.00    -0.283 N 
ATOM     13  C   UNK d   1      -1.993 -20.044 -39.941  0.00  0.00     0.332 A 
ATOM     14  O   UNK d   1      -3.061 -20.444 -40.504  0.00  0.00    -0.246 OA
ATOM     15  N   UNK d   1      -2.082 -19.037 -39.048  0.00  0.00    -0.270 N 
ATOM     16  C   UNK d   1      -0.994 -18.573 -38.423  0.00  0.00     0.262 A 
ATOM     17  O   UNK d   1      -1.076 -17.635 -37.590  0.00  0.00    -0.267 OA
ATOM     18  C   UNK d   1      -3.383 -18.451 -38.760  0.00  0.00     0.164 C 
ATOM     19  C   UNK d   1      -0.750 -21.698 -41.203  0.00  0.00     0.163 C 
ATOM     20  O   UNK d   1       1.490 -20.730 -39.907  0.00  0.00    -0.290 OA
ENDROOT
BRANCH   9  21
ATOM     21  C   UNK d   1       1.537 -17.115 -38.191  0.00  0.00     0.078 A 
ATOM     22  C   UNK d   1       1.706 -16.558 -39.435  0.00  0.00     0.197 A 
ATOM     23  N   UNK d   1       1.830 -15.238 -39.641  0.00  0.00    -0.281 N 
ATOM     24  O   UNK d   1       1.749 -17.395 -40.531  0.00  0.00    -0.171 OA
ATOM     25  C   UNK d   1       1.788 -14.422 -38.570  0.00  0.00     0.332 A 
ATOM     26  C   UNK d   1       2.002 -14.679 -40.969  0.00  0.00     0.163 C 
ATOM     27  O   UNK d   1       1.907 -13.178 -38.776  0.00  0.00    -0.246 OA
ATOM     28  N   UNK d   1       1.625 -14.924 -37.334  0.00  0.00    -0.270 N 
ATOM     29  C   UNK d   1       1.498 -16.239 -37.107  0.00  0.00     0.262 A 
ATOM     30  C   UNK d   1       1.588 -14.008 -36.217  0.00  0.00     0.164 C 
ATOM     31  O   UNK d   1       1.345 -16.737 -35.966  0.00  0.00    -0.267 OA
ENDBRANCH   9  21
TORSDOF 1
ENDMDL
