MODEL 1
REMARK VINA RESULT:    -6.594      0.000      0.000
REMARK INTER + INTRA:          -8.832
REMARK INTER:                  -8.135
REMARK INTRA:                  -0.697
REMARK UNBOUND:                -0.697
REMARK  4 active torsions:
REMARK  status: ('A' for Active; 'I' for Inactive)
REMARK    1  A    between atoms: C_13  and  C_27 
REMARK    2  A    between atoms: N_18  and  C_21 
REMARK    3  A    between atoms: C_21  and  C_22 
REMARK    4  A    between atoms: C_27  and  C_28 
REMARK       I    between atoms: C_28  and  N_30 
ROOT
ATOM      1 Cl   UNK d   1      -3.131 -12.425 -37.550  0.00  0.00    -0.084 Cl
ATOM      2  C   UNK d   1      -1.692 -13.307 -37.085  0.00  0.00     0.034 A 
ATOM      3  C   UNK d   1      -1.518 -14.631 -37.383  0.00  0.00     0.036 A 
ATOM      4  C   UNK d   1      -0.354 -15.297 -36.992  0.00  0.00     0.019 A 
ATOM      5  C   UNK d   1       0.591 -14.588 -36.312  0.00  0.00     0.044 A 
ATOM      6  C   UNK d   1       0.416 -13.229 -36.005  0.00  0.00     0.032 A 
ATOM      7  C   UNK d   1      -0.723 -12.578 -36.387  0.00  0.00     0.026 A 
ATOM      8  N   UNK d   1       1.683 -15.453 -36.013  0.00  0.00    -0.324 N 
ATOM      9  C   UNK d   1       1.417 -16.738 -36.519  0.00  0.00     0.267 A 
ATOM     10  O   UNK d   1       2.208 -17.727 -36.403  0.00  0.00    -0.270 OA
ATOM     11  C   UNK d   1       0.103 -16.686 -37.168  0.00  0.00     0.279 A 
ATOM     12  N   UNK d   1      -0.872 -17.531 -36.515  0.00  0.00     0.114 N 
ATOM     13  C   UNK d   1      -1.287 -18.574 -37.398  0.00  0.00     0.245 C 
ATOM     14  C   UNK d   1      -0.372 -18.500 -38.556  0.00  0.00     0.128 C 
ATOM     15  C   UNK d   1       0.155 -17.093 -38.622  0.00  0.00     0.147 C 
ATOM     16  C   UNK d   1       1.537 -17.289 -39.112  0.00  0.00     0.235 C 
ATOM     17  O   UNK d   1       2.302 -16.449 -39.648  0.00  0.00    -0.272 OA
ATOM     18  N   UNK d   1       1.944 -18.656 -38.889  0.00  0.00    -0.285 N 
ATOM     19  C   UNK d   1       0.859 -19.304 -38.236  0.00  0.00     0.233 C 
ATOM     20  O   UNK d   1       0.954 -20.343 -37.541  0.00  0.00    -0.272 OA
ATOM     21  H   UNK d   1       2.572 -15.190 -35.490  0.00  0.00     0.169 HD
ATOM     22  H   UNK d   1      -1.726 -17.011 -36.213  0.00  0.00     0.318 HD
ENDROOT
BRANCH  13  23
ATOM     23  C   UNK d   1      -2.748 -18.496 -37.750  0.00  0.00     0.139 C 
BRANCH  23  24
ATOM     24  C   UNK d   1      -3.592 -17.899 -36.731  0.00  0.00     0.217 C 
ATOM     25  O   UNK d   1      -3.610 -18.371 -35.575  0.00  0.00    -0.274 OA
ATOM     26  N   UNK d   1      -4.405 -16.782 -37.023  0.00  0.00    -0.370 N 
ATOM     27  H   UNK d   1      -4.344 -15.931 -36.416  0.00  0.00     0.159 HD
ATOM     28  H   UNK d   1      -5.077 -16.737 -37.812  0.00  0.00     0.159 HD
ENDBRANCH  23  24
ENDBRANCH  13  23
BRANCH  18  29
ATOM     29  C   UNK d   1       3.219 -19.232 -39.262  0.00  0.00     0.166 C 
BRANCH  29  30
ATOM     30  C   UNK d   1       4.040 -19.671 -38.081  0.00  0.00     0.140 C 
ATOM     31  O   UNK d   1       4.014 -21.059 -37.984  0.00  0.00    -0.384 OA
ATOM     32  C   UNK d   1       5.093 -21.538 -38.692  0.00  0.00     0.168 C 
ATOM     33  C   UNK d   1       6.173 -20.479 -38.673  0.00  0.00     0.029 C 
ATOM     34  C   UNK d   1       5.467 -19.253 -38.128  0.00  0.00     0.035 C 
ENDBRANCH  29  30
ENDBRANCH  18  29
TORSDOF 4
ENDMDL
