/Users/jonathanwahrer/Desktop/Msc/3_Semester/Drug_Design_Praktikum/waehrer_HTS_screening/HTS_experiment/out/docking_results/vina_output/6y4q/2214_docked.pdbqt
 OpenBabel03232219003D

 34 38  0  0  1  0  0  0  0  0999 V2000
   -3.1310  -12.4250  -37.5500 Cl  0  0  0  0  0  0  0  0  0  0  0  0
   -1.6920  -13.3070  -37.0850 C   0  0  0  0  0  0  0  0  0  0  0  0
   -1.5180  -14.6310  -37.3830 C   0  0  0  0  0  3  0  0  0  0  0  0
   -0.3540  -15.2970  -36.9920 C   0  0  0  0  0  0  0  0  0  0  0  0
    0.5910  -14.5880  -36.3120 C   0  0  0  0  0  0  0  0  0  0  0  0
    0.4160  -13.2290  -36.0050 C   0  0  0  0  0  3  0  0  0  0  0  0
   -0.7230  -12.5780  -36.3870 C   0  0  0  0  0  3  0  0  0  0  0  0
    1.6830  -15.4530  -36.0130 N   0  0  0  0  0  0  0  0  0  0  0  0
    1.4170  -16.7380  -36.5190 C   0  0  0  0  0  0  0  0  0  0  0  0
    2.2080  -17.7270  -36.4030 O   0  0  0  0  0  0  0  0  0  0  0  0
    0.1030  -16.6860  -37.1680 C   0  0  1  0  0  0  0  0  0  0  0  0
   -0.8720  -17.5310  -36.5150 N   0  0  0  0  0  0  0  0  0  0  0  0
   -1.2870  -18.5740  -37.3980 C   0  0  2  0  0  3  0  0  0  0  0  0
   -0.3720  -18.5000  -38.5560 C   0  0  1  0  0  3  0  0  0  0  0  0
    0.1550  -17.0930  -38.6220 C   0  0  2  0  0  3  0  0  0  0  0  0
    1.5370  -17.2890  -39.1120 C   0  0  0  0  0  0  0  0  0  0  0  0
    2.3020  -16.4490  -39.6480 O   0  0  0  0  0  0  0  0  0  0  0  0
    1.9440  -18.6560  -38.8890 N   0  0  0  0  0  0  0  0  0  0  0  0
    0.8590  -19.3040  -38.2360 C   0  0  0  0  0  0  0  0  0  0  0  0
    0.9540  -20.3430  -37.5410 O   0  0  0  0  0  0  0  0  0  0  0  0
    2.5720  -15.1900  -35.4900 H   0  0  0  0  0  0  0  0  0  0  0  0
   -1.7260  -17.0110  -36.2130 H   0  0  0  0  0  0  0  0  0  0  0  0
   -2.7480  -18.4960  -37.7500 C   0  0  0  0  0  2  0  0  0  0  0  0
   -3.5920  -17.8990  -36.7310 C   0  0  0  0  0  0  0  0  0  0  0  0
   -3.6100  -18.3710  -35.5750 O   0  0  0  0  0  0  0  0  0  0  0  0
   -4.4050  -16.7820  -37.0230 N   0  0  0  0  0  0  0  0  0  0  0  0
   -4.3440  -15.9310  -36.4160 H   0  0  0  0  0  0  0  0  0  0  0  0
   -5.0770  -16.7370  -37.8120 H   0  0  0  0  0  0  0  0  0  0  0  0
    3.2190  -19.2320  -39.2620 C   0  0  0  0  0  2  0  0  0  0  0  0
    4.0400  -19.6710  -38.0810 C   0  0  1  0  0  3  0  0  0  0  0  0
    4.0140  -21.0590  -37.9840 O   0  0  0  0  0  0  0  0  0  0  0  0
    5.0930  -21.5380  -38.6920 C   0  0  0  0  0  2  0  0  0  0  0  0
    6.1730  -20.4790  -38.6730 C   0  0  0  0  0  2  0  0  0  0  0  0
    5.4670  -19.2530  -38.1280 C   0  0  0  0  0  2  0  0  0  0  0  0
  1  2  1  0  0  0  0
  2  7  1  0  0  0  0
  3  2  2  0  0  0  0
  3  4  1  0  0  0  0
  4  5  2  0  0  0  0
  5  8  1  0  0  0  0
  5  6  1  0  0  0  0
  7  6  2  0  0  0  0
  8 21  1  0  0  0  0
  9 10  2  0  0  0  0
  9  8  1  0  0  0  0
 11  4  1  1  0  0  0
 11  9  1  0  0  0  0
 11 12  1  0  0  0  0
 12 22  1  0  0  0  0
 13 23  1  6  0  0  0
 13 12  1  0  0  0  0
 14 19  1  1  0  0  0
 14 13  1  0  0  0  0
 15 16  1  1  0  0  0
 15 14  1  0  0  0  0
 15 11  1  0  0  0  0
 16 18  1  0  0  0  0
 17 16  2  0  0  0  0
 18 19  1  0  0  0  0
 19 20  2  0  0  0  0
 23 24  1  0  0  0  0
 24 25  2  0  0  0  0
 26 24  1  0  0  0  0
 26 27  1  0  0  0  0
 28 26  1  0  0  0  0
 29 18  1  0  0  0  0
 30 29  1  6  0  0  0
 30 31  1  0  0  0  0
 32 33  1  0  0  0  0
 32 31  1  0  0  0  0
 33 34  1  0  0  0  0
 34 30  1  0  0  0  0
M  END
>  <Pose>
1

>  <Score>
-6.594

$$$$
