MODEL 1
REMARK VINA RESULT:    -6.562      0.000      0.000
REMARK INTER + INTRA:          -9.450
REMARK INTER:                  -8.480
REMARK INTRA:                  -0.970
REMARK UNBOUND:                -0.970
REMARK  5 active torsions:
REMARK  status: ('A' for Active; 'I' for Inactive)
REMARK    1  A    between atoms: C_5  and  O_8 
REMARK    2  A    between atoms: O_8  and  C_9 
REMARK    3  A    between atoms: C_9  and  C_10 
REMARK       I    between atoms: C_10  and  N_12 
REMARK    4  A    between atoms: N_15  and  C_18 
REMARK    5  A    between atoms: C_20  and  N_24 
ROOT
ATOM      1  C   UNK d   1      -0.002 -16.260 -36.404  0.00  0.00     0.177 C 
ATOM      2  O   UNK d   1      -0.147 -16.899 -35.276  0.00  0.00    -0.175 OA
ATOM      3  N   UNK d   1      -0.150 -17.021 -37.552  0.00  0.00    -0.358 N 
ATOM      4  C   UNK d   1      -0.441 -18.478 -37.383  0.00  0.00     0.144 C 
ATOM      5  C   UNK d   1       0.391 -19.186 -38.423  0.00  0.00     0.144 C 
ATOM      6  N   UNK d   1       1.507 -18.391 -38.900  0.00  0.00    -0.362 N 
ATOM      7  C   UNK d   1       1.198 -17.153 -39.563  0.00  0.00     0.144 C 
ATOM      8  C   UNK d   1      -0.079 -16.619 -38.932  0.00  0.00     0.144 C 
ENDROOT
BRANCH   6   9
ATOM      9  C   UNK d   1       2.831 -18.837 -38.702  0.00  0.00     0.146 A 
ATOM     10  N   UNK d   1       3.550 -19.389 -39.719  0.00  0.00    -0.045 NA
ATOM     11  C   UNK d   1       4.796 -19.820 -39.584  0.00  0.00     0.726 A 
ATOM     12  N   UNK d   1       5.369 -19.697 -38.358  0.00  0.00    -0.075 NA
ATOM     13  C   UNK d   1       4.737 -19.173 -37.324  0.00  0.00     0.140 A 
ATOM     14  C   UNK d   1       3.429 -18.723 -37.473  0.00  0.00     0.071 A 
BRANCH  11  15
ATOM     15  N   UNK d   1       5.557 -20.396 -40.631  0.00  0.00    -0.210 N 
ATOM     16  C   UNK d   1       6.124 -19.545 -41.671  0.00  0.00     0.167 C 
ATOM     17  C   UNK d   1       5.651 -20.159 -42.992  0.00  0.00     0.188 C 
ATOM     18  O   UNK d   1       6.113 -21.443 -43.106  0.00  0.00    -0.388 OA
ATOM     19  C   UNK d   1       5.640 -22.315 -42.155  0.00  0.00     0.188 C 
ATOM     20  C   UNK d   1       5.812 -21.811 -40.740  0.00  0.00     0.167 C 
ENDBRANCH  11  15
ENDBRANCH   6   9
BRANCH   1  21
ATOM     21  C   UNK d   1       0.295 -14.824 -36.242  0.00  0.00     0.262 C 
BRANCH  21  22
ATOM     22  O   UNK d   1       1.146 -14.173 -36.951  0.00  0.00    -0.343 OA
BRANCH  22  23
ATOM     23  C   UNK d   1       1.993 -13.484 -37.645  0.00  0.00     0.069 A 
ATOM     24  C   UNK d   1       2.274 -13.704 -39.010  0.00  0.00     0.038 A 
ATOM     25  C   UNK d   1       3.178 -12.941 -39.687  0.00  0.00     0.026 A 
ATOM     26  C   UNK d   1       3.871 -11.916 -39.087  0.00  0.00     0.034 A 
ATOM     27 Cl   UNK d   1       5.027 -10.949 -39.968  0.00  0.00    -0.084 Cl
ATOM     28  C   UNK d   1       3.611 -11.685 -37.755  0.00  0.00     0.026 A 
ATOM     29  C   UNK d   1       2.713 -12.428 -37.047  0.00  0.00     0.038 A 
ENDBRANCH  22  23
ENDBRANCH  21  22
ENDBRANCH   1  21
TORSDOF 5
ENDMDL
