/Users/jonathanwahrer/Desktop/Msc/3_Semester/Drug_Design_Praktikum/waehrer_HTS_screening/HTS_experiment/out/docking_results/vina_output/6y4q/2225_docked.pdbqt
 OpenBabel03232219003D

 29 32  0  0  0  0  0  0  0  0999 V2000
   -0.0020  -16.2600  -36.4040 C   0  0  0  0  0  0  0  0  0  0  0  0
   -0.1470  -16.8990  -35.2760 O   0  0  0  0  0  0  0  0  0  0  0  0
   -0.1500  -17.0210  -37.5520 N   0  0  0  0  0  0  0  0  0  0  0  0
   -0.4410  -18.4780  -37.3830 C   0  0  0  0  0  2  0  0  0  0  0  0
    0.3910  -19.1860  -38.4230 C   0  0  0  0  0  2  0  0  0  0  0  0
    1.5070  -18.3910  -38.9000 N   0  0  0  0  0  0  0  0  0  0  0  0
    1.1980  -17.1530  -39.5630 C   0  0  0  0  0  2  0  0  0  0  0  0
   -0.0790  -16.6190  -38.9320 C   0  0  0  0  0  2  0  0  0  0  0  0
    2.8310  -18.8370  -38.7020 C   0  0  0  0  0  0  0  0  0  0  0  0
    3.5500  -19.3890  -39.7190 N   0  0  0  0  0  0  0  0  0  0  0  0
    4.7960  -19.8200  -39.5840 C   0  0  0  0  0  0  0  0  0  0  0  0
    5.3690  -19.6970  -38.3580 N   0  0  0  0  0  0  0  0  0  0  0  0
    4.7370  -19.1730  -37.3240 C   0  0  0  0  0  3  0  0  0  0  0  0
    3.4290  -18.7230  -37.4730 C   0  0  0  0  0  3  0  0  0  0  0  0
    5.5570  -20.3960  -40.6310 N   0  0  0  0  0  0  0  0  0  0  0  0
    6.1240  -19.5450  -41.6710 C   0  0  0  0  0  2  0  0  0  0  0  0
    5.6510  -20.1590  -42.9920 C   0  0  0  0  0  2  0  0  0  0  0  0
    6.1130  -21.4430  -43.1060 O   0  0  0  0  0  0  0  0  0  0  0  0
    5.6400  -22.3150  -42.1550 C   0  0  0  0  0  2  0  0  0  0  0  0
    5.8120  -21.8110  -40.7400 C   0  0  0  0  0  2  0  0  0  0  0  0
    0.2950  -14.8240  -36.2420 C   0  0  0  0  0  2  0  0  0  0  0  0
    1.1460  -14.1730  -36.9510 O   0  0  0  0  0  0  0  0  0  0  0  0
    1.9930  -13.4840  -37.6450 C   0  0  0  0  0  0  0  0  0  0  0  0
    2.2740  -13.7040  -39.0100 C   0  0  0  0  0  3  0  0  0  0  0  0
    3.1780  -12.9410  -39.6870 C   0  0  0  0  0  3  0  0  0  0  0  0
    3.8710  -11.9160  -39.0870 C   0  0  0  0  0  0  0  0  0  0  0  0
    5.0270  -10.9490  -39.9680 Cl  0  0  0  0  0  0  0  0  0  0  0  0
    3.6110  -11.6850  -37.7550 C   0  0  0  0  0  3  0  0  0  0  0  0
    2.7130  -12.4280  -37.0470 C   0  0  0  0  0  3  0  0  0  0  0  0
  1 21  1  0  0  0  0
  1  2  2  0  0  0  0
  3  4  1  0  0  0  0
  3  1  1  0  0  0  0
  5  4  1  0  0  0  0
  6  9  1  0  0  0  0
  6  5  1  0  0  0  0
  7  8  1  0  0  0  0
  7  6  1  0  0  0  0
  8  3  1  0  0  0  0
  9 14  2  0  0  0  0
 10 11  2  0  0  0  0
 10  9  1  0  0  0  0
 11 12  1  0  0  0  0
 12 13  2  0  0  0  0
 14 13  1  0  0  0  0
 15 11  1  0  0  0  0
 16 15  1  0  0  0  0
 17 16  1  0  0  0  0
 18 17  1  0  0  0  0
 18 19  1  0  0  0  0
 19 20  1  0  0  0  0
 20 15  1  0  0  0  0
 22 21  1  0  0  0  0
 23 29  1  0  0  0  0
 23 22  1  0  0  0  0
 24 23  2  0  0  0  0
 25 26  2  0  0  0  0
 25 24  1  0  0  0  0
 26 28  1  0  0  0  0
 27 26  1  0  0  0  0
 28 29  2  0  0  0  0
M  END
>  <Pose>
1

>  <Score>
-6.562

$$$$
