MODEL 1
REMARK VINA RESULT:    -6.828      0.000      0.000
REMARK INTER + INTRA:          -8.550
REMARK INTER:                  -8.026
REMARK INTRA:                  -0.524
REMARK UNBOUND:                -0.524
REMARK  3 active torsions:
REMARK  status: ('A' for Active; 'I' for Inactive)
REMARK    1  A    between atoms: C_7  and  N_8 
REMARK       I    between atoms: N_8  and  C_9 
REMARK    2  A    between atoms: C_9  and  C_11 
REMARK    3  A    between atoms: N_13  and  C_18 
ROOT
ATOM      1  N   UNK d   1       4.398 -22.211 -40.422  0.00  0.00    -0.319 N 
ATOM      2  C   UNK d   1       4.998 -22.035 -41.671  0.00  0.00     0.293 C 
ATOM      3  O   UNK d   1       5.234 -20.919 -42.157  0.00  0.00    -0.264 OA
ATOM      4  H   UNK d   1       4.233 -23.213 -40.087  0.00  0.00     0.169 HD
ENDROOT
BRANCH   2   5
ATOM      5  C   UNK d   1       5.393 -23.213 -42.492  0.00  0.00     0.213 C 
ATOM      6  N   UNK d   1       6.656 -23.458 -42.660  0.00  0.00    -0.141 NA
ATOM      7  N   UNK d   1       7.110 -24.539 -43.413  0.00  0.00    -0.198 N 
ATOM      8  C   UNK d   1       6.167 -25.397 -44.014  0.00  0.00     0.262 C 
ATOM      9  O   UNK d   1       6.629 -26.422 -44.621  0.00  0.00    -0.269 OA
ATOM     10  C   UNK d   1       4.712 -25.146 -43.961  0.00  0.00     0.226 C 
ATOM     11  N   UNK d   1       4.427 -24.062 -43.087  0.00  0.00    -0.360 N 
ATOM     12  H   UNK d   1       3.420 -23.856 -42.854  0.00  0.00     0.161 HD
BRANCH   7  13
ATOM     13  C   UNK d   1       8.528 -24.779 -43.583  0.00  0.00     0.062 A 
ATOM     14  C   UNK d   1       9.257 -24.128 -44.548  0.00  0.00     0.032 A 
ATOM     15  C   UNK d   1      10.627 -24.373 -44.690  0.00  0.00     0.009 A 
ATOM     16  C   UNK d   1      11.273 -25.274 -43.867  0.00  0.00    -0.062 A 
ATOM     17  C   UNK d   1      10.529 -25.918 -42.906  0.00  0.00     0.009 A 
ATOM     18  C   UNK d   1      12.733 -25.569 -43.974  0.00  0.00     0.048 C 
ATOM     19  C   UNK d   1       9.194 -25.673 -42.773  0.00  0.00     0.032 A 
ENDBRANCH   7  13
ENDBRANCH   2   5
BRANCH   1  20
ATOM     20  C   UNK d   1       3.993 -21.175 -39.571  0.00  0.00     0.059 A 
ATOM     21  C   UNK d   1       4.902 -20.731 -38.606  0.00  0.00     0.063 A 
ATOM     22 Cl   UNK d   1       6.478 -21.482 -38.492  0.00  0.00    -0.082 Cl
ATOM     23  C   UNK d   1       4.597 -19.721 -37.738  0.00  0.00     0.058 A 
ATOM     24  C   UNK d   1       3.387 -19.087 -37.767  0.00  0.00     0.070 A 
ATOM     25  C   UNK d   1       2.469 -19.493 -38.699  0.00  0.00     0.098 A 
ATOM     26  N   UNK d   1       3.046 -18.019 -36.876  0.00  0.00    -0.323 N 
ATOM     27  C   UNK d   1       2.787 -20.533 -39.589  0.00  0.00     0.070 A 
ATOM     28  O   UNK d   1       1.212 -18.902 -38.796  0.00  0.00    -0.340 OA
ATOM     29  C   UNK d   1       0.920 -17.623 -38.213  0.00  0.00     0.278 C 
ATOM     30  C   UNK d   1       1.761 -17.418 -36.997  0.00  0.00     0.246 C 
ATOM     31  O   UNK d   1       1.309 -16.700 -36.075  0.00  0.00    -0.271 OA
ATOM     32  H   UNK d   1       3.722 -17.691 -36.159  0.00  0.00     0.169 HD
ENDBRANCH   1  20
TORSDOF 3
ENDMDL
