/Users/jonathanwahrer/Desktop/Msc/3_Semester/Drug_Design_Praktikum/waehrer_HTS_screening/HTS_experiment/out/docking_results/vina_output/6y4q/2242_docked.pdbqt
 OpenBabel03232219013D

 32 35  0  0  0  0  0  0  0  0999 V2000
    4.3980  -22.2110  -40.4220 N   0  0  0  0  0  0  0  0  0  0  0  0
    4.9980  -22.0350  -41.6710 C   0  0  0  0  0  0  0  0  0  0  0  0
    5.2340  -20.9190  -42.1570 O   0  0  0  0  0  0  0  0  0  0  0  0
    4.2330  -23.2130  -40.0870 H   0  0  0  0  0  0  0  0  0  0  0  0
    5.3930  -23.2130  -42.4920 C   0  0  0  0  0  0  0  0  0  0  0  0
    6.6560  -23.4580  -42.6600 N   0  0  0  0  0  0  0  0  0  0  0  0
    7.1100  -24.5390  -43.4130 N   0  0  0  0  0  0  0  0  0  0  0  0
    6.1670  -25.3970  -44.0140 C   0  0  0  0  0  0  0  0  0  0  0  0
    6.6290  -26.4220  -44.6210 O   0  0  0  0  0  0  0  0  0  0  0  0
    4.7120  -25.1460  -43.9610 C   0  0  0  0  0  2  0  0  0  0  0  0
    4.4270  -24.0620  -43.0870 N   0  0  0  0  0  0  0  0  0  0  0  0
    3.4200  -23.8560  -42.8540 H   0  0  0  0  0  0  0  0  0  0  0  0
    8.5280  -24.7790  -43.5830 C   0  0  0  0  0  0  0  0  0  0  0  0
    9.2570  -24.1280  -44.5480 C   0  0  0  0  0  3  0  0  0  0  0  0
   10.6270  -24.3730  -44.6900 C   0  0  0  0  0  3  0  0  0  0  0  0
   11.2730  -25.2740  -43.8670 C   0  0  0  0  0  0  0  0  0  0  0  0
   10.5290  -25.9180  -42.9060 C   0  0  0  0  0  3  0  0  0  0  0  0
   12.7330  -25.5690  -43.9740 C   0  0  0  0  0  1  0  0  0  0  0  0
    9.1940  -25.6730  -42.7730 C   0  0  0  0  0  3  0  0  0  0  0  0
    3.9930  -21.1750  -39.5710 C   0  0  0  0  0  0  0  0  0  0  0  0
    4.9020  -20.7310  -38.6060 C   0  0  0  0  0  0  0  0  0  0  0  0
    6.4780  -21.4820  -38.4920 Cl  0  0  0  0  0  0  0  0  0  0  0  0
    4.5970  -19.7210  -37.7380 C   0  0  0  0  0  3  0  0  0  0  0  0
    3.3870  -19.0870  -37.7670 C   0  0  0  0  0  0  0  0  0  0  0  0
    2.4690  -19.4930  -38.6990 C   0  0  0  0  0  0  0  0  0  0  0  0
    3.0460  -18.0190  -36.8760 N   0  0  0  0  0  0  0  0  0  0  0  0
    2.7870  -20.5330  -39.5890 C   0  0  0  0  0  3  0  0  0  0  0  0
    1.2120  -18.9020  -38.7960 O   0  0  0  0  0  0  0  0  0  0  0  0
    0.9200  -17.6230  -38.2130 C   0  0  0  0  0  2  0  0  0  0  0  0
    1.7610  -17.4180  -36.9970 C   0  0  0  0  0  0  0  0  0  0  0  0
    1.3090  -16.7000  -36.0750 O   0  0  0  0  0  0  0  0  0  0  0  0
    3.7220  -17.6910  -36.1590 H   0  0  0  0  0  0  0  0  0  0  0  0
  1  4  1  0  0  0  0
  1 20  1  0  0  0  0
  2  1  1  0  0  0  0
  3  2  2  0  0  0  0
  5  2  1  0  0  0  0
  6  5  2  0  0  0  0
  7  6  1  0  0  0  0
  8 10  1  0  0  0  0
  8  7  1  0  0  0  0
  9  8  2  0  0  0  0
 10 11  1  0  0  0  0
 11 12  1  0  0  0  0
 11  5  1  0  0  0  0
 13  7  1  0  0  0  0
 13 19  1  0  0  0  0
 14 13  2  0  0  0  0
 15 14  1  0  0  0  0
 15 16  2  0  0  0  0
 16 17  1  0  0  0  0
 17 19  2  0  0  0  0
 18 16  1  0  0  0  0
 20 21  1  0  0  0  0
 21 22  1  0  0  0  0
 21 23  2  0  0  0  0
 24 23  1  0  0  0  0
 24 26  1  0  0  0  0
 25 24  2  0  0  0  0
 26 32  1  0  0  0  0
 27 20  2  0  0  0  0
 27 25  1  0  0  0  0
 28 25  1  0  0  0  0
 28 29  1  0  0  0  0
 29 30  1  0  0  0  0
 30 26  1  0  0  0  0
 30 31  2  0  0  0  0
M  END
>  <Pose>
1

>  <Score>
-6.828

$$$$
