/Users/jonathanwahrer/Desktop/Msc/3_Semester/Drug_Design_Praktikum/waehrer_HTS_screening/HTS_experiment/out/docking_results/vina_output/6y4q/2266_docked.pdbqt
 OpenBabel03232219013D

 27 30  0  0  1  0  0  0  0  0999 V2000
    1.5500  -18.1340  -38.2070 N   0  0  0  0  0  0  0  0  0  0  0  0
    2.7940  -18.0840  -37.5500 C   0  0  0  0  0  2  0  0  0  0  0  0
    3.3840  -19.4470  -37.2470 C   0  0  0  0  0  2  0  0  0  0  0  0
    3.3810  -20.1930  -38.5400 C   0  0  1  0  0  3  0  0  0  0  0  0
    2.2160  -20.1460  -39.2780 C   0  0  0  0  0  0  0  0  0  0  0  0
    2.1500  -20.7920  -40.4420 N   0  0  0  0  0  0  0  0  0  0  0  0
    3.2350  -21.4740  -40.8590 C   0  0  2  0  0  3  0  0  0  0  0  0
    4.3820  -21.5360  -40.1600 N   0  0  0  0  0  0  0  0  0  0  0  0
    5.2860  -22.2840  -40.8190 N   0  0  0  0  0  0  0  0  0  0  0  0
    4.7600  -22.7350  -41.9670 C   0  0  0  0  0  3  0  0  0  0  0  0
    3.4790  -22.2380  -42.0090 C   0  0  0  0  0  3  0  0  0  0  0  0
    4.4850  -20.8930  -38.9750 C   0  0  0  0  0  0  0  0  0  0  0  0
    5.5300  -20.9140  -38.2760 O   0  0  0  0  0  0  0  0  0  0  0  0
    1.0930  -19.3620  -38.7100 C   0  0  0  0  0  2  0  0  0  0  0  0
    6.2510  -22.4700  -40.4620 H   0  0  0  0  0  0  0  0  0  0  0  0
    0.9330  -16.7070  -38.8380 S   0  0  0  0  0  0  0  0  0  0  0  0
    1.4120  -16.4610  -40.2620 O   0  0  0  0  0  0  0  0  0  0  0  0
   -0.5770  -16.8690  -38.9720 O   0  0  0  0  0  0  0  0  0  0  0  0
    1.2430  -15.2690  -37.9440 C   0  0  0  0  0  0  0  0  0  0  0  0
    0.6280  -15.0470  -36.7140 C   0  0  0  0  0  0  0  0  0  0  0  0
    0.8950  -13.8840  -36.0260 C   0  0  0  0  0  3  0  0  0  0  0  0
    1.7430  -12.9380  -36.5030 C   0  0  0  0  0  3  0  0  0  0  0  0
    2.3620  -13.1260  -37.7070 C   0  0  0  0  0  0  0  0  0  0  0  0
    2.0950  -14.2900  -38.3970 C   0  0  0  0  0  3  0  0  0  0  0  0
    3.4710  -11.9110  -38.3530 Cl  0  0  0  0  0  0  0  0  0  0  0  0
   -0.2440  -15.9540  -36.1580 O   0  0  0  0  0  0  0  0  0  0  0  0
    0.2320  -16.8530  -35.1820 C   0  0  0  0  0  1  0  0  0  0  0  0
  1  2  1  0  0  0  0
  2  3  1  0  0  0  0
  4  3  1  6  0  0  0
  5 14  1  0  0  0  0
  5  4  1  0  0  0  0
  6  5  2  0  0  0  0
  7 11  1  6  0  0  0
  7  6  1  0  0  0  0
  7  8  1  0  0  0  0
  8 12  1  0  0  0  0
  9 15  1  0  0  0  0
  9  8  1  0  0  0  0
 10  9  1  0  0  0  0
 11 10  2  0  0  0  0
 12  4  1  0  0  0  0
 12 13  2  0  0  0  0
 14  1  1  0  0  0  0
 16  1  1  0  0  0  0
 16 19  1  0  0  0  0
 17 16  2  0  0  0  0
 18 16  2  0  0  0  0
 19 20  1  0  0  0  0
 20 26  1  0  0  0  0
 20 21  2  0  0  0  0
 22 21  1  0  0  0  0
 23 22  2  0  0  0  0
 24 19  2  0  0  0  0
 24 23  1  0  0  0  0
 25 23  1  0  0  0  0
 26 27  1  0  0  0  0
M  END
>  <Pose>
1

>  <Score>
-6.677

$$$$
