MODEL 1
REMARK VINA RESULT:    -7.038      0.000      0.000
REMARK INTER + INTRA:          -8.806
REMARK INTER:                  -8.273
REMARK INTRA:                  -0.533
REMARK UNBOUND:                -0.533
REMARK  3 active torsions:
REMARK  status: ('A' for Active; 'I' for Inactive)
REMARK    1  A    between atoms: S_1  and  N_4 
REMARK    2  A    between atoms: S_1  and  C_18 
REMARK    3  A    between atoms: C_21  and  O_24 
ROOT
ATOM      1  N   UNK d   1       1.489 -17.990 -37.397  0.00  0.00    -0.301 N 
ATOM      2  C   UNK d   1       2.494 -17.682 -36.482  0.00  0.00     0.140 C 
ATOM      3  C   UNK d   1       3.698 -18.590 -36.571  0.00  0.00     0.067 C 
ATOM      4  C   UNK d   1       3.907 -19.166 -37.920  0.00  0.00     0.040 A 
ATOM      5  C   UNK d   1       2.782 -19.499 -38.636  0.00  0.00     0.067 A 
ATOM      6  N   UNK d   1       2.874 -20.027 -39.862  0.00  0.00    -0.231 NA
ATOM      7  C   UNK d   1       4.114 -20.237 -40.413  0.00  0.00     0.154 A 
ATOM      8  N   UNK d   1       5.206 -19.904 -39.695  0.00  0.00    -0.202 N 
ATOM      9  N   UNK d   1       6.271 -20.204 -40.443  0.00  0.00    -0.301 N 
ATOM     10  C   UNK d   1       5.888 -20.714 -41.607  0.00  0.00     0.112 A 
ATOM     11  C   UNK d   1       4.495 -20.755 -41.632  0.00  0.00     0.071 A 
ATOM     12  C   UNK d   1       5.173 -19.374 -38.466  0.00  0.00     0.276 A 
ATOM     13  O   UNK d   1       6.190 -19.064 -37.800  0.00  0.00    -0.266 OA
ATOM     14  C   UNK d   1       1.465 -19.260 -38.023  0.00  0.00     0.195 C 
ATOM     15  H   UNK d   1       7.270 -20.062 -40.166  0.00  0.00     0.186 HD
ENDROOT
BRANCH   1  16
ATOM     16  S   UNK d   1       0.609 -16.757 -38.094  0.00  0.00     0.261 S 
ATOM     17  O   UNK d   1       0.482 -17.006 -39.580  0.00  0.00    -0.200 OA
ATOM     18  O   UNK d   1      -0.786 -16.702 -37.546  0.00  0.00    -0.200 OA
BRANCH  16  19
ATOM     19  C   UNK d   1       1.316 -15.167 -37.912  0.00  0.00     0.081 A 
ATOM     20  C   UNK d   1       2.011 -14.533 -38.928  0.00  0.00     0.052 A 
ATOM     21  C   UNK d   1       2.551 -13.272 -38.727  0.00  0.00     0.068 A 
ATOM     22  C   UNK d   1       2.425 -12.600 -37.533  0.00  0.00     0.089 A 
ATOM     23 Cl   UNK d   1       3.427 -12.484 -40.024  0.00  0.00    -0.081 Cl
ATOM     24  C   UNK d   1       1.734 -13.230 -36.521  0.00  0.00     0.040 A 
ATOM     25  C   UNK d   1       1.197 -14.483 -36.721  0.00  0.00     0.028 A 
BRANCH  22  26
ATOM     26  O   UNK d   1       2.980 -11.323 -37.352  0.00  0.00    -0.354 OA
ATOM     27  C   UNK d   1       4.297 -11.196 -36.851  0.00  0.00     0.210 C 
ENDBRANCH  22  26
ENDBRANCH  16  19
ENDBRANCH   1  16
TORSDOF 3
ENDMDL
