/Users/jonathanwahrer/Desktop/Msc/3_Semester/Drug_Design_Praktikum/waehrer_HTS_screening/HTS_experiment/out/docking_results/vina_output/6y4q/2270_docked.pdbqt
 OpenBabel03232219013D

 22 24  0  0  1  0  0  0  0  0999 V2000
    1.7250  -17.7320  -38.1350 C   0  0  0  0  0  0  0  0  0  0  0  0
    0.9540  -18.1930  -39.0240 O   0  0  0  0  0  0  0  0  0  0  0  0
    2.6790  -18.5650  -37.4740 N   0  0  0  0  0  0  0  0  0  0  0  0
    3.2780  -18.1470  -36.7630 H   0  0  0  0  0  0  0  0  0  0  0  0
    1.6340  -16.3370  -37.7850 C   0  0  0  0  0  0  0  0  0  0  0  0
    1.9010  -15.3980  -38.7860 C   0  0  0  0  0  3  0  0  0  0  0  0
    1.8500  -14.0390  -38.5740 C   0  0  0  0  0  0  0  0  0  0  0  0
    1.5190  -13.5800  -37.3170 C   0  0  0  0  0  0  0  0  0  0  0  0
    1.4470  -11.8450  -37.0210 Cl  0  0  0  0  0  0  0  0  0  0  0  0
    1.2500  -14.4950  -36.3090 C   0  0  0  0  0  3  0  0  0  0  0  0
    1.3070  -15.8740  -36.5430 C   0  0  0  0  0  3  0  0  0  0  0  0
    2.1220  -13.1300  -39.5870 O   0  0  0  0  0  0  0  0  0  0  0  0
    3.4500  -12.8060  -39.9510 C   0  0  0  0  0  1  0  0  0  0  0  0
    2.7380  -19.9460  -37.8520 C   0  0  0  0  0  2  0  0  0  0  0  0
    4.0370  -20.4590  -38.3320 C   0  0  2  0  0  3  0  0  0  0  0  0
    5.0380  -19.4980  -38.6790 N   0  0  1  0  0  0  0  0  0  0  0  0
    6.3190  -20.0970  -38.2360 C   0  0  0  0  0  2  0  0  0  0  0  0
    5.2350  -19.3080  -40.1020 C   0  0  0  0  0  2  0  0  0  0  0  0
    6.2510  -21.5370  -38.7590 C   0  0  0  0  0  2  0  0  0  0  0  0
    5.3440  -21.6680  -39.8820 N   0  0  1  0  0  0  0  0  0  0  0  0
    3.9510  -21.4380  -39.4910 C   0  0  0  0  0  2  0  0  0  0  0  0
    5.6620  -20.5910  -40.8040 C   0  0  0  0  0  2  0  0  0  0  0  0
  1  5  1  0  0  0  0
  1  3  1  0  0  0  0
  2  1  2  0  0  0  0
  3  4  1  0  0  0  0
  5 11  1  0  0  0  0
  6  7  1  0  0  0  0
  6  5  2  0  0  0  0
  7  8  2  0  0  0  0
  8  9  1  0  0  0  0
  8 10  1  0  0  0  0
 11 10  2  0  0  0  0
 12  7  1  0  0  0  0
 13 12  1  0  0  0  0
 14  3  1  0  0  0  0
 15 14  1  6  0  0  0
 16 18  1  6  0  0  0
 16 15  1  0  0  0  0
 16 17  1  0  0  0  0
 19 17  1  0  0  0  0
 20 22  1  6  0  0  0
 20 21  1  0  0  0  0
 20 19  1  0  0  0  0
 21 15  1  0  0  0  0
 22 18  1  0  0  0  0
M  END
>  <Pose>
1

>  <Score>
-5.632

$$$$
