MODEL 1
REMARK VINA RESULT:    -5.632      0.000      0.000
REMARK INTER + INTRA:          -7.462
REMARK INTER:                  -6.948
REMARK INTRA:                  -0.514
REMARK UNBOUND:                -0.514
REMARK  4 active torsions:
REMARK  status: ('A' for Active; 'I' for Inactive)
REMARK    1  A    between atoms: C_3  and  O_20 
REMARK    2  A    between atoms: C_5  and  C_8 
REMARK       I    between atoms: C_8  and  N_10 
REMARK    3  A    between atoms: N_10  and  C_11 
REMARK    4  A    between atoms: C_11  and  C_12 
ROOT
ATOM      1  C   UNK d   1       1.725 -17.732 -38.135  0.00  0.00     0.251 C 
ATOM      2  O   UNK d   1       0.954 -18.193 -39.024  0.00  0.00    -0.268 OA
ATOM      3  N   UNK d   1       2.679 -18.565 -37.474  0.00  0.00    -0.355 N 
ATOM      4  H   UNK d   1       3.278 -18.147 -36.763  0.00  0.00     0.162 HD
ENDROOT
BRANCH   1   5
ATOM      5  C   UNK d   1       1.634 -16.337 -37.785  0.00  0.00     0.034 A 
ATOM      6  C   UNK d   1       1.901 -15.398 -38.786  0.00  0.00     0.055 A 
ATOM      7  C   UNK d   1       1.850 -14.039 -38.574  0.00  0.00     0.090 A 
ATOM      8  C   UNK d   1       1.519 -13.580 -37.317  0.00  0.00     0.067 A 
ATOM      9 Cl   UNK d   1       1.447 -11.845 -37.021  0.00  0.00    -0.081 Cl
ATOM     10  C   UNK d   1       1.250 -14.495 -36.309  0.00  0.00     0.028 A 
ATOM     11  C   UNK d   1       1.307 -15.874 -36.543  0.00  0.00     0.019 A 
BRANCH   7  12
ATOM     12  O   UNK d   1       2.122 -13.130 -39.587  0.00  0.00    -0.354 OA
ATOM     13  C   UNK d   1       3.450 -12.806 -39.951  0.00  0.00     0.210 C 
ENDBRANCH   7  12
ENDBRANCH   1   5
BRANCH   3  14
ATOM     14  C   UNK d   1       2.738 -19.946 -37.852  0.00  0.00     0.160 C 
BRANCH  14  15
ATOM     15  C   UNK d   1       4.037 -20.459 -38.332  0.00  0.00     0.268 C 
ATOM     16  N   UNK d   1       5.038 -19.498 -38.679  0.00  0.00     0.100 N 
ATOM     17  C   UNK d   1       6.319 -20.097 -38.236  0.00  0.00     0.303 C 
ATOM     18  C   UNK d   1       5.235 -19.308 -40.102  0.00  0.00     0.303 C 
ATOM     19  C   UNK d   1       6.251 -21.537 -38.759  0.00  0.00     0.302 C 
ATOM     20  N   UNK d   1       5.344 -21.668 -39.882  0.00  0.00     0.094 N 
ATOM     21  C   UNK d   1       3.951 -21.438 -39.491  0.00  0.00     0.309 C 
ATOM     22  C   UNK d   1       5.662 -20.591 -40.804  0.00  0.00     0.302 C 
ENDBRANCH  14  15
ENDBRANCH   3  14
TORSDOF 4
ENDMDL
