MODEL 1
REMARK VINA RESULT:    -6.801      0.000      0.000
REMARK INTER + INTRA:          -7.722
REMARK INTER:                  -8.193
REMARK INTRA:                   0.471
REMARK UNBOUND:                 0.471
REMARK  4 active torsions:
REMARK  status: ('A' for Active; 'I' for Inactive)
REMARK    1  A    between atoms: C_5  and  C_8 
REMARK    2  A    between atoms: C_8  and  O_25 
REMARK    3  A    between atoms: N_9  and  C_17 
REMARK    4  A    between atoms: C_20  and  O_23 
ROOT
ATOM      1  C   UNK d   1       0.995 -16.447 -36.579  0.00  0.00     0.283 C 
ATOM      2  N   UNK d   1       1.033 -17.624 -37.293  0.00  0.00     0.042 N 
ATOM      3  C   UNK d   1      -0.003 -17.490 -38.295  0.00  0.00     0.210 C 
ATOM      4  C   UNK d   1      -0.116 -17.757 -39.556  0.00  0.00     0.030 C 
ATOM      5  C   UNK d   1      -1.334 -17.505 -40.346  0.00  0.00     0.032 C 
ATOM      6  C   UNK d   1      -2.467 -16.886 -39.607  0.00  0.00     0.023 C 
ATOM      7  C   UNK d   1      -2.420 -17.074 -38.129  0.00  0.00     0.125 C 
ATOM      8  N   UNK d   1      -1.087 -16.916 -37.587  0.00  0.00    -0.356 N 
ATOM      9  C   UNK d   1      -0.539 -16.262 -36.402  0.00  0.00     0.200 C 
ATOM     10  H   UNK d   1       0.594 -18.379 -36.648  0.00  0.00     0.299 HD
ENDROOT
BRANCH   1  11
ATOM     11  C   UNK d   1       1.474 -15.176 -37.084  0.00  0.00     0.007 A 
ATOM     12  C   UNK d   1       1.539 -14.093 -36.230  0.00  0.00     0.014 A 
ATOM     13  C   UNK d   1       1.965 -12.878 -36.680  0.00  0.00     0.024 A 
ATOM     14  C   UNK d   1       2.349 -12.674 -37.999  0.00  0.00     0.034 A 
ATOM     15 Cl   UNK d   1       2.898 -11.130 -38.600  0.00  0.00    -0.084 Cl
ATOM     16  C   UNK d   1       2.284 -13.748 -38.844  0.00  0.00     0.024 A 
ATOM     17  C   UNK d   1       1.852 -14.981 -38.389  0.00  0.00     0.014 A 
ENDBRANCH   1  11
BRANCH   1  18
ATOM     18  O   UNK d   1       1.438 -16.625 -35.238  0.00  0.00    -0.359 OA
ATOM     19  H   UNK d   1       1.087 -17.510 -34.959  0.00  0.00     0.213 HD
ENDBRANCH   1  18
BRANCH   2  20
ATOM     20  C   UNK d   1       2.192 -18.208 -37.782  0.00  0.00     0.146 A 
ATOM     21  C   UNK d   1       2.496 -18.458 -39.077  0.00  0.00     0.041 A 
ATOM     22  C   UNK d   1       3.715 -19.043 -39.415  0.00  0.00     0.039 A 
ATOM     23  C   UNK d   1       4.662 -19.392 -38.467  0.00  0.00     0.068 A 
ATOM     24  C   UNK d   1       4.323 -19.125 -37.157  0.00  0.00     0.039 A 
ATOM     25  C   UNK d   1       3.134 -18.552 -36.792  0.00  0.00     0.041 A 
BRANCH  23  26
ATOM     26  O   UNK d   1       5.861 -19.973 -38.846  0.00  0.00    -0.356 OA
ATOM     27  C   UNK d   1       5.912 -21.356 -39.085  0.00  0.00     0.210 C 
ENDBRANCH  23  26
ENDBRANCH   2  20
TORSDOF 4
ENDMDL
