MODEL 1
REMARK VINA RESULT:    -5.755      0.000      0.000
REMARK INTER + INTRA:          -6.727
REMARK INTER:                  -6.428
REMARK INTRA:                  -0.299
REMARK UNBOUND:                -0.299
REMARK  2 active torsions:
REMARK  status: ('A' for Active; 'I' for Inactive)
REMARK    1  A    between atoms: C_3  and  N_17 
REMARK    2  A    between atoms: N_17  and  C_18 
ROOT
ATOM      1 Cl   UNK d   1       2.456 -20.687 -40.507  0.00  0.00    -0.076 Cl
ATOM      2  C   UNK d   1       2.242 -19.459 -39.279  0.00  0.00     0.135 A 
ATOM      3  C   UNK d   1       3.060 -19.442 -38.168  0.00  0.00     0.126 A 
ATOM      4  C   UNK d   1       2.838 -18.444 -37.246  0.00  0.00     0.291 A 
ATOM      5  O   UNK d   1       3.533 -18.336 -36.189  0.00  0.00    -0.264 OA
ATOM      6  N   UNK d   1       1.862 -17.547 -37.450  0.00  0.00    -0.241 N 
ATOM      7  N   UNK d   1       1.058 -17.525 -38.495  0.00  0.00    -0.242 N 
ATOM      8  C   UNK d   1       0.013 -16.532 -38.676  0.00  0.00     0.134 C 
ATOM      9  C   UNK d   1      -1.156 -16.747 -37.738  0.00  0.00     0.031 C 
ATOM     10  C   UNK d   1      -0.854 -16.160 -36.370  0.00  0.00     0.005 C 
ATOM     11  C   UNK d   1       0.354 -16.818 -35.744  0.00  0.00     0.031 C 
ATOM     12  C   UNK d   1       1.643 -16.490 -36.450  0.00  0.00     0.134 C 
ATOM     13  C   UNK d   1       1.444 -15.232 -37.216  0.00  0.00    -0.002 C 
ATOM     14  C   UNK d   1       0.631 -15.216 -38.267  0.00  0.00    -0.002 C 
ATOM     15  C   UNK d   1       1.258 -18.505 -39.425  0.00  0.00     0.287 A 
ATOM     16  O   UNK d   1       0.494 -18.509 -40.449  0.00  0.00    -0.265 OA
ENDROOT
BRANCH   3  17
ATOM     17  N   UNK d   1       4.094 -20.397 -37.949  0.00  0.00    -0.380 N 
ATOM     18  H   UNK d   1       3.844 -21.152 -37.242  0.00  0.00     0.160 HD
BRANCH  17  19
ATOM     19  C   UNK d   1       5.373 -20.380 -38.605  0.00  0.00     0.073 C 
ATOM     20  C   UNK d   1       6.368 -19.487 -37.884  0.00  0.00     0.031 C 
ATOM     21  C   UNK d   1       5.999 -21.724 -38.775  0.00  0.00     0.031 C 
ENDBRANCH  17  19
ENDBRANCH   3  17
TORSDOF 2
ENDMDL
