MODEL 1
REMARK VINA RESULT:    -6.696      0.000      0.000
REMARK INTER + INTRA:          -9.086
REMARK INTER:                  -8.654
REMARK INTRA:                  -0.432
REMARK UNBOUND:                -0.432
REMARK  5 active torsions:
REMARK  status: ('A' for Active; 'I' for Inactive)
REMARK    1  A    between atoms: C_3  and  N_15 
REMARK    2  A    between atoms: N_6  and  C_9 
REMARK    3  A    between atoms: N_18  and  C_21 
REMARK    4  A    between atoms: C_21  and  C_22 
REMARK       I    between atoms: C_22  and  N_24 
REMARK       I    between atoms: N_24  and  C_25 
REMARK       I    between atoms: C_25  and  N_27 
REMARK    5  A    between atoms: N_27  and  C_28 
ROOT
ATOM      1  N   UNK d   1      -1.466 -16.124 -36.720  0.00  0.00    -0.375 N 
ATOM      2  C   UNK d   1      -1.854 -17.234 -35.958  0.00  0.00     0.153 C 
ATOM      3  C   UNK d   1      -1.774 -18.490 -36.902  0.00  0.00     0.292 C 
ATOM      4  N   UNK d   1      -1.145 -18.329 -38.116  0.00  0.00     0.100 N 
ATOM      5  C   UNK d   1      -1.119 -17.030 -38.733  0.00  0.00     0.292 C 
ATOM      6  C   UNK d   1      -2.186 -16.104 -38.063  0.00  0.00     0.153 C 
ENDROOT
BRANCH   1   7
ATOM      7  C   UNK d   1      -0.469 -15.166 -36.620  0.00  0.00     0.077 A 
ATOM      8  C   UNK d   1      -0.614 -13.850 -36.686  0.00  0.00     0.131 A 
ATOM      9 Cl   UNK d   1      -2.273 -13.185 -36.403  0.00  0.00    -0.076 Cl
ATOM     10  C   UNK d   1       0.430 -12.960 -36.941  0.00  0.00     0.292 A 
ATOM     11  N   UNK d   1       1.632 -13.434 -37.118  0.00  0.00    -0.197 N 
ATOM     12  O   UNK d   1       0.137 -11.718 -37.005  0.00  0.00    -0.264 OA
ATOM     13  N   UNK d   1       1.828 -14.777 -37.041  0.00  0.00    -0.174 NA
ATOM     14  C   UNK d   1       0.920 -15.649 -36.810  0.00  0.00     0.170 A 
BRANCH  11  15
ATOM     15  C   UNK d   1       2.734 -12.639 -37.657  0.00  0.00     0.062 A 
ATOM     16  C   UNK d   1       3.033 -12.600 -38.981  0.00  0.00     0.032 A 
ATOM     17  C   UNK d   1       3.998 -11.748 -39.474  0.00  0.00     0.002 A 
ATOM     18  C   UNK d   1       4.697 -10.896 -38.621  0.00  0.00     0.000 A 
ATOM     19  C   UNK d   1       4.375 -10.965 -37.265  0.00  0.00     0.002 A 
ATOM     20  C   UNK d   1       3.433 -11.801 -36.807  0.00  0.00     0.032 A 
ENDBRANCH  11  15
ENDBRANCH   1   7
BRANCH   4  21
ATOM     21  C   UNK d   1      -1.674 -19.191 -39.226  0.00  0.00     0.375 C 
BRANCH  21  22
ATOM     22  C   UNK d   1      -0.577 -19.609 -40.087  0.00  0.00     0.254 C 
ATOM     23  O   UNK d   1      -0.251 -19.383 -41.132  0.00  0.00    -0.271 OA
ATOM     24  N   UNK d   1       0.431 -20.704 -39.250  0.00  0.00    -0.278 N 
ATOM     25  C   UNK d   1       1.559 -20.611 -40.243  0.00  0.00     0.323 C 
ATOM     26  H   UNK d   1      -0.152 -20.750 -38.744  0.00  0.00     0.173 HD
ATOM     27  O   UNK d   1       1.439 -20.423 -41.422  0.00  0.00    -0.247 OA
ATOM     28  N   UNK d   1       2.828 -20.764 -39.571  0.00  0.00    -0.338 N 
ATOM     29  H   UNK d   1       2.765 -20.962 -38.517  0.00  0.00     0.164 HD
BRANCH  28  30
ATOM     30  C   UNK d   1       4.121 -20.706 -40.142  0.00  0.00     0.086 C 
ATOM     31  C   UNK d   1       4.847 -19.424 -40.181  0.00  0.00     0.025 C 
ATOM     32  C   UNK d   1       5.699 -19.340 -38.911  0.00  0.00     0.002 C 
ATOM     33  C   UNK d   1       6.064 -20.791 -38.707  0.00  0.00     0.002 C 
ATOM     34  C   UNK d   1       4.988 -21.621 -39.254  0.00  0.00     0.025 C 
ENDBRANCH  28  30
ENDBRANCH  21  22
ENDBRANCH   4  21
TORSDOF 5
ENDMDL
