/Users/jonathanwahrer/Desktop/Msc/3_Semester/Drug_Design_Praktikum/waehrer_HTS_screening/HTS_experiment/out/docking_results/vina_output/6y4q/2281_docked.pdbqt
 OpenBabel03232219023D

 34 37  0  0  1  0  0  0  0  0999 V2000
   -1.4660  -16.1240  -36.7200 N   0  0  0  0  0  0  0  0  0  0  0  0
   -1.8540  -17.2340  -35.9580 C   0  0  0  0  0  2  0  0  0  0  0  0
   -1.7740  -18.4900  -36.9020 C   0  0  0  0  0  2  0  0  0  0  0  0
   -1.1450  -18.3290  -38.1160 N   0  0  0  0  0  0  0  0  0  0  0  0
   -1.1190  -17.0300  -38.7330 C   0  0  0  0  0  2  0  0  0  0  0  0
   -2.1860  -16.1040  -38.0630 C   0  0  0  0  0  2  0  0  0  0  0  0
   -0.4690  -15.1660  -36.6200 C   0  0  2  0  0  3  0  0  0  0  0  0
   -0.6140  -13.8500  -36.6860 C   0  0  1  0  0  3  0  0  0  0  0  0
   -2.2730  -13.1850  -36.4030 Cl  0  0  0  0  0  0  0  0  0  0  0  0
    0.4300  -12.9600  -36.9410 C   0  0  0  0  0  0  0  0  0  0  0  0
    1.6320  -13.4340  -37.1180 N   0  0  0  0  0  0  0  0  0  0  0  0
    0.1370  -11.7180  -37.0050 O   0  0  0  0  0  0  0  0  0  0  0  0
    1.8280  -14.7770  -37.0410 N   0  0  0  0  0  0  0  0  0  0  0  0
    0.9200  -15.6490  -36.8100 C   0  0  0  0  0  3  0  0  0  0  0  0
    2.7340  -12.6390  -37.6570 C   0  0  0  0  0  0  0  0  0  0  0  0
    3.0330  -12.6000  -38.9810 C   0  0  0  0  0  3  0  0  0  0  0  0
    3.9980  -11.7480  -39.4740 C   0  0  0  0  0  3  0  0  0  0  0  0
    4.6970  -10.8960  -38.6210 C   0  0  0  0  0  3  0  0  0  0  0  0
    4.3750  -10.9650  -37.2650 C   0  0  0  0  0  3  0  0  0  0  0  0
    3.4330  -11.8010  -36.8070 C   0  0  0  0  0  3  0  0  0  0  0  0
   -1.6740  -19.1910  -39.2260 C   0  0  0  0  0  2  0  0  0  0  0  0
   -0.5770  -19.6090  -40.0870 C   0  0  0  0  0  0  0  0  0  0  0  0
   -0.2510  -19.3830  -41.1320 O   0  0  0  0  0  0  0  0  0  0  0  0
    0.4310  -20.7040  -39.2500 N   0  0  0  0  0  0  0  0  0  0  0  0
    1.5590  -20.6110  -40.2430 C   0  0  0  0  0  0  0  0  0  0  0  0
   -0.1520  -20.7500  -38.7440 H   0  0  0  0  0  0  0  0  0  0  0  0
    1.4390  -20.4230  -41.4220 O   0  0  0  0  0  0  0  0  0  0  0  0
    2.8280  -20.7640  -39.5710 N   0  0  0  0  0  0  0  0  0  0  0  0
    2.7650  -20.9620  -38.5170 H   0  0  0  0  0  0  0  0  0  0  0  0
    4.1210  -20.7060  -40.1420 C   0  0  0  0  0  3  0  0  0  0  0  0
    4.8470  -19.4240  -40.1810 C   0  0  0  0  0  2  0  0  0  0  0  0
    5.6990  -19.3400  -38.9110 C   0  0  0  0  0  2  0  0  0  0  0  0
    6.0640  -20.7910  -38.7070 C   0  0  0  0  0  2  0  0  0  0  0  0
    4.9880  -21.6210  -39.2540 C   0  0  0  0  0  2  0  0  0  0  0  0
  1  7  1  0  0  0  0
  1  2  1  0  0  0  0
  3  2  1  0  0  0  0
  4  3  1  0  0  0  0
  5  4  1  0  0  0  0
  5  6  1  0  0  0  0
  6  1  1  0  0  0  0
  7 14  1  6  0  0  0
  8  7  1  0  0  0  0
  8  9  1  1  0  0  0
 10  8  1  0  0  0  0
 11 13  1  0  0  0  0
 11 10  1  0  0  0  0
 12 10  2  0  0  0  0
 13 14  2  0  0  0  0
 15 11  1  0  0  0  0
 15 20  1  0  0  0  0
 16 15  2  0  0  0  0
 17 16  1  0  0  0  0
 17 18  2  0  0  0  0
 18 19  1  0  0  0  0
 19 20  2  0  0  0  0
 21  4  1  0  0  0  0
 22 24  1  0  0  0  0
 22 21  1  0  0  0  0
 23 22  2  0  0  0  0
 24 26  1  0  0  0  0
 25 28  1  0  0  0  0
 25 24  1  0  0  0  0
 27 25  2  0  0  0  0
 28 29  1  0  0  0  0
 30 28  1  0  0  0  0
 30 34  1  0  0  0  0
 31 30  1  0  0  0  0
 31 32  1  0  0  0  0
 32 33  1  0  0  0  0
 34 33  1  0  0  0  0
M  END
>  <Pose>
1

>  <Score>
-6.696

$$$$
