/Users/jonathanwahrer/Desktop/Msc/3_Semester/Drug_Design_Praktikum/waehrer_HTS_screening/HTS_experiment/out/docking_results/vina_output/6y4q/2282_docked.pdbqt
 OpenBabel03232219023D

 31 34  0  0  1  0  0  0  0  0999 V2000
   -1.5270  -16.4470  -37.5220 N   0  0  0  0  0  0  0  0  0  0  0  0
   -1.8840  -16.9870  -36.2320 C   0  0  0  0  0  2  0  0  0  0  0  0
   -2.0700  -18.4680  -36.3310 C   0  0  0  0  0  2  0  0  0  0  0  0
   -1.5620  -18.8800  -37.6160 N   0  0  0  0  0  0  0  0  0  0  0  0
   -2.4330  -18.4010  -38.6280 C   0  0  0  0  0  2  0  0  0  0  0  0
   -2.2560  -16.8810  -38.6870 C   0  0  0  0  0  2  0  0  0  0  0  0
   -0.4840  -15.5000  -37.6930 C   0  0  0  0  0  0  0  0  0  0  0  0
   -0.7240  -14.1290  -37.6770 C   0  0  0  0  0  0  0  0  0  0  0  0
   -2.3810  -13.6120  -37.4440 Cl  0  0  0  0  0  0  0  0  0  0  0  0
    0.3100  -13.2290  -37.8390 C   0  0  0  0  0  0  0  0  0  0  0  0
    1.5810  -13.6360  -38.0190 N   0  0  0  0  0  0  0  0  0  0  0  0
    0.0860  -11.9860  -37.8240 O   0  0  0  0  0  0  0  0  0  0  0  0
    1.7880  -14.9410  -38.0310 N   0  0  0  0  0  0  0  0  0  0  0  0
    0.8300  -15.8720  -37.8800 C   0  0  0  0  0  3  0  0  0  0  0  0
    2.6550  -12.7000  -38.1840 C   0  0  0  0  0  0  0  0  0  0  0  0
    3.1960  -12.4840  -39.4300 C   0  0  0  0  0  3  0  0  0  0  0  0
    4.2450  -11.5730  -39.6030 C   0  0  0  0  0  3  0  0  0  0  0  0
    4.7640  -10.8700  -38.5400 C   0  0  0  0  0  3  0  0  0  0  0  0
    4.2270  -11.0800  -37.2890 C   0  0  0  0  0  3  0  0  0  0  0  0
    3.1860  -11.9880  -37.1300 C   0  0  0  0  0  3  0  0  0  0  0  0
   -1.0810  -20.2000  -37.7070 C   0  0  0  0  0  2  0  0  0  0  0  0
    0.1090  -20.3650  -38.5490 C   0  0  0  0  0  0  0  0  0  0  0  0
   -0.0880  -20.8750  -39.7030 O   0  0  0  0  0  0  0  0  0  0  0  0
    1.4360  -20.0120  -38.2020 N   0  0  0  0  0  0  0  0  0  0  0  0
    1.5910  -19.5870  -37.2660 H   0  0  0  0  0  0  0  0  0  0  0  0
    2.5750  -20.1920  -39.0660 C   0  0  0  0  0  2  0  0  0  0  0  0
    3.8230  -20.2620  -38.2410 C   0  0  1  0  0  3  0  0  0  0  0  0
    4.2930  -21.5480  -38.2330 O   0  0  0  0  0  0  0  0  0  0  0  0
    5.5760  -21.6040  -38.7040 C   0  0  0  0  0  2  0  0  0  0  0  0
    6.1330  -20.2380  -38.3630 C   0  0  0  0  0  2  0  0  0  0  0  0
    4.9310  -19.3920  -38.8170 C   0  0  0  0  0  2  0  0  0  0  0  0
  1  2  1  0  0  0  0
  3  2  1  0  0  0  0
  4  3  1  0  0  0  0
  5  4  1  0  0  0  0
  6  5  1  0  0  0  0
  6  1  1  0  0  0  0
  7  8  2  0  0  0  0
  7  1  1  0  0  0  0
  8  9  1  0  0  0  0
 10 12  2  0  0  0  0
 10  8  1  0  0  0  0
 11 10  1  0  0  0  0
 13 11  1  0  0  0  0
 13 14  2  0  0  0  0
 14  7  1  0  0  0  0
 15 11  1  0  0  0  0
 15 20  1  0  0  0  0
 16 15  2  0  0  0  0
 17 16  1  0  0  0  0
 17 18  2  0  0  0  0
 18 19  1  0  0  0  0
 19 20  2  0  0  0  0
 21  4  1  0  0  0  0
 22 24  1  0  0  0  0
 22 21  1  0  0  0  0
 23 22  2  0  0  0  0
 24 25  1  0  0  0  0
 26 24  1  0  0  0  0
 27 26  1  6  0  0  0
 27 28  1  0  0  0  0
 29 30  1  0  0  0  0
 29 28  1  0  0  0  0
 31 30  1  0  0  0  0
 31 27  1  0  0  0  0
M  END
>  <Pose>
1

>  <Score>
-6.894

$$$$
