MODEL 1
REMARK VINA RESULT:    -6.638      0.000      0.000
REMARK INTER + INTRA:          -9.375
REMARK INTER:                  -8.578
REMARK INTRA:                  -0.797
REMARK UNBOUND:                -0.797
REMARK  5 active torsions:
REMARK  status: ('A' for Active; 'I' for Inactive)
REMARK    1  A    between atoms: S_1  and  N_4 
REMARK    2  A    between atoms: S_1  and  C_28 
REMARK    3  A    between atoms: N_7  and  C_10 
REMARK    4  A    between atoms: C_10  and  C_11 
REMARK    5  A    between atoms: C_17  and  C_21 
ROOT
ATOM      1  C   UNK d   1       3.592 -20.291 -38.724  0.00  0.00     0.060 A 
ATOM      2  C   UNK d   1       3.972 -20.037 -37.421  0.00  0.00     0.105 A 
ATOM      3  C   UNK d   1       3.534 -18.972 -36.675  0.00  0.00     0.272 A 
ATOM      4  O   UNK d   1       3.956 -18.842 -35.479  0.00  0.00    -0.266 OA
ATOM      5  N   UNK d   1       2.660 -18.078 -37.226  0.00  0.00    -0.171 N 
ATOM      6  N   UNK d   1       2.179 -17.052 -36.645  0.00  0.00    -0.154 NA
ATOM      7  C   UNK d   1       1.349 -16.241 -37.230  0.00  0.00     0.132 A 
ATOM      8  S   UNK d   1       1.232 -17.009 -38.772  0.00  0.00    -0.028 SA
ATOM      9  C   UNK d   1       2.295 -18.327 -38.486  0.00  0.00     0.199 A 
ATOM     10  N   UNK d   1       2.729 -19.377 -39.217  0.00  0.00    -0.225 NA
ENDROOT
BRANCH   1  11
ATOM     11  C   UNK d   1       4.096 -21.458 -39.486  0.00  0.00     0.176 C 
BRANCH  11  12
ATOM     12  N   UNK d   1       4.630 -21.000 -40.729  0.00  0.00    -0.404 N 
ATOM     13  C   UNK d   1       3.881 -21.290 -41.886  0.00  0.00     0.137 C 
ATOM     14  C   UNK d   1       4.350 -20.372 -43.019  0.00  0.00     0.155 C 
ATOM     15  N   UNK d   1       5.741 -20.417 -43.148  0.00  0.00    -0.302 N 
ATOM     16  C   UNK d   1       6.369 -21.374 -42.337  0.00  0.00     0.155 C 
ATOM     17  C   UNK d   1       6.028 -21.133 -40.884  0.00  0.00     0.137 C 
BRANCH  15  18
ATOM     18  S   UNK d   1       6.594 -19.135 -43.767  0.00  0.00     0.280 S 
ATOM     19  O   UNK d   1       6.606 -18.014 -42.733  0.00  0.00    -0.199 OA
ATOM     20  O   UNK d   1       6.016 -18.624 -45.061  0.00  0.00    -0.199 OA
BRANCH  18  21
ATOM     21  C   UNK d   1       8.275 -19.554 -44.015  0.00  0.00     0.188 A 
ATOM     22  N   UNK d   1       9.315 -19.281 -43.179  0.00  0.00    -0.229 NA
ATOM     23  C   UNK d   1      10.455 -19.746 -43.694  0.00  0.00     0.208 A 
ATOM     24  N   UNK d   1      10.207 -20.335 -44.872  0.00  0.00    -0.358 N 
ATOM     25  C   UNK d   1       8.865 -20.214 -45.066  0.00  0.00     0.134 A 
ATOM     26  H   UNK d   1      10.894 -20.784 -45.499  0.00  0.00     0.166 HD
ENDBRANCH  18  21
ENDBRANCH  15  18
ENDBRANCH  11  12
ENDBRANCH   1  11
BRANCH   7  27
ATOM     27  C   UNK d   1       0.678 -15.020 -36.767  0.00  0.00     0.002 A 
ATOM     28  C   UNK d   1       1.452 -13.967 -36.327  0.00  0.00     0.016 A 
ATOM     29  C   UNK d   1       0.879 -12.786 -35.876  0.00  0.00     0.024 A 
ATOM     30  C   UNK d   1      -0.494 -12.652 -35.866  0.00  0.00     0.034 A 
ATOM     31  C   UNK d   1      -1.291 -13.696 -36.303  0.00  0.00     0.024 A 
ATOM     32 Cl   UNK d   1      -1.224 -11.182 -35.306  0.00  0.00    -0.084 Cl
ATOM     33  C   UNK d   1      -0.677 -14.847 -36.739  0.00  0.00     0.016 A 
ENDBRANCH   7  27
TORSDOF 5
ENDMDL
