MODEL 1
REMARK VINA RESULT:    -6.845      0.000      0.000
REMARK INTER + INTRA:         -10.174
REMARK INTER:                  -9.245
REMARK INTRA:                  -0.929
REMARK UNBOUND:                -0.929
REMARK  6 active torsions:
REMARK  status: ('A' for Active; 'I' for Inactive)
REMARK    1  A    between atoms: S_1  and  N_4 
REMARK    2  A    between atoms: S_1  and  C_22 
REMARK    3  A    between atoms: N_7  and  C_10 
REMARK    4  A    between atoms: C_10  and  C_11 
REMARK    5  A    between atoms: N_13  and  C_14 
REMARK    6  A    between atoms: C_14  and  C_15 
ROOT
ATOM      1  N   UNK d   1       5.694 -21.148 -40.449  0.00  0.00    -0.203 NA
ATOM      2  C   UNK d   1       5.675 -19.736 -40.202  0.00  0.00     0.127 C 
ATOM      3  C   UNK d   1       5.545 -19.361 -38.714  0.00  0.00     0.132 C 
ATOM      4  N   UNK d   1       4.369 -20.014 -38.231  0.00  0.00    -0.403 N 
ATOM      5  C   UNK d   1       4.619 -21.428 -38.229  0.00  0.00     0.132 C 
ATOM      6  C   UNK d   1       4.582 -21.812 -39.683  0.00  0.00     0.127 C 
ENDROOT
BRANCH   1   7
ATOM      7  S   UNK d   1       5.153 -21.343 -42.132  0.00  0.00     0.243 S 
ATOM      8  O   UNK d   1       3.637 -21.377 -42.107  0.00  0.00    -0.206 OA
ATOM      9  O   UNK d   1       5.616 -20.167 -42.916  0.00  0.00    -0.206 OA
BRANCH   7  10
ATOM     10  C   UNK d   1       5.731 -22.805 -42.831  0.00  0.00     0.077 A 
ATOM     11  C   UNK d   1       7.094 -22.810 -43.156  0.00  0.00     0.064 A 
ATOM     12  C   UNK d   1       7.765 -23.935 -43.642  0.00  0.00     0.103 A 
ATOM     13  C   UNK d   1       7.038 -25.110 -43.809  0.00  0.00     0.102 A 
ATOM     14  O   UNK d   1       9.112 -23.901 -43.958  0.00  0.00    -0.346 OA
ATOM     15  C   UNK d   1       5.692 -25.087 -43.490  0.00  0.00     0.041 A 
ATOM     16  O   UNK d   1       7.764 -26.184 -44.287  0.00  0.00    -0.346 OA
ATOM     17  C   UNK d   1       5.037 -23.962 -43.004  0.00  0.00     0.028 A 
ATOM     18  C   UNK d   1       9.120 -26.346 -43.790  0.00  0.00     0.202 C 
ATOM     19  C   UNK d   1       9.872 -25.059 -43.715  0.00  0.00     0.202 C 
ENDBRANCH   7  10
ENDBRANCH   1   7
BRANCH   4  20
ATOM     20  C   UNK d   1       3.583 -19.384 -37.283  0.00  0.00     0.204 C 
BRANCH  20  21
ATOM     21  C   UNK d   1       2.611 -18.394 -37.754  0.00  0.00     0.169 C 
ATOM     22  O   UNK d   1       2.050 -18.738 -38.886  0.00  0.00    -0.176 OA
ATOM     23  N   UNK d   1       2.186 -17.206 -37.233  0.00  0.00    -0.366 N 
ATOM     24  H   UNK d   1       2.575 -16.764 -36.335  0.00  0.00     0.161 HD
BRANCH  23  25
ATOM     25  C   UNK d   1       1.108 -16.385 -37.788  0.00  0.00     0.162 C 
BRANCH  25  26
ATOM     26  C   UNK d   1       1.483 -14.961 -37.676  0.00  0.00    -0.019 A 
ATOM     27  C   UNK d   1       2.094 -14.282 -38.756  0.00  0.00     0.042 A 
ATOM     28  C   UNK d   1       2.574 -13.033 -38.654  0.00  0.00     0.024 A 
ATOM     29 Cl   UNK d   1       2.203 -15.132 -40.318  0.00  0.00    -0.084 Cl
ATOM     30  C   UNK d   1       2.480 -12.321 -37.417  0.00  0.00     0.002 A 
ATOM     31  C   UNK d   1       1.914 -12.951 -36.383  0.00  0.00     0.001 A 
ATOM     32  C   UNK d   1       1.409 -14.255 -36.461  0.00  0.00     0.010 A 
ENDBRANCH  25  26
ENDBRANCH  23  25
ENDBRANCH  20  21
ENDBRANCH   4  20
TORSDOF 6
ENDMDL
