/Users/jonathanwahrer/Desktop/Msc/3_Semester/Drug_Design_Praktikum/waehrer_HTS_screening/HTS_experiment/out/docking_results/vina_output/6y4q/2285_docked.pdbqt
 OpenBabel03232219033D

 32 35  0  0  0  0  0  0  0  0999 V2000
    5.6940  -21.1480  -40.4490 N   0  0  0  0  0  0  0  0  0  0  0  0
    5.6750  -19.7360  -40.2020 C   0  0  0  0  0  2  0  0  0  0  0  0
    5.5450  -19.3610  -38.7140 C   0  0  0  0  0  2  0  0  0  0  0  0
    4.3690  -20.0140  -38.2310 N   0  0  0  0  0  0  0  0  0  0  0  0
    4.6190  -21.4280  -38.2290 C   0  0  0  0  0  2  0  0  0  0  0  0
    4.5820  -21.8120  -39.6830 C   0  0  0  0  0  2  0  0  0  0  0  0
    5.1530  -21.3430  -42.1320 S   0  0  0  0  0  0  0  0  0  0  0  0
    3.6370  -21.3770  -42.1070 O   0  0  0  0  0  0  0  0  0  0  0  0
    5.6160  -20.1670  -42.9160 O   0  0  0  0  0  0  0  0  0  0  0  0
    5.7310  -22.8050  -42.8310 C   0  0  0  0  0  0  0  0  0  0  0  0
    7.0940  -22.8100  -43.1560 C   0  0  0  0  0  3  0  0  0  0  0  0
    7.7650  -23.9350  -43.6420 C   0  0  0  0  0  0  0  0  0  0  0  0
    7.0380  -25.1100  -43.8090 C   0  0  0  0  0  0  0  0  0  0  0  0
    9.1120  -23.9010  -43.9580 O   0  0  0  0  0  0  0  0  0  0  0  0
    5.6920  -25.0870  -43.4900 C   0  0  0  0  0  3  0  0  0  0  0  0
    7.7640  -26.1840  -44.2870 O   0  0  0  0  0  0  0  0  0  0  0  0
    5.0370  -23.9620  -43.0040 C   0  0  0  0  0  3  0  0  0  0  0  0
    9.1200  -26.3460  -43.7900 C   0  0  0  0  0  2  0  0  0  0  0  0
    9.8720  -25.0590  -43.7150 C   0  0  0  0  0  2  0  0  0  0  0  0
    3.5830  -19.3840  -37.2830 C   0  0  0  0  0  2  0  0  0  0  0  0
    2.6110  -18.3940  -37.7540 C   0  0  0  0  0  0  0  0  0  0  0  0
    2.0500  -18.7380  -38.8860 O   0  0  0  0  0  0  0  0  0  0  0  0
    2.1860  -17.2060  -37.2330 N   0  0  0  0  0  0  0  0  0  0  0  0
    2.5750  -16.7640  -36.3350 H   0  0  0  0  0  0  0  0  0  0  0  0
    1.1080  -16.3850  -37.7880 C   0  0  0  0  0  2  0  0  0  0  0  0
    1.4830  -14.9610  -37.6760 C   0  0  0  0  0  0  0  0  0  0  0  0
    2.0940  -14.2820  -38.7560 C   0  0  0  0  0  0  0  0  0  0  0  0
    2.5740  -13.0330  -38.6540 C   0  0  0  0  0  3  0  0  0  0  0  0
    2.2030  -15.1320  -40.3180 Cl  0  0  0  0  0  0  0  0  0  0  0  0
    2.4800  -12.3210  -37.4170 C   0  0  0  0  0  3  0  0  0  0  0  0
    1.9140  -12.9510  -36.3830 C   0  0  0  0  0  3  0  0  0  0  0  0
    1.4090  -14.2550  -36.4610 C   0  0  0  0  0  3  0  0  0  0  0  0
  1  2  1  0  0  0  0
  1  6  1  0  0  0  0
  2  3  1  0  0  0  0
  3  4  1  0  0  0  0
  4  5  1  0  0  0  0
  4 20  1  0  0  0  0
  6  5  1  0  0  0  0
  7  8  2  0  0  0  0
  7  1  1  0  0  0  0
  9  7  2  0  0  0  0
 10  7  1  0  0  0  0
 11 10  2  0  0  0  0
 12 11  1  0  0  0  0
 13 12  2  0  0  0  0
 13 15  1  0  0  0  0
 14 19  1  0  0  0  0
 14 12  1  0  0  0  0
 15 17  2  0  0  0  0
 16 13  1  0  0  0  0
 16 18  1  0  0  0  0
 17 10  1  0  0  0  0
 18 19  1  0  0  0  0
 21 20  1  0  0  0  0
 21 23  1  0  0  0  0
 22 21  2  0  0  0  0
 23 24  1  0  0  0  0
 25 26  1  0  0  0  0
 25 23  1  0  0  0  0
 26 32  1  0  0  0  0
 27 28  1  0  0  0  0
 27 26  2  0  0  0  0
 28 30  2  0  0  0  0
 29 27  1  0  0  0  0
 30 31  1  0  0  0  0
 32 31  2  0  0  0  0
M  END
>  <Pose>
1

>  <Score>
-6.845

$$$$
