MODEL 1
REMARK VINA RESULT:    -6.285      0.000      0.000
REMARK INTER + INTRA:          -8.945
REMARK INTER:                  -7.754
REMARK INTRA:                  -1.191
REMARK UNBOUND:                -1.191
REMARK  4 active torsions:
REMARK  status: ('A' for Active; 'I' for Inactive)
REMARK    1  A    between atoms: S_1  and  N_4 
REMARK    2  A    between atoms: S_1  and  C_26 
REMARK       I    between atoms: N_7  and  C_10 
REMARK    3  A    between atoms: C_10  and  C_12 
REMARK    4  A    between atoms: C_12  and  N_13 
ROOT
ATOM      1  N   UNK d   1       0.538 -14.994 -38.023  0.00  0.00    -0.303 N 
ATOM      2  C   UNK d   1      -0.813 -15.342 -38.281  0.00  0.00     0.155 C 
ATOM      3  C   UNK d   1      -1.003 -16.748 -38.784  0.00  0.00     0.146 C 
ATOM      4  N   UNK d   1      -0.126 -17.689 -38.120  0.00  0.00    -0.348 N 
ATOM      5  C   UNK d   1       0.566 -17.198 -36.944  0.00  0.00     0.146 C 
ATOM      6  C   UNK d   1       1.281 -15.898 -37.220  0.00  0.00     0.155 C 
ATOM      7  C   UNK d   1       0.010 -18.988 -38.625  0.00  0.00     0.238 C 
ATOM      8  O   UNK d   1      -0.634 -19.316 -39.650  0.00  0.00    -0.272 OA
ENDROOT
BRANCH   7   9
ATOM      9  C   UNK d   1       0.893 -20.001 -37.991  0.00  0.00     0.239 C 
BRANCH   9  10
ATOM     10  N   UNK d   1       2.212 -20.002 -38.560  0.00  0.00    -0.259 N 
ATOM     11  C   UNK d   1       3.378 -19.548 -37.889  0.00  0.00     0.328 C 
ATOM     12  O   UNK d   1       3.396 -19.083 -36.699  0.00  0.00    -0.247 OA
ATOM     13  N   UNK d   1       4.535 -19.671 -38.705  0.00  0.00    -0.320 N 
ATOM     14  C   UNK d   1       4.072 -20.013 -40.037  0.00  0.00     0.118 C 
ATOM     15  C   UNK d   1       5.916 -19.486 -38.261  0.00  0.00     0.155 C 
ATOM     16  C   UNK d   1       4.817 -21.180 -40.618  0.00  0.00     0.041 C 
ATOM     17  C   UNK d   1       4.180 -18.762 -40.877  0.00  0.00     0.041 C 
ATOM     18  C   UNK d   1       2.660 -20.425 -39.841  0.00  0.00     0.257 C 
ATOM     19  C   UNK d   1       6.105 -20.803 -41.289  0.00  0.00     0.003 C 
ATOM     20  C   UNK d   1       5.967 -19.677 -42.271  0.00  0.00     0.000 C 
ATOM     21  C   UNK d   1       4.568 -19.101 -42.299  0.00  0.00     0.003 C 
ATOM     22  O   UNK d   1       1.939 -21.049 -40.655  0.00  0.00    -0.270 OA
ENDBRANCH   9  10
ENDBRANCH   7   9
BRANCH   1  23
ATOM     23  S   UNK d   1       1.395 -14.384 -39.373  0.00  0.00     0.267 S 
ATOM     24  O   UNK d   1       0.418 -13.945 -40.420  0.00  0.00    -0.200 OA
ATOM     25  O   UNK d   1       2.284 -15.432 -39.975  0.00  0.00    -0.200 OA
BRANCH  23  26
ATOM     26  C   UNK d   1       2.444 -13.031 -38.920  0.00  0.00     0.121 A 
ATOM     27  S   UNK d   1       2.386 -12.061 -37.526  0.00  0.00    -0.064 SA
ATOM     28  C   UNK d   1       3.696 -11.028 -37.853  0.00  0.00     0.075 A 
ATOM     29  C   UNK d   1       4.156 -11.472 -39.064  0.00  0.00     0.033 A 
ATOM     30 Cl   UNK d   1       4.342  -9.686 -36.883  0.00  0.00    -0.076 Cl
ATOM     31  C   UNK d   1       3.502 -12.517 -39.620  0.00  0.00     0.035 A 
ENDBRANCH  23  26
ENDBRANCH   1  23
TORSDOF 4
ENDMDL
