MODEL 1
REMARK VINA RESULT:    -6.242      0.000      0.000
REMARK INTER + INTRA:         -10.370
REMARK INTER:                  -8.796
REMARK INTRA:                  -1.573
REMARK UNBOUND:                -1.573
REMARK  7 active torsions:
REMARK  status: ('A' for Active; 'I' for Inactive)
REMARK    1  A    between atoms: S_1  and  N_4 
REMARK    2  A    between atoms: S_1  and  C_27 
REMARK    3  A    between atoms: N_7  and  C_10 
REMARK    4  A    between atoms: C_10  and  C_11 
REMARK       I    between atoms: C_11  and  N_13 
REMARK    5  A    between atoms: N_13  and  C_14 
REMARK    6  A    between atoms: C_14  and  C_15 
REMARK    7  A    between atoms: C_15  and  N_21 
ROOT
ATOM      1  C   UNK d   1       0.236 -18.038 -38.879  0.00  0.00     0.374 C 
ENDROOT
BRANCH   1   2
ATOM      2  N   UNK d   1       0.393 -18.034 -37.453  0.00  0.00     0.100 N 
ATOM      3  C   UNK d   1       1.578 -17.398 -37.001  0.00  0.00     0.293 C 
ATOM      4  C   UNK d   1       1.380 -16.214 -36.094  0.00  0.00     0.165 C 
ATOM      5  N   UNK d   1       0.375 -15.397 -36.570  0.00  0.00    -0.303 N 
ATOM      6  C   UNK d   1      -0.832 -16.014 -36.914  0.00  0.00     0.165 C 
ATOM      7  C   UNK d   1      -0.762 -17.532 -36.781  0.00  0.00     0.293 C 
BRANCH   5   8
ATOM      8  S   UNK d   1       0.537 -13.753 -36.750  0.00  0.00     0.260 S 
ATOM      9  O   UNK d   1      -0.745 -13.055 -37.134  0.00  0.00    -0.200 OA
ATOM     10  O   UNK d   1       1.028 -13.039 -35.510  0.00  0.00    -0.200 OA
BRANCH   8  11
ATOM     11  C   UNK d   1       1.678 -13.402 -38.044  0.00  0.00     0.079 A 
ATOM     12  C   UNK d   1       2.603 -12.403 -37.924  0.00  0.00     0.027 A 
ATOM     13  C   UNK d   1       3.493 -12.126 -38.928  0.00  0.00     0.025 A 
ATOM     14  C   UNK d   1       3.448 -12.875 -40.083  0.00  0.00     0.034 A 
ATOM     15  C   UNK d   1       2.514 -13.886 -40.209  0.00  0.00     0.025 A 
ATOM     16 Cl   UNK d   1       4.601 -12.496 -41.351  0.00  0.00    -0.084 Cl
ATOM     17  C   UNK d   1       1.628 -14.154 -39.197  0.00  0.00     0.027 A 
ENDBRANCH   8  11
ENDBRANCH   5   8
ENDBRANCH   1   2
BRANCH   1  18
ATOM     18  C   UNK d   1       0.872 -19.253 -39.491  0.00  0.00     0.246 C 
ATOM     19  O   UNK d   1       0.481 -20.366 -39.076  0.00  0.00    -0.272 OA
ATOM     20  N   UNK d   1       1.868 -19.139 -40.492  0.00  0.00    -0.357 N 
ATOM     21  H   UNK d   1       2.151 -18.170 -40.799  0.00  0.00     0.162 HD
BRANCH  20  22
ATOM     22  C   UNK d   1       2.421 -20.352 -41.020  0.00  0.00     0.164 C 
BRANCH  22  23
ATOM     23  C   UNK d   1       3.849 -20.614 -40.728  0.00  0.00     0.175 C 
ATOM     24  C   UNK d   1       3.960 -21.453 -39.478  0.00  0.00     0.043 C 
ATOM     25  C   UNK d   1       4.096 -20.594 -38.216  0.00  0.00     0.003 C 
ATOM     26  C   UNK d   1       5.430 -19.874 -38.215  0.00  0.00     0.000 C 
ATOM     27  C   UNK d   1       5.787 -19.582 -39.661  0.00  0.00     0.003 C 
ATOM     28  C   UNK d   1       4.481 -19.259 -40.357  0.00  0.00     0.043 C 
BRANCH  23  29
ATOM     29  N   UNK d   1       4.650 -21.155 -41.757  0.00  0.00     0.103 N 
ATOM     30  C   UNK d   1       4.694 -22.566 -41.909  0.00  0.00     0.299 C 
ATOM     31  C   UNK d   1       5.938 -22.861 -42.766  0.00  0.00     0.198 C 
ATOM     32  O   UNK d   1       5.796 -22.298 -44.012  0.00  0.00    -0.388 OA
ATOM     33  C   UNK d   1       4.636 -21.587 -44.185  0.00  0.00     0.198 C 
ATOM     34  C   UNK d   1       4.407 -20.576 -43.061  0.00  0.00     0.299 C 
ENDBRANCH  23  29
ENDBRANCH  22  23
ENDBRANCH  20  22
ENDBRANCH   1  18
TORSDOF 7
ENDMDL
