MODEL 1
REMARK VINA RESULT:    -6.242      0.000      0.000
REMARK INTER + INTRA:          -7.755
REMARK INTER:                  -7.154
REMARK INTRA:                  -0.601
REMARK UNBOUND:                -0.601
REMARK  3 active torsions:
REMARK  status: ('A' for Active; 'I' for Inactive)
REMARK    1  A    between atoms: C_5  and  C_8 
REMARK    2  A    between atoms: C_8  and  O_23 
REMARK    3  A    between atoms: N_11  and  C_14 
ROOT
ATOM      1  C   UNK d   1       1.030 -17.237 -37.996  0.00  0.00     0.088 C 
ATOM      2  C   UNK d   1       1.048 -16.001 -38.833  0.00  0.00     0.062 C 
ATOM      3  C   UNK d   1       1.965 -14.937 -38.206  0.00  0.00     0.128 C 
ATOM      4  N   UNK d   1       1.277 -14.621 -36.945  0.00  0.00    -0.364 N 
ATOM      5  C   UNK d   1       1.246 -15.693 -36.002  0.00  0.00     0.128 C 
ATOM      6  C   UNK d   1       0.720 -16.980 -36.569  0.00  0.00     0.062 C 
ENDROOT
BRANCH   1   7
ATOM      7  C   UNK d   1       2.252 -18.019 -38.246  0.00  0.00    -0.024 A 
ATOM      8  C   UNK d   1       2.736 -18.373 -39.472  0.00  0.00     0.012 A 
ATOM      9  C   UNK d   1       3.887 -19.106 -39.557  0.00  0.00     0.024 A 
ATOM     10  C   UNK d   1       4.619 -19.525 -38.454  0.00  0.00     0.034 A 
ATOM     11 Cl   UNK d   1       6.096 -20.453 -38.612  0.00  0.00    -0.084 Cl
ATOM     12  C   UNK d   1       4.125 -19.165 -37.224  0.00  0.00     0.024 A 
ATOM     13  C   UNK d   1       2.963 -18.426 -37.118  0.00  0.00     0.012 A 
ENDBRANCH   1   7
BRANCH   1  14
ATOM     14  O   UNK d   1      -0.019 -18.036 -38.517  0.00  0.00    -0.385 OA
ATOM     15  H   UNK d   1       0.180 -18.985 -38.245  0.00  0.00     0.211 HD
ENDBRANCH   1  14
BRANCH   4  16
ATOM     16  C   UNK d   1       0.722 -13.330 -36.777  0.00  0.00     0.148 A 
ATOM     17  N   UNK d   1       0.040 -13.042 -35.655  0.00  0.00    -0.129 NA
ATOM     18  N   UNK d   1      -0.512 -11.877 -35.377  0.00  0.00    -0.108 N 
ATOM     19  N   UNK d   1      -1.211 -11.383 -34.352  0.00  0.00    -0.021 NA
ATOM     20  C   UNK d   1      -0.409 -10.881 -36.254  0.00  0.00     0.196 A 
ATOM     21  N   UNK d   1      -1.536 -10.129 -34.575  0.00  0.00    -0.021 NA
ATOM     22  N   UNK d   1      -1.049  -9.801 -35.741  0.00  0.00    -0.107 NA
ATOM     23  C   UNK d   1       0.279 -11.102 -37.435  0.00  0.00     0.060 A 
ATOM     24  C   UNK d   1       0.850 -12.327 -37.709  0.00  0.00     0.056 A 
ENDBRANCH   4  16
TORSDOF 3
ENDMDL
