/Users/jonathanwahrer/Desktop/Msc/3_Semester/Drug_Design_Praktikum/waehrer_HTS_screening/HTS_experiment/out/docking_results/vina_output/6y4q/2304_docked.pdbqt
 OpenBabel03232219043D

 28 31  0  0  1  0  0  0  0  0999 V2000
    1.2810  -18.1070  -37.5420 N   0  0  0  0  0  0  0  0  0  0  0  0
    2.5760  -18.0690  -36.9770 C   0  0  0  0  0  2  0  0  0  0  0  0
    3.6170  -18.8650  -37.7190 C   0  0  0  0  0  2  0  0  0  0  0  0
    3.5300  -18.7180  -39.1450 N   0  0  0  0  0  0  0  0  0  0  0  0
    2.3450  -18.0830  -39.6650 C   0  0  0  0  0  2  0  0  0  0  0  0
    1.1680  -18.6250  -38.8600 C   0  0  0  0  0  2  0  0  0  0  0  0
    4.5680  -19.1870  -39.9670 C   0  0  0  0  0  0  0  0  0  0  0  0
    5.5520  -19.7380  -39.3980 O   0  0  0  0  0  0  0  0  0  0  0  0
    4.5780  -19.0730  -41.4520 C   0  0  2  0  0  3  0  0  0  0  0  0
    4.0000  -20.2090  -42.0710 N   0  0  0  0  0  0  0  0  0  0  0  0
    4.8840  -21.2840  -42.3830 C   0  0  2  0  0  0  0  0  0  0  0  0
    2.7000  -20.6600  -42.5170 C   0  0  0  0  0  0  0  0  0  0  0  0
    6.4410  -20.4350  -42.7190 S   0  0  0  0  0  0  0  0  0  0  0  0
    4.3500  -21.7810  -43.7130 C   0  0  0  0  0  2  0  0  0  0  0  0
    4.9890  -22.3610  -41.3780 C   0  0  0  0  0  1  0  0  0  0  0  0
    5.9510  -18.8190  -41.9970 C   0  0  0  0  0  2  0  0  0  0  0  0
    2.8570  -21.8400  -43.3630 C   0  0  0  0  0  2  0  0  0  0  0  0
    1.5770  -20.1410  -42.2390 O   0  0  0  0  0  0  0  0  0  0  0  0
    0.2790  -16.7860  -37.1810 S   0  0  0  0  0  0  0  0  0  0  0  0
   -0.9620  -16.8100  -38.0160 O   0  0  0  0  0  0  0  0  0  0  0  0
   -0.1640  -16.9050  -35.7430 O   0  0  0  0  0  0  0  0  0  0  0  0
    1.1040  -15.2370  -37.3250 C   0  0  0  0  0  0  0  0  0  0  0  0
    1.2060  -14.3950  -36.2390 C   0  0  0  0  0  3  0  0  0  0  0  0
    1.8420  -13.1780  -36.3180 C   0  0  0  0  0  3  0  0  0  0  0  0
    2.4130  -12.7410  -37.5000 C   0  0  0  0  0  0  0  0  0  0  0  0
    2.2940  -13.6090  -38.5720 C   0  0  0  0  0  3  0  0  0  0  0  0
    3.2300  -11.1980  -37.6360 Cl  0  0  0  0  0  0  0  0  0  0  0  0
    1.6630  -14.8260  -38.5080 C   0  0  0  0  0  3  0  0  0  0  0  0
  1 19  1  0  0  0  0
  1  2  1  0  0  0  0
  3  2  1  0  0  0  0
  4  3  1  0  0  0  0
  5  4  1  0  0  0  0
  5  6  1  0  0  0  0
  6  1  1  0  0  0  0
  7  8  2  0  0  0  0
  7  4  1  0  0  0  0
  9  7  1  1  0  0  0
 10  9  1  0  0  0  0
 11 10  1  0  0  0  0
 11 15  1  1  0  0  0
 12 18  2  0  0  0  0
 12 10  1  0  0  0  0
 13 11  1  0  0  0  0
 13 16  1  0  0  0  0
 14 17  1  0  0  0  0
 14 11  1  0  0  0  0
 16  9  1  0  0  0  0
 17 12  1  0  0  0  0
 19 21  2  0  0  0  0
 20 19  2  0  0  0  0
 22 19  1  0  0  0  0
 22 23  1  0  0  0  0
 24 23  2  0  0  0  0
 25 24  1  0  0  0  0
 26 28  1  0  0  0  0
 26 25  2  0  0  0  0
 27 25  1  0  0  0  0
 28 22  2  0  0  0  0
M  END
>  <Pose>
1

>  <Score>
-6.119

$$$$
