MODEL 1
REMARK VINA RESULT:    -6.119      0.000      0.000
REMARK INTER + INTRA:          -7.994
REMARK INTER:                  -7.193
REMARK INTRA:                  -0.801
REMARK UNBOUND:                -0.801
REMARK  3 active torsions:
REMARK  status: ('A' for Active; 'I' for Inactive)
REMARK    1  A    between atoms: S_1  and  N_4 
REMARK    2  A    between atoms: S_1  and  C_22 
REMARK       I    between atoms: N_7  and  C_10 
REMARK    3  A    between atoms: C_10  and  C_12 
ROOT
ATOM      1  N   UNK d   1       1.281 -18.107 -37.542  0.00  0.00    -0.304 N 
ATOM      2  C   UNK d   1       2.576 -18.069 -36.977  0.00  0.00     0.155 C 
ATOM      3  C   UNK d   1       3.617 -18.865 -37.719  0.00  0.00     0.146 C 
ATOM      4  N   UNK d   1       3.530 -18.718 -39.145  0.00  0.00    -0.347 N 
ATOM      5  C   UNK d   1       2.345 -18.083 -39.665  0.00  0.00     0.146 C 
ATOM      6  C   UNK d   1       1.168 -18.625 -38.860  0.00  0.00     0.155 C 
ATOM      7  C   UNK d   1       4.568 -19.187 -39.967  0.00  0.00     0.243 C 
ATOM      8  O   UNK d   1       5.552 -19.738 -39.398  0.00  0.00    -0.271 OA
ENDROOT
BRANCH   7   9
ATOM      9  C   UNK d   1       4.578 -19.073 -41.452  0.00  0.00     0.190 C 
ATOM     10  N   UNK d   1       4.000 -20.209 -42.071  0.00  0.00    -0.320 N 
ATOM     11  C   UNK d   1       4.884 -21.284 -42.383  0.00  0.00     0.081 C 
ATOM     12  C   UNK d   1       2.700 -20.660 -42.517  0.00  0.00     0.222 C 
ATOM     13  S   UNK d   1       6.441 -20.435 -42.719  0.00  0.00    -0.135 SA
ATOM     14  C   UNK d   1       4.350 -21.781 -43.713  0.00  0.00     0.051 C 
ATOM     15  C   UNK d   1       4.989 -22.361 -41.378  0.00  0.00     0.051 C 
ATOM     16  C   UNK d   1       5.951 -18.819 -41.997  0.00  0.00     0.111 C 
ATOM     17  C   UNK d   1       2.857 -21.840 -43.363  0.00  0.00     0.106 C 
ATOM     18  O   UNK d   1       1.577 -20.141 -42.239  0.00  0.00    -0.273 OA
ENDBRANCH   7   9
BRANCH   1  19
ATOM     19  S   UNK d   1       0.279 -16.786 -37.181  0.00  0.00     0.260 S 
ATOM     20  O   UNK d   1      -0.962 -16.810 -38.016  0.00  0.00    -0.200 OA
ATOM     21  O   UNK d   1      -0.164 -16.905 -35.743  0.00  0.00    -0.200 OA
BRANCH  19  22
ATOM     22  C   UNK d   1       1.104 -15.237 -37.325  0.00  0.00     0.079 A 
ATOM     23  C   UNK d   1       1.206 -14.395 -36.239  0.00  0.00     0.027 A 
ATOM     24  C   UNK d   1       1.842 -13.178 -36.318  0.00  0.00     0.025 A 
ATOM     25  C   UNK d   1       2.413 -12.741 -37.500  0.00  0.00     0.034 A 
ATOM     26  C   UNK d   1       2.294 -13.609 -38.572  0.00  0.00     0.025 A 
ATOM     27 Cl   UNK d   1       3.230 -11.198 -37.636  0.00  0.00    -0.084 Cl
ATOM     28  C   UNK d   1       1.663 -14.826 -38.508  0.00  0.00     0.027 A 
ENDBRANCH  19  22
ENDBRANCH   1  19
TORSDOF 3
ENDMDL
