MODEL 1
REMARK VINA RESULT:    -7.325      0.000      0.000
REMARK INTER + INTRA:          -9.736
REMARK INTER:                  -9.038
REMARK INTRA:                  -0.698
REMARK UNBOUND:                -0.698
REMARK  4 active torsions:
REMARK  status: ('A' for Active; 'I' for Inactive)
REMARK    1  A    between atoms: N_10  and  N_11 
REMARK       I    between atoms: N_11  and  C_12 
REMARK    2  A    between atoms: C_12  and  C_14 
REMARK    3  A    between atoms: C_14  and  N_15 
REMARK       I    between atoms: N_15  and  C_16 
REMARK    4  A    between atoms: C_16  and  C_18 
ROOT
ATOM      1  N   UNK d   1       3.473 -19.976 -37.522  0.00  0.00    -0.245 N 
ATOM      2  C   UNK d   1       2.570 -18.890 -37.500  0.00  0.00     0.255 C 
ATOM      3  O   UNK d   1       1.773 -18.710 -38.445  0.00  0.00    -0.270 OA
ATOM      4  H   UNK d   1       4.163 -20.187 -36.770  0.00  0.00     0.192 HD
ENDROOT
BRANCH   2   5
ATOM      5  C   UNK d   1       2.518 -17.914 -36.366  0.00  0.00     0.227 C 
BRANCH   5   6
ATOM      6  N   UNK d   1       2.184 -16.590 -36.812  0.00  0.00    -0.350 N 
ATOM      7  C   UNK d   1       0.970 -15.940 -36.460  0.00  0.00     0.249 C 
ATOM      8  O   UNK d   1       0.159 -16.552 -35.731  0.00  0.00    -0.271 OA
ATOM      9  H   UNK d   1       2.835 -16.041 -37.422  0.00  0.00     0.163 HD
BRANCH   7  10
ATOM     10  C   UNK d   1       0.608 -14.565 -36.918  0.00  0.00     0.244 C 
ATOM     11  O   UNK d   1       0.981 -14.341 -38.245  0.00  0.00    -0.331 OA
ATOM     12  C   UNK d   1       2.007 -13.491 -38.651  0.00  0.00     0.103 A 
ATOM     13  C   UNK d   1       2.427 -12.550 -37.749  0.00  0.00     0.102 A 
ATOM     14  C   UNK d   1       2.587 -13.561 -39.882  0.00  0.00     0.040 A 
ATOM     15  C   UNK d   1       3.452 -11.683 -38.129  0.00  0.00     0.039 A 
ATOM     16  O   UNK d   1       1.841 -12.483 -36.515  0.00  0.00    -0.345 OA
ATOM     17  C   UNK d   1       4.048 -11.742 -39.369  0.00  0.00     0.003 A 
ATOM     18  C   UNK d   1       3.598 -12.704 -40.252  0.00  0.00     0.003 A 
ATOM     19  C   UNK d   1       1.059 -13.510 -35.971  0.00  0.00     0.218 C 
ENDBRANCH   7  10
ENDBRANCH   5   6
ENDBRANCH   2   5
BRANCH   1  20
ATOM     20  N   UNK d   1       3.445 -20.831 -38.628  0.00  0.00    -0.166 NA
ATOM     21  C   UNK d   1       4.376 -20.858 -39.507  0.00  0.00     0.157 A 
ATOM     22  C   UNK d   1       4.512 -21.671 -40.706  0.00  0.00     0.029 A 
ATOM     23  C   UNK d   1       5.571 -20.008 -39.467  0.00  0.00     0.277 A 
ATOM     24  C   UNK d   1       5.685 -21.375 -41.378  0.00  0.00     0.065 A 
ATOM     25  C   UNK d   1       3.711 -22.642 -41.268  0.00  0.00     0.035 A 
ATOM     26  C   UNK d   1       6.043 -22.010 -42.549  0.00  0.00     0.040 A 
ATOM     27  N   UNK d   1       6.323 -20.358 -40.612  0.00  0.00    -0.320 N 
ATOM     28 Br   UNK d   1       7.668 -21.586 -43.468  0.00  0.00    -0.049 Br
ATOM     29  C   UNK d   1       5.212 -22.989 -43.094  0.00  0.00     0.040 A 
ATOM     30  C   UNK d   1       4.034 -23.298 -42.434  0.00  0.00     0.013 A 
ATOM     31 Br   UNK d   1       2.877 -24.635 -43.160  0.00  0.00    -0.051 Br
ATOM     32  H   UNK d   1       7.229 -19.928 -40.865  0.00  0.00     0.169 HD
ATOM     33  O   UNK d   1       5.803 -19.164 -38.560  0.00  0.00    -0.266 OA
ENDBRANCH   1  20
TORSDOF 4
ENDMDL
