MODEL 1
REMARK VINA RESULT:    -7.175      0.000      0.000
REMARK INTER + INTRA:         -10.096
REMARK INTER:                  -9.272
REMARK INTRA:                  -0.824
REMARK UNBOUND:                -0.824
REMARK  5 active torsions:
REMARK  status: ('A' for Active; 'I' for Inactive)
REMARK    1  A    between atoms: C_3  and  C_13 
REMARK    2  A    between atoms: C_5  and  C_8 
REMARK       I    between atoms: C_13  and  N_15 
REMARK    3  A    between atoms: N_15  and  C_16 
REMARK    4  A    between atoms: C_16  and  C_17 
REMARK    5  A    between atoms: C_17  and  C_18 
ROOT
ATOM      1  C   UNK d   1       1.343 -16.695 -36.441  0.00  0.00     0.253 C 
ATOM      2  O   UNK d   1       0.841 -16.864 -35.306  0.00  0.00    -0.268 OA
ATOM      3  N   UNK d   1       1.569 -15.397 -36.904  0.00  0.00    -0.356 N 
ATOM      4  H   UNK d   1       2.016 -15.365 -37.888  0.00  0.00     0.162 HD
ENDROOT
BRANCH   1   5
ATOM      5  C   UNK d   1       1.667 -17.904 -37.220  0.00  0.00     0.054 A 
ATOM      6  C   UNK d   1       0.694 -18.643 -37.860  0.00  0.00     0.049 A 
ATOM      7 Cl   UNK d   1      -0.969 -18.092 -37.718  0.00  0.00    -0.083 Cl
ATOM      8  C   UNK d   1       1.000 -19.785 -38.595  0.00  0.00     0.026 A 
ATOM      9  C   UNK d   1       2.309 -20.182 -38.682  0.00  0.00     0.017 A 
ATOM     10  C   UNK d   1       3.333 -19.467 -38.051  0.00  0.00     0.016 A 
ATOM     11  C   UNK d   1       2.965 -18.353 -37.343  0.00  0.00     0.034 A 
BRANCH  10  12
ATOM     12  C   UNK d   1       4.711 -19.924 -38.168  0.00  0.00     0.197 A 
ATOM     13  N   UNK d   1       5.848 -19.262 -37.935  0.00  0.00    -0.139 NA
ATOM     14  N   UNK d   1       6.885 -20.082 -38.172  0.00  0.00    -0.200 N 
ATOM     15  N   UNK d   1       6.407 -21.253 -38.552  0.00  0.00     0.022 NA
ATOM     16  H   UNK d   1       7.902 -19.853 -38.078  0.00  0.00     0.208 HD
ATOM     17  N   UNK d   1       5.076 -21.158 -38.549  0.00  0.00    -0.136 NA
ENDBRANCH  10  12
ENDBRANCH   1   5
BRANCH   3  18
ATOM     18  C   UNK d   1       1.316 -14.146 -36.315  0.00  0.00     0.130 C 
BRANCH  18  19
ATOM     19  C   UNK d   1       1.839 -12.909 -36.908  0.00  0.00     0.100 C 
BRANCH  19  20
ATOM     20  C   UNK d   1       2.364 -12.926 -38.271  0.00  0.00     0.136 A 
ATOM     21  N   UNK d   1       3.350 -12.178 -38.777  0.00  0.00    -0.292 N 
ATOM     22  C   UNK d   1       3.541 -12.538 -40.036  0.00  0.00     0.157 A 
ATOM     23  C   UNK d   1       4.103 -11.203 -38.231  0.00  0.00     0.100 A 
ATOM     24  N   UNK d   1       2.668 -13.515 -40.317  0.00  0.00    -0.130 NA
ATOM     25  C   UNK d   1       4.495 -11.951 -40.839  0.00  0.00     0.053 A 
ATOM     26  N   UNK d   1       1.959 -13.747 -39.246  0.00  0.00    -0.134 NA
ATOM     27  C   UNK d   1       5.267 -10.950 -40.278  0.00  0.00     0.005 A 
ATOM     28  C   UNK d   1       5.063 -10.584 -38.976  0.00  0.00     0.018 A 
ENDBRANCH  19  20
ENDBRANCH  18  19
ENDBRANCH   3  18
TORSDOF 5
ENDMDL
