/Users/jonathanwahrer/Desktop/Msc/3_Semester/Drug_Design_Praktikum/waehrer_HTS_screening/HTS_experiment/out/docking_results/vina_output/6y4q/2330_docked.pdbqt
 OpenBabel03232219053D

 28 31  0  0  0  0  0  0  0  0999 V2000
    1.3430  -16.6950  -36.4410 C   0  0  0  0  0  0  0  0  0  0  0  0
    0.8410  -16.8640  -35.3060 O   0  0  0  0  0  0  0  0  0  0  0  0
    1.5690  -15.3970  -36.9040 N   0  0  0  0  0  0  0  0  0  0  0  0
    2.0160  -15.3650  -37.8880 H   0  0  0  0  0  0  0  0  0  0  0  0
    1.6670  -17.9040  -37.2200 C   0  0  0  0  0  0  0  0  0  0  0  0
    0.6940  -18.6430  -37.8600 C   0  0  0  0  0  0  0  0  0  0  0  0
   -0.9690  -18.0920  -37.7180 Cl  0  0  0  0  0  0  0  0  0  0  0  0
    1.0000  -19.7850  -38.5950 C   0  0  0  0  0  3  0  0  0  0  0  0
    2.3090  -20.1820  -38.6820 C   0  0  0  0  0  3  0  0  0  0  0  0
    3.3330  -19.4670  -38.0510 C   0  0  0  0  0  0  0  0  0  0  0  0
    2.9650  -18.3530  -37.3430 C   0  0  0  0  0  3  0  0  0  0  0  0
    4.7110  -19.9240  -38.1680 C   0  0  0  0  0  0  0  0  0  0  0  0
    5.8480  -19.2620  -37.9350 N   0  0  0  0  0  0  0  0  0  0  0  0
    6.8850  -20.0820  -38.1720 N   0  0  0  0  0  0  0  0  0  0  0  0
    6.4070  -21.2530  -38.5520 N   0  0  0  0  0  0  0  0  0  0  0  0
    7.9020  -19.8530  -38.0780 H   0  0  0  0  0  0  0  0  0  0  0  0
    5.0760  -21.1580  -38.5490 N   0  0  0  0  0  0  0  0  0  0  0  0
    1.3160  -14.1460  -36.3150 C   0  0  0  0  0  3  0  0  0  0  0  0
    1.8390  -12.9090  -36.9080 C   0  0  0  0  0  3  0  0  0  0  0  0
    2.3640  -12.9260  -38.2710 C   0  0  0  0  0  0  0  0  0  0  0  0
    3.3500  -12.1780  -38.7770 N   0  0  0  0  0  0  0  0  0  0  0  0
    3.5410  -12.5380  -40.0360 C   0  0  0  0  0  0  0  0  0  0  0  0
    4.1030  -11.2030  -38.2310 C   0  0  0  0  0  3  0  0  0  0  0  0
    2.6680  -13.5150  -40.3170 N   0  0  0  0  0  0  0  0  0  0  0  0
    4.4950  -11.9510  -40.8390 C   0  0  0  0  0  3  0  0  0  0  0  0
    1.9590  -13.7470  -39.2460 N   0  0  0  0  0  0  0  0  0  0  0  0
    5.2670  -10.9500  -40.2780 C   0  0  0  0  0  3  0  0  0  0  0  0
    5.0630  -10.5840  -38.9760 C   0  0  0  0  0  3  0  0  0  0  0  0
  1  2  2  0  0  0  0
  3  1  1  0  0  0  0
  3 18  1  0  0  0  0
  4  3  1  0  0  0  0
  5  1  1  0  0  0  0
  6  7  1  0  0  0  0
  6  5  2  0  0  0  0
  8  6  1  0  0  0  0
  9  8  2  0  0  0  0
  9 10  1  0  0  0  0
 10 11  2  0  0  0  0
 11  5  1  0  0  0  0
 12 10  1  0  0  0  0
 12 13  2  0  0  0  0
 14 16  1  0  0  0  0
 14 13  1  0  0  0  0
 15 17  2  0  0  0  0
 15 14  1  0  0  0  0
 17 12  1  0  0  0  0
 19 18  2  0  0  0  0
 20 19  1  0  0  0  0
 21 20  1  0  0  0  0
 21 23  1  0  0  0  0
 22 21  1  0  0  0  0
 24 22  2  0  0  0  0
 24 26  1  0  0  0  0
 25 27  2  0  0  0  0
 25 22  1  0  0  0  0
 26 20  2  0  0  0  0
 27 28  1  0  0  0  0
 28 23  2  0  0  0  0
M  END
>  <Pose>
1

>  <Score>
-7.175

$$$$
