MODEL 1
REMARK VINA RESULT:    -6.960      0.000      0.000
REMARK INTER + INTRA:          -9.053
REMARK INTER:                  -8.587
REMARK INTRA:                  -0.466
REMARK UNBOUND:                -0.466
REMARK  4 active torsions:
REMARK  status: ('A' for Active; 'I' for Inactive)
REMARK    1  A    between atoms: S_1  and  N_4 
REMARK    2  A    between atoms: S_1  and  C_18 
REMARK    3  A    between atoms: C_6  and  C_10 
REMARK       I    between atoms: C_10  and  N_12 
REMARK    4  A    between atoms: C_22  and  C_24 
ROOT
ATOM      1  S   UNK d   1       0.115 -15.980 -39.618  0.00  0.00     0.245 S 
ATOM      2  O   UNK d   1       0.796 -15.622 -40.941  0.00  0.00    -0.206 OA
ATOM      3  O   UNK d   1      -1.366 -15.673 -39.868  0.00  0.00    -0.206 OA
ENDROOT
BRANCH   1   4
ATOM      4  N   UNK d   1       0.335 -17.646 -39.397  0.00  0.00    -0.206 NA
ATOM      5  C   UNK d   1       1.197 -18.042 -38.342  0.00  0.00     0.121 C 
ATOM      6  C   UNK d   1       1.311 -19.541 -38.194  0.00  0.00     0.092 C 
ATOM      7  C   UNK d   1      -0.037 -20.151 -38.023  0.00  0.00     0.016 C 
ATOM      8  C   UNK d   1      -1.011 -19.672 -39.086  0.00  0.00     0.016 C 
ATOM      9  C   UNK d   1      -1.010 -18.183 -39.103  0.00  0.00     0.107 C 
BRANCH   6  10
ATOM     10  C   UNK d   1       2.165 -20.186 -39.212  0.00  0.00     0.225 C 
ATOM     11  O   UNK d   1       1.594 -20.398 -40.346  0.00  0.00    -0.273 OA
ATOM     12  N   UNK d   1       3.490 -20.576 -39.082  0.00  0.00    -0.348 N 
ATOM     13  C   UNK d   1       4.214 -21.160 -40.168  0.00  0.00     0.152 C 
ATOM     14  C   UNK d   1       4.209 -20.432 -37.840  0.00  0.00     0.152 C 
ATOM     15  C   UNK d   1       5.662 -20.757 -40.215  0.00  0.00     0.187 C 
ATOM     16  O   UNK d   1       6.200 -20.361 -39.031  0.00  0.00    -0.388 OA
ATOM     17  C   UNK d   1       5.414 -19.560 -38.228  0.00  0.00     0.187 C 
ENDBRANCH   6  10
ENDBRANCH   1   4
BRANCH   1  18
ATOM     18  C   UNK d   1       0.667 -14.937 -38.376  0.00  0.00     0.097 A 
ATOM     19  C   UNK d   1       0.203 -15.007 -37.086  0.00  0.00     0.057 A 
ATOM     20  C   UNK d   1       0.737 -14.178 -36.111  0.00  0.00     0.026 A 
ATOM     21 Cl   UNK d   1      -1.115 -16.049 -36.591  0.00  0.00    -0.083 Cl
ATOM     22  C   UNK d   1       1.748 -13.260 -36.410  0.00  0.00     0.017 A 
ATOM     23  C   UNK d   1       2.221 -13.177 -37.700  0.00  0.00     0.016 A 
ATOM     24  C   UNK d   1       1.678 -14.008 -38.652  0.00  0.00     0.042 A 
BRANCH  23  25
ATOM     25  C   UNK d   1       3.272 -12.228 -38.040  0.00  0.00     0.189 A 
ATOM     26  N   UNK d   1       3.885 -11.386 -37.191  0.00  0.00    -0.106 NA
ATOM     27  O   UNK d   1       4.775 -10.679 -37.831  0.00  0.00    -0.196 OA
ATOM     28  C   UNK d   1       4.771 -11.029 -39.089  0.00  0.00     0.169 A 
ATOM     29  N   UNK d   1       3.840 -11.992 -39.234  0.00  0.00    -0.204 NA
ATOM     30  C   UNK d   1       5.637 -10.470 -40.184  0.00  0.00     0.102 C 
ENDBRANCH  23  25
ENDBRANCH   1  18
TORSDOF 4
ENDMDL
