MODEL 1
REMARK VINA RESULT:    -6.118      0.000      0.000
REMARK INTER + INTRA:          -9.946
REMARK INTER:                  -8.622
REMARK INTRA:                  -1.324
REMARK UNBOUND:                -1.324
REMARK  7 active torsions:
REMARK  status: ('A' for Active; 'I' for Inactive)
REMARK    1  A    between atoms: S_1  and  N_4 
REMARK    2  A    between atoms: S_1  and  C_21 
REMARK    3  A    between atoms: C_6  and  C_10 
REMARK       I    between atoms: C_10  and  N_12 
REMARK    4  A    between atoms: N_12  and  C_13 
REMARK    5  A    between atoms: C_13  and  C_14 
REMARK    6  A    between atoms: C_14  and  N_15 
REMARK       I    between atoms: N_30  and  C_31 
REMARK    7  A    between atoms: C_31  and  C_33 
ROOT
ATOM      1  N   UNK d   1      -1.696 -19.446 -38.921  0.00  0.00    -0.306 N 
ATOM      2  C   UNK d   1      -2.118 -20.685 -38.398  0.00  0.00     0.149 C 
ATOM      3  C   UNK d   1      -1.620 -21.877 -39.186  0.00  0.00     0.096 C 
ATOM      4  C   UNK d   1      -1.367 -21.596 -40.618  0.00  0.00     0.017 C 
ATOM      5  C   UNK d   1      -1.966 -20.359 -41.180  0.00  0.00     0.021 C 
ATOM      6  C   UNK d   1      -1.985 -19.166 -40.258  0.00  0.00     0.135 C 
ENDROOT
BRANCH   1   7
ATOM      7  S   UNK d   1      -0.820 -18.399 -37.974  0.00  0.00     0.262 S 
ATOM      8  O   UNK d   1      -1.416 -18.396 -36.568  0.00  0.00    -0.200 OA
ATOM      9  O   UNK d   1      -1.069 -16.979 -38.468  0.00  0.00    -0.200 OA
BRANCH   7  10
ATOM     10  C   UNK d   1       0.885 -18.654 -37.900  0.00  0.00     0.099 A 
ATOM     11  C   UNK d   1       1.476 -19.644 -38.670  0.00  0.00     0.057 A 
ATOM     12  C   UNK d   1       2.830 -19.878 -38.658  0.00  0.00     0.045 A 
ATOM     13  C   UNK d   1       3.644 -19.089 -37.837  0.00  0.00    -0.028 A 
ATOM     14  N   UNK d   1       3.711 -20.778 -39.315  0.00  0.00    -0.317 N 
ATOM     15  C   UNK d   1       3.056 -18.124 -37.087  0.00  0.00     0.030 A 
ATOM     16  C   UNK d   1       5.067 -19.503 -37.968  0.00  0.00     0.061 C 
ATOM     17  C   UNK d   1       1.691 -17.888 -37.101  0.00  0.00     0.035 A 
ATOM     18 Br   UNK d   1       0.968 -16.488 -35.988  0.00  0.00    -0.049 Br
ATOM     19  C   UNK d   1       4.926 -20.914 -38.503  0.00  0.00     0.137 C 
ATOM     20  C   UNK d   1       3.520 -21.446 -40.523  0.00  0.00     0.224 C 
ATOM     21  O   UNK d   1       4.451 -22.187 -40.991  0.00  0.00    -0.273 OA
BRANCH  20  22
ATOM     22  C   UNK d   1       2.298 -21.360 -41.320  0.00  0.00     0.099 C 
ATOM     23  C   UNK d   1       2.044 -22.639 -42.115  0.00  0.00     0.014 C 
ENDBRANCH  20  22
ENDBRANCH   7  10
ENDBRANCH   1   7
BRANCH   3  24
ATOM     24  C   UNK d   1      -2.547 -23.029 -39.047  0.00  0.00     0.223 C 
ATOM     25  O   UNK d   1      -3.670 -22.952 -39.602  0.00  0.00    -0.273 OA
ATOM     26  N   UNK d   1      -2.154 -24.198 -38.293  0.00  0.00    -0.359 N 
ATOM     27  H   UNK d   1      -1.222 -24.154 -37.873  0.00  0.00     0.162 HD
BRANCH  26  28
ATOM     28  C   UNK d   1      -3.088 -25.260 -38.204  0.00  0.00     0.142 C 
BRANCH  28  29
ATOM     29  C   UNK d   1      -2.591 -26.656 -38.200  0.00  0.00     0.136 C 
BRANCH  29  30
ATOM     30  N   UNK d   1      -2.111 -27.223 -39.406  0.00  0.00    -0.407 N 
ATOM     31  C   UNK d   1      -0.741 -27.222 -39.638  0.00  0.00     0.143 C 
ATOM     32  C   UNK d   1      -0.253 -26.382 -40.783  0.00  0.00     0.187 C 
ATOM     33  O   UNK d   1      -1.095 -26.440 -41.884  0.00  0.00    -0.388 OA
ATOM     34  C   UNK d   1      -2.313 -25.896 -41.479  0.00  0.00     0.187 C 
ATOM     35  C   UNK d   1      -2.947 -26.893 -40.537  0.00  0.00     0.143 C 
ENDBRANCH  29  30
ENDBRANCH  28  29
ENDBRANCH  26  28
ENDBRANCH   3  24
TORSDOF 7
ENDMDL
