MODEL 1
REMARK VINA RESULT:    -7.204      0.000      0.000
REMARK INTER + INTRA:          -9.079
REMARK INTER:                  -8.467
REMARK INTRA:                  -0.611
REMARK UNBOUND:                -0.611
REMARK  3 active torsions:
REMARK  status: ('A' for Active; 'I' for Inactive)
REMARK    1  A    between atoms: C_5  and  N_8 
REMARK    2  A    between atoms: C_10  and  C_14 
REMARK       I    between atoms: C_14  and  N_16 
REMARK    3  A    between atoms: N_19  and  C_22 
ROOT
ATOM      1  C   UNK d   1       2.154 -17.801 -36.865  0.00  0.00     0.226 C 
ATOM      2  O   UNK d   1       2.839 -17.571 -35.799  0.00  0.00    -0.273 OA
ATOM      3  N   UNK d   1       2.465 -18.976 -37.557  0.00  0.00    -0.349 N 
ATOM      4  C   UNK d   1       3.518 -19.854 -37.073  0.00  0.00     0.146 C 
ATOM      5  C   UNK d   1       4.579 -20.060 -38.150  0.00  0.00     0.161 C 
ATOM      6  N   UNK d   1       3.944 -20.072 -39.435  0.00  0.00    -0.213 N 
ATOM      7  C   UNK d   1       2.571 -20.468 -39.519  0.00  0.00     0.161 C 
ATOM      8  C   UNK d   1       1.779 -19.385 -38.760  0.00  0.00     0.146 C 
ENDROOT
BRANCH   1   9
ATOM      9  C   UNK d   1       1.135 -16.807 -37.223  0.00  0.00     0.105 C 
ATOM     10  C   UNK d   1       1.545 -15.834 -38.293  0.00  0.00     0.146 C 
ATOM     11  N   UNK d   1       1.633 -14.528 -37.650  0.00  0.00    -0.317 N 
ATOM     12  C   UNK d   1       0.736 -14.599 -36.520  0.00  0.00     0.225 C 
ATOM     13  C   UNK d   1       0.582 -16.008 -36.090  0.00  0.00     0.119 C 
ATOM     14  O   UNK d   1       0.209 -13.542 -36.042  0.00  0.00    -0.273 OA
BRANCH  11  15
ATOM     15  C   UNK d   1       2.425 -13.409 -38.035  0.00  0.00     0.037 A 
ATOM     16  C   UNK d   1       2.835 -12.452 -37.132  0.00  0.00     0.031 A 
ATOM     17  C   UNK d   1       3.600 -11.362 -37.503  0.00  0.00     0.026 A 
ATOM     18  C   UNK d   1       3.982 -11.201 -38.808  0.00  0.00     0.034 A 
ATOM     19 Cl   UNK d   1       4.958  -9.817 -39.299  0.00  0.00    -0.084 Cl
ATOM     20  C   UNK d   1       3.593 -12.132 -39.731  0.00  0.00     0.026 A 
ATOM     21  C   UNK d   1       2.816 -13.233 -39.345  0.00  0.00     0.031 A 
ENDBRANCH  11  15
ENDBRANCH   1   9
BRANCH   6  22
ATOM     22  C   UNK d   1       4.650 -19.694 -40.596  0.00  0.00     0.704 A 
ATOM     23  N   UNK d   1       5.481 -20.479 -41.336  0.00  0.00    -0.195 N 
ATOM     24  C   UNK d   1       5.955 -19.764 -42.364  0.00  0.00     0.128 A 
ATOM     25  C   UNK d   1       5.806 -21.882 -41.047  0.00  0.00     0.175 C 
ATOM     26  C   UNK d   1       5.425 -18.498 -42.288  0.00  0.00     0.154 A 
ATOM     27  N   UNK d   1       4.650 -18.498 -41.217  0.00  0.00    -0.075 NA
ENDBRANCH   6  22
TORSDOF 3
ENDMDL
