/Users/jonathanwahrer/Desktop/Msc/3_Semester/Drug_Design_Praktikum/waehrer_HTS_screening/HTS_experiment/out/docking_results/vina_output/6y4q/2349_docked.pdbqt
 OpenBabel03232219063D

 28 31  0  0  1  0  0  0  0  0999 V2000
    1.0510  -17.8980  -37.9140 N   0  0  0  0  0  0  0  0  0  0  0  0
   -0.0410  -18.8260  -37.8560 C   0  0  0  0  0  0  0  0  0  0  0  0
    0.2110  -20.0640  -37.8800 O   0  0  0  0  0  0  0  0  0  0  0  0
   -1.3440  -18.2760  -37.7730 N   0  0  0  0  0  2  0  0  0  0  0  0
   -1.6140  -17.0460  -37.7560 C   0  0  0  0  0  0  0  0  0  0  0  0
   -0.6130  -15.9270  -37.8280 C   0  0  1  0  0  0  0  0  0  0  0  0
   -0.8970  -15.2510  -39.1400 C   0  0  0  0  0  2  0  0  0  0  0  0
   -0.5090  -13.9000  -39.2730 N   0  0  0  0  0  4  0  0  0  0  0  0
   -0.7250  -13.0740  -38.1440 C   0  0  0  0  0  0  0  0  0  0  0  0
   -0.8740  -13.6280  -36.9130 C   0  0  0  0  0  0  0  0  0  0  0  0
   -1.0830  -12.7830  -35.8270 C   0  0  0  0  0  3  0  0  0  0  0  0
   -1.1360  -11.4170  -36.0170 C   0  0  0  0  0  0  0  0  0  0  0  0
   -0.9850  -10.8520  -37.2740 C   0  0  0  0  0  3  0  0  0  0  0  0
   -0.7760  -11.7100  -38.3530 C   0  0  0  0  0  3  0  0  0  0  0  0
   -1.3700  -10.4820  -34.8700 C   0  0  0  0  0  1  0  0  0  0  0  0
   -0.8250  -15.0790  -36.6330 C   0  0  0  0  0  2  0  0  0  0  0  0
    0.8330  -13.6820  -39.7900 C   0  0  0  0  0  1  0  0  0  0  0  0
    0.7470  -16.5150  -37.8740 C   0  0  0  0  0  0  0  0  0  0  0  0
    1.7820  -15.7560  -37.8770 O   0  0  0  0  0  0  0  0  0  0  0  0
   -2.9510  -16.6150  -37.6640 O   0  0  0  0  0  0  0  0  0  0  0  0
   -1.1390  -13.4760  -40.0270 H   0  0  0  0  0  0  0  0  0  0  0  0
    2.3520  -18.4360  -38.0400 C   0  0  0  0  0  0  0  0  0  0  0  0
    3.1710  -18.6410  -36.9280 C   0  0  0  0  0  3  0  0  0  0  0  0
    4.4310  -19.1670  -37.0230 C   0  0  0  0  0  3  0  0  0  0  0  0
    4.9780  -19.5330  -38.2530 C   0  0  0  0  0  0  0  0  0  0  0  0
    6.5910  -20.2140  -38.3510 Cl  0  0  0  0  0  0  0  0  0  0  0  0
    4.1700  -19.3300  -39.3550 C   0  0  0  0  0  3  0  0  0  0  0  0
    2.9050  -18.8020  -39.2570 C   0  0  0  0  0  3  0  0  0  0  0  0
  1 18  1  0  0  0  0
  1  2  1  0  0  0  0
  2  4  1  0  0  0  0
  3  2  2  0  0  0  0
  4  5  1  0  0  0  0
  5 20  2  0  0  0  0
  6  7  1  6  0  0  0
  6  5  1  0  0  0  0
  6 16  1  0  0  0  0
  8  7  1  0  0  0  0
  8  9  1  0  0  0  0
  9 10  1  0  0  0  0
 10 16  1  0  0  0  0
 10 11  2  0  0  0  0
 12 11  1  0  0  0  0
 12 15  1  0  0  0  0
 13 12  2  0  0  0  0
 14  9  2  0  0  0  0
 14 13  1  0  0  0  0
 17  8  1  0  0  0  0
 18  6  1  0  0  0  0
 19 18  2  0  0  0  0
 21  8  1  0  0  0  0
 22  1  1  0  0  0  0
 22 23  1  0  0  0  0
 24 23  2  0  0  0  0
 25 24  1  0  0  0  0
 26 25  1  0  0  0  0
 27 28  1  0  0  0  0
 27 25  2  0  0  0  0
 28 22  2  0  0  0  0
M  END
>  <Pose>
1

>  <Score>
-6.482

$$$$
