MODEL 1
REMARK VINA RESULT:    -6.482      0.000      0.000
REMARK INTER + INTRA:          -7.112
REMARK INTER:                  -6.861
REMARK INTRA:                  -0.251
REMARK UNBOUND:                -0.251
REMARK  1 active torsions:
REMARK  status: ('A' for Active; 'I' for Inactive)
REMARK    1  A    between atoms: C_5  and  N_8 
ROOT
ATOM      1  N   UNK d   1       1.051 -17.898 -37.914  0.00  0.00    -0.231 N 
ATOM      2  C   UNK d   1      -0.041 -18.826 -37.856  0.00  0.00     0.357 A 
ATOM      3  O   UNK d   1       0.211 -20.064 -37.880  0.00  0.00    -0.244 OA
ATOM      4  N   UNK d   1      -1.344 -18.276 -37.773  0.00  0.00    -0.169 NA
ATOM      5  C   UNK d   1      -1.614 -17.046 -37.756  0.00  0.00     0.202 A 
ATOM      6  C   UNK d   1      -0.613 -15.927 -37.828  0.00  0.00     0.140 A 
ATOM      7  C   UNK d   1      -0.897 -15.251 -39.140  0.00  0.00     0.269 C 
ATOM      8  N   UNK d   1      -0.509 -13.900 -39.273  0.00  0.00    -0.043 N 
ATOM      9  C   UNK d   1      -0.725 -13.074 -38.144  0.00  0.00     0.140 A 
ATOM     10  C   UNK d   1      -0.874 -13.628 -36.913  0.00  0.00    -0.021 A 
ATOM     11  C   UNK d   1      -1.083 -12.783 -35.827  0.00  0.00     0.016 A 
ATOM     12  C   UNK d   1      -1.136 -11.417 -36.017  0.00  0.00    -0.061 A 
ATOM     13  C   UNK d   1      -0.985 -10.852 -37.274  0.00  0.00     0.009 A 
ATOM     14  C   UNK d   1      -0.776 -11.710 -38.353  0.00  0.00     0.038 A 
ATOM     15  C   UNK d   1      -1.370 -10.482 -34.870  0.00  0.00     0.048 C 
ATOM     16  C   UNK d   1      -0.825 -15.079 -36.633  0.00  0.00     0.070 C 
ATOM     17  C   UNK d   1       0.833 -13.682 -39.790  0.00  0.00     0.276 C 
ATOM     18  C   UNK d   1       0.747 -16.515 -37.874  0.00  0.00     0.251 A 
ATOM     19  O   UNK d   1       1.782 -15.756 -37.877  0.00  0.00    -0.271 OA
ATOM     20  O   UNK d   1      -2.951 -16.615 -37.664  0.00  0.00    -0.173 OA
ATOM     21  H   UNK d   1      -1.139 -13.476 -40.027  0.00  0.00     0.286 HD
ENDROOT
BRANCH   1  22
ATOM     22  C   UNK d   1       2.352 -18.436 -38.040  0.00  0.00     0.047 A 
ATOM     23  C   UNK d   1       3.171 -18.641 -36.928  0.00  0.00     0.032 A 
ATOM     24  C   UNK d   1       4.431 -19.167 -37.023  0.00  0.00     0.026 A 
ATOM     25  C   UNK d   1       4.978 -19.533 -38.253  0.00  0.00     0.034 A 
ATOM     26 Cl   UNK d   1       6.591 -20.214 -38.351  0.00  0.00    -0.084 Cl
ATOM     27  C   UNK d   1       4.170 -19.330 -39.355  0.00  0.00     0.026 A 
ATOM     28  C   UNK d   1       2.905 -18.802 -39.257  0.00  0.00     0.032 A 
ENDBRANCH   1  22
TORSDOF 1
ENDMDL
