MODEL 1
REMARK VINA RESULT:    -5.817      0.000      0.000
REMARK INTER + INTRA:          -6.833
REMARK INTER:                  -6.497
REMARK INTRA:                  -0.336
REMARK UNBOUND:                -0.336
REMARK  3 active torsions:
REMARK  status: ('A' for Active; 'I' for Inactive)
REMARK    1  A    between atoms: C_5  and  N_8 
REMARK    2  A    between atoms: C_13  and  O_21 
REMARK    3  A    between atoms: C_14  and  O_20 
ROOT
ATOM      1  N   UNK d   1       2.758 -18.878 -37.815  0.00  0.00    -0.252 N 
ATOM      2  C   UNK d   1       2.308 -19.993 -38.601  0.00  0.00     0.236 C 
ATOM      3  O   UNK d   1       1.190 -20.028 -39.173  0.00  0.00    -0.272 OA
ATOM      4  C   UNK d   1       3.335 -21.065 -38.629  0.00  0.00     0.099 C 
ATOM      5  C   UNK d   1       3.897 -21.324 -39.989  0.00  0.00     0.031 C 
ATOM      6  C   UNK d   1       3.850 -20.017 -40.754  0.00  0.00     0.152 C 
ATOM      7  C   UNK d   1       4.837 -19.165 -39.957  0.00  0.00     0.152 C 
ATOM      8  C   UNK d   1       5.446 -20.086 -38.926  0.00  0.00     0.031 C 
ATOM      9  C   UNK d   1       4.498 -20.461 -37.832  0.00  0.00     0.099 C 
ATOM     10  C   UNK d   1       3.912 -19.306 -37.110  0.00  0.00     0.236 C 
ATOM     11  O   UNK d   1       4.386 -18.817 -36.055  0.00  0.00    -0.272 OA
ATOM     12  C   UNK d   1       5.413 -21.398 -39.743  0.00  0.00     0.016 C 
ENDROOT
BRANCH   1  13
ATOM     13  C   UNK d   1       2.203 -17.573 -37.723  0.00  0.00     0.045 A 
ATOM     14  C   UNK d   1       2.063 -16.777 -38.866  0.00  0.00     0.032 A 
ATOM     15  C   UNK d   1       1.535 -15.511 -38.782  0.00  0.00     0.026 A 
ATOM     16  C   UNK d   1       1.124 -14.980 -37.573  0.00  0.00     0.034 A 
ATOM     17 Cl   UNK d   1       0.454 -13.353 -37.494  0.00  0.00    -0.084 Cl
ATOM     18  C   UNK d   1       1.252 -15.750 -36.426  0.00  0.00     0.026 A 
ATOM     19  C   UNK d   1       1.784 -17.012 -36.539  0.00  0.00     0.032 A 
ENDBRANCH   1  13
BRANCH   6  20
ATOM     20  O   UNK d   1       4.400 -20.237 -41.998  0.00  0.00    -0.393 OA
ATOM     21  H   UNK d   1       5.191 -19.688 -42.208  0.00  0.00     0.210 HD
ENDBRANCH   6  20
BRANCH   7  22
ATOM     22  O   UNK d   1       5.890 -18.737 -40.763  0.00  0.00    -0.393 OA
ATOM     23  H   UNK d   1       5.978 -19.401 -41.512  0.00  0.00     0.210 HD
ENDBRANCH   7  22
TORSDOF 3
ENDMDL
