MODEL 1
REMARK VINA RESULT:    -6.679      0.000      0.000
REMARK INTER + INTRA:          -9.965
REMARK INTER:                  -8.827
REMARK INTRA:                  -1.138
REMARK UNBOUND:                -1.138
REMARK  6 active torsions:
REMARK  status: ('A' for Active; 'I' for Inactive)
REMARK    1  A    between atoms: C_5  and  N_8 
REMARK    2  A    between atoms: C_14  and  C_17 
REMARK    3  A    between atoms: C_19  and  C_22 
REMARK    4  A    between atoms: C_24  and  O_31 
REMARK    5  A    between atoms: C_25  and  O_30 
REMARK    6  A    between atoms: C_26  and  O_28 
ROOT
ATOM      1  C   UNK d   1      -0.249 -14.476 -36.660  0.00  0.00     0.041 C 
ATOM      2  C   UNK d   1       1.029 -14.562 -36.345  0.00  0.00     0.026 C 
ATOM      3  C   UNK d   1       1.581 -13.209 -36.086  0.00  0.00     0.134 C 
ATOM      4  N   UNK d   1       0.401 -12.428 -35.841  0.00  0.00    -0.228 NA
ATOM      5  N   UNK d   1      -0.570 -13.090 -36.607  0.00  0.00    -0.323 N 
ATOM      6  H   UNK d   1       0.486 -11.433 -36.041  0.00  0.00     0.147 HD
ATOM      7  H   UNK d   1      -1.385 -12.627 -37.055  0.00  0.00     0.180 HD
ENDROOT
BRANCH   1   8
ATOM      8  C   UNK d   1      -1.194 -15.595 -36.998  0.00  0.00     0.221 C 
ATOM      9  C   UNK d   1      -1.862 -15.332 -38.293  0.00  0.00     0.244 C 
ATOM     10  N   UNK d   1      -1.256 -15.758 -39.497  0.00  0.00    -0.277 N 
ATOM     11  O   UNK d   1      -2.954 -14.733 -38.309  0.00  0.00    -0.272 OA
ATOM     12  C   UNK d   1      -0.239 -16.718 -39.485  0.00  0.00     0.336 C 
ATOM     13  H   UNK d   1      -1.553 -15.366 -40.437  0.00  0.00     0.173 HD
ATOM     14  N   UNK d   1       0.210 -17.289 -38.264  0.00  0.00    -0.233 N 
ATOM     15  O   UNK d   1       0.327 -17.123 -40.560  0.00  0.00    -0.246 OA
ATOM     16  C   UNK d   1      -0.408 -16.851 -37.064  0.00  0.00     0.251 C 
ATOM     17  O   UNK d   1      -0.292 -17.535 -36.033  0.00  0.00    -0.271 OA
BRANCH  14  18
ATOM     18  C   UNK d   1       1.244 -18.263 -38.273  0.00  0.00     0.047 A 
ATOM     19  C   UNK d   1       2.478 -17.974 -37.749  0.00  0.00     0.032 A 
ATOM     20  C   UNK d   1       3.501 -18.900 -37.740  0.00  0.00     0.026 A 
ATOM     21  C   UNK d   1       3.303 -20.152 -38.266  0.00  0.00     0.034 A 
ATOM     22 Cl   UNK d   1       4.600 -21.354 -38.266  0.00  0.00    -0.084 Cl
ATOM     23  C   UNK d   1       2.074 -20.463 -38.797  0.00  0.00     0.026 A 
ATOM     24  C   UNK d   1       1.046 -19.511 -38.796  0.00  0.00     0.032 A 
ENDBRANCH  14  18
ENDBRANCH   1   8
BRANCH   3  25
ATOM     25  C   UNK d   1       2.359 -12.791 -37.247  0.00  0.00    -0.030 A 
ATOM     26  C   UNK d   1       3.157 -11.673 -37.135  0.00  0.00     0.049 A 
ATOM     27  C   UNK d   1       3.933 -11.199 -38.173  0.00  0.00     0.104 A 
ATOM     28  C   UNK d   1       3.894 -11.898 -39.387  0.00  0.00     0.133 A 
ATOM     29  C   UNK d   1       3.111 -13.020 -39.548  0.00  0.00     0.104 A 
ATOM     30  C   UNK d   1       2.362 -13.435 -38.465  0.00  0.00     0.049 A 
BRANCH  27  31
ATOM     31  O   UNK d   1       4.741 -10.074 -38.070  0.00  0.00    -0.353 OA
ATOM     32  C   UNK d   1       4.104  -8.862 -37.722  0.00  0.00     0.210 C 
ENDBRANCH  27  31
BRANCH  28  33
ATOM     33  O   UNK d   1       4.650 -11.465 -40.453  0.00  0.00    -0.356 OA
ATOM     34  H   UNK d   1       4.354 -11.672 -41.397  0.00  0.00     0.218 HD
ENDBRANCH  28  33
BRANCH  29  35
ATOM     35  O   UNK d   1       3.108 -13.662 -40.750  0.00  0.00    -0.353 OA
ATOM     36  C   UNK d   1       1.987 -14.109 -41.456  0.00  0.00     0.210 C 
ENDBRANCH  29  35
ENDBRANCH   3  25
TORSDOF 6
ENDMDL
