/Users/jonathanwahrer/Desktop/Msc/3_Semester/Drug_Design_Praktikum/waehrer_HTS_screening/HTS_experiment/out/docking_results/vina_output/6y4q/2357_docked.pdbqt
 OpenBabel03232219063D

 36 39  0  0  1  0  0  0  0  0999 V2000
   -0.2490  -14.4760  -36.6600 C   0  0  2  0  0  3  0  0  0  0  0  0
    1.0290  -14.5620  -36.3450 C   0  0  0  0  0  2  0  0  0  0  0  0
    1.5810  -13.2090  -36.0860 C   0  0  2  0  0  3  0  0  0  0  0  0
    0.4010  -12.4280  -35.8410 N   0  0  0  0  0  0  0  0  0  0  0  0
   -0.5700  -13.0900  -36.6070 N   0  0  0  0  0  0  0  0  0  0  0  0
    0.4860  -11.4330  -36.0410 H   0  0  0  0  0  0  0  0  0  0  0  0
   -1.3850  -12.6270  -37.0550 H   0  0  0  0  0  0  0  0  0  0  0  0
   -1.1940  -15.5950  -36.9980 C   0  0  1  0  0  3  0  0  0  0  0  0
   -1.8620  -15.3320  -38.2930 C   0  0  0  0  0  0  0  0  0  0  0  0
   -1.2560  -15.7580  -39.4970 N   0  0  0  0  0  0  0  0  0  0  0  0
   -2.9540  -14.7330  -38.3090 O   0  0  0  0  0  0  0  0  0  0  0  0
   -0.2390  -16.7180  -39.4850 C   0  0  0  0  0  0  0  0  0  0  0  0
   -1.5530  -15.3660  -40.4370 H   0  0  0  0  0  0  0  0  0  0  0  0
    0.2100  -17.2890  -38.2640 N   0  0  0  0  0  0  0  0  0  0  0  0
    0.3270  -17.1230  -40.5600 O   0  0  0  0  0  0  0  0  0  0  0  0
   -0.4080  -16.8510  -37.0640 C   0  0  0  0  0  0  0  0  0  0  0  0
   -0.2920  -17.5350  -36.0330 O   0  0  0  0  0  0  0  0  0  0  0  0
    1.2440  -18.2630  -38.2730 C   0  0  0  0  0  0  0  0  0  0  0  0
    2.4780  -17.9740  -37.7490 C   0  0  0  0  0  3  0  0  0  0  0  0
    3.5010  -18.9000  -37.7400 C   0  0  0  0  0  3  0  0  0  0  0  0
    3.3030  -20.1520  -38.2660 C   0  0  0  0  0  0  0  0  0  0  0  0
    4.6000  -21.3540  -38.2660 Cl  0  0  0  0  0  0  0  0  0  0  0  0
    2.0740  -20.4630  -38.7970 C   0  0  0  0  0  3  0  0  0  0  0  0
    1.0460  -19.5110  -38.7960 C   0  0  0  0  0  3  0  0  0  0  0  0
    2.3590  -12.7910  -37.2470 C   0  0  0  0  0  0  0  0  0  0  0  0
    3.1570  -11.6730  -37.1350 C   0  0  0  0  0  3  0  0  0  0  0  0
    3.9330  -11.1990  -38.1730 C   0  0  0  0  0  0  0  0  0  0  0  0
    3.8940  -11.8980  -39.3870 C   0  0  0  0  0  0  0  0  0  0  0  0
    3.1110  -13.0200  -39.5480 C   0  0  0  0  0  0  0  0  0  0  0  0
    2.3620  -13.4350  -38.4650 C   0  0  0  0  0  3  0  0  0  0  0  0
    4.7410  -10.0740  -38.0700 O   0  0  0  0  0  0  0  0  0  0  0  0
    4.1040   -8.8620  -37.7220 C   0  0  0  0  0  1  0  0  0  0  0  0
    4.6500  -11.4650  -40.4530 O   0  0  0  0  0  0  0  0  0  0  0  0
    4.3540  -11.6720  -41.3970 H   0  0  0  0  0  0  0  0  0  0  0  0
    3.1080  -13.6620  -40.7500 O   0  0  0  0  0  0  0  0  0  0  0  0
    1.9870  -14.1090  -41.4560 C   0  0  0  0  0  1  0  0  0  0  0  0
  1  5  1  0  0  0  0
  1  2  1  1  0  0  0
  2  3  1  0  0  0  0
  3 25  1  6  0  0  0
  3  4  1  0  0  0  0
  5  4  1  0  0  0  0
  6  4  1  0  0  0  0
  7  5  1  0  0  0  0
  8  9  1  6  0  0  0
  8  1  1  0  0  0  0
 10 12  1  0  0  0  0
 10  9  1  0  0  0  0
 11  9  2  0  0  0  0
 12 14  1  0  0  0  0
 13 10  1  0  0  0  0
 14 16  1  0  0  0  0
 15 12  2  0  0  0  0
 16  8  1  0  0  0  0
 16 17  2  0  0  0  0
 18 14  1  0  0  0  0
 18 19  1  0  0  0  0
 19 20  2  0  0  0  0
 21 22  1  0  0  0  0
 21 20  1  0  0  0  0
 23 24  1  0  0  0  0
 23 21  2  0  0  0  0
 24 18  2  0  0  0  0
 25 26  1  0  0  0  0
 27 31  1  0  0  0  0
 27 26  2  0  0  0  0
 28 27  1  0  0  0  0
 29 28  2  0  0  0  0
 29 30  1  0  0  0  0
 30 25  2  0  0  0  0
 31 32  1  0  0  0  0
 33 28  1  0  0  0  0
 34 33  1  0  0  0  0
 35 29  1  0  0  0  0
 36 35  1  0  0  0  0
M  END
>  <Pose>
1

>  <Score>
-6.679

$$$$
