/Users/jonathanwahrer/Desktop/Msc/3_Semester/Drug_Design_Praktikum/waehrer_HTS_screening/HTS_experiment/out/docking_results/vina_output/6y4q/2358_docked.pdbqt
 OpenBabel03232219073D

 34 37  0  0  1  0  0  0  0  0999 V2000
    1.3630  -18.6360  -37.8330 N   0  0  0  0  0  0  0  0  0  0  0  0
    0.0360  -19.0380  -38.1430 C   0  0  0  0  0  0  0  0  0  0  0  0
   -0.1330  -19.8720  -39.0800 O   0  0  0  0  0  0  0  0  0  0  0  0
   -1.0760  -18.5280  -37.4360 N   0  0  0  0  0  0  0  0  0  0  0  0
   -0.8950  -17.5950  -36.3880 C   0  0  0  0  0  0  0  0  0  0  0  0
   -1.8630  -17.2580  -35.6200 O   0  0  0  0  0  0  0  0  0  0  0  0
    0.4040  -16.9720  -36.1330 C   0  0  1  0  0  3  0  0  0  0  0  0
    1.5070  -17.6980  -36.7760 C   0  0  0  0  0  0  0  0  0  0  0  0
    2.7050  -17.4950  -36.3770 O   0  0  0  0  0  0  0  0  0  0  0  0
   -2.0520  -18.8370  -37.6820 H   0  0  0  0  0  0  0  0  0  0  0  0
    0.3730  -15.5320  -36.5250 C   0  0  1  0  0  3  0  0  0  0  0  0
   -0.4340  -14.9400  -37.3650 C   0  0  0  0  0  2  0  0  0  0  0  0
   -0.0530  -13.5060  -37.4020 C   0  0  2  0  0  3  0  0  0  0  0  0
    1.2860  -13.4870  -36.8530 N   0  0  0  0  0  0  0  0  0  0  0  0
    1.2850  -14.5830  -35.9830 N   0  0  0  0  0  0  0  0  0  0  0  0
    2.0100  -13.5900  -37.6030 H   0  0  0  0  0  0  0  0  0  0  0  0
    1.8690  -14.6370  -35.1090 H   0  0  0  0  0  0  0  0  0  0  0  0
   -0.9710  -12.6970  -36.5530 C   0  0  0  0  0  0  0  0  0  0  0  0
   -0.5600  -11.5530  -35.9100 C   0  0  0  0  0  3  0  0  0  0  0  0
   -1.4030  -10.7950  -35.1190 C   0  0  0  0  0  0  0  0  0  0  0  0
   -2.7150  -11.1770  -34.9500 C   0  0  0  0  0  0  0  0  0  0  0  0
   -3.1450  -12.3160  -35.5850 C   0  0  0  0  0  3  0  0  0  0  0  0
   -2.2960  -13.0630  -36.3710 C   0  0  0  0  0  3  0  0  0  0  0  0
   -0.9320   -9.6550  -34.4970 O   0  0  0  0  0  0  0  0  0  0  0  0
   -1.1290   -8.7440  -34.8620 H   0  0  0  0  0  0  0  0  0  0  0  0
   -3.5750  -10.4350  -34.1650 O   0  0  0  0  0  0  0  0  0  0  0  0
   -3.9310  -10.9060  -32.8860 C   0  0  0  0  0  1  0  0  0  0  0  0
    2.5010  -19.1340  -38.5250 C   0  0  0  0  0  0  0  0  0  0  0  0
    3.1760  -20.2760  -38.1090 C   0  0  0  0  0  3  0  0  0  0  0  0
    4.2660  -20.7570  -38.7690 C   0  0  0  0  0  3  0  0  0  0  0  0
    4.7320  -20.0980  -39.8970 C   0  0  0  0  0  0  0  0  0  0  0  0
    6.1310  -20.6860  -40.7750 Cl  0  0  0  0  0  0  0  0  0  0  0  0
    4.0820  -18.9570  -40.3390 C   0  0  0  0  0  3  0  0  0  0  0  0
    2.9660  -18.4830  -39.6450 C   0  0  0  0  0  3  0  0  0  0  0  0
  1  8  1  0  0  0  0
  2  1  1  0  0  0  0
  2  4  1  0  0  0  0
  3  2  2  0  0  0  0
  4  5  1  0  0  0  0
  5  7  1  0  0  0  0
  5  6  2  0  0  0  0
  7  8  1  6  0  0  0
  8  9  2  0  0  0  0
 10  4  1  0  0  0  0
 11 12  1  1  0  0  0
 11  7  1  0  0  0  0
 11 15  1  0  0  0  0
 13 12  1  0  0  0  0
 13 14  1  0  0  0  0
 13 18  1  1  0  0  0
 14 15  1  0  0  0  0
 15 17  1  0  0  0  0
 16 14  1  0  0  0  0
 18 23  2  0  0  0  0
 18 19  1  0  0  0  0
 19 20  2  0  0  0  0
 20 21  1  0  0  0  0
 20 24  1  0  0  0  0
 21 26  1  0  0  0  0
 22 21  2  0  0  0  0
 23 22  1  0  0  0  0
 25 24  1  0  0  0  0
 26 27  1  0  0  0  0
 28 29  1  0  0  0  0
 28  1  1  0  0  0  0
 30 29  2  0  0  0  0
 31 30  1  0  0  0  0
 32 31  1  0  0  0  0
 33 31  2  0  0  0  0
 33 34  1  0  0  0  0
 34 28  2  0  0  0  0
M  END
>  <Pose>
1

>  <Score>
-6.532

$$$$
