MODEL 1
REMARK VINA RESULT:    -6.532      0.000      0.000
REMARK INTER + INTRA:          -9.340
REMARK INTER:                  -8.251
REMARK INTRA:                  -1.089
REMARK UNBOUND:                -1.089
REMARK  5 active torsions:
REMARK  status: ('A' for Active; 'I' for Inactive)
REMARK    1  A    between atoms: C_5  and  N_8 
REMARK    2  A    between atoms: C_14  and  C_17 
REMARK    3  A    between atoms: C_19  and  C_22 
REMARK    4  A    between atoms: C_24  and  O_30 
REMARK    5  A    between atoms: C_25  and  O_28 
ROOT
ATOM      1  N   UNK d   1       1.363 -18.636 -37.833  0.00  0.00    -0.233 N 
ATOM      2  C   UNK d   1       0.036 -19.038 -38.143  0.00  0.00     0.336 C 
ATOM      3  O   UNK d   1      -0.133 -19.872 -39.080  0.00  0.00    -0.246 OA
ATOM      4  N   UNK d   1      -1.076 -18.528 -37.436  0.00  0.00    -0.277 N 
ATOM      5  C   UNK d   1      -0.895 -17.595 -36.388  0.00  0.00     0.244 C 
ATOM      6  O   UNK d   1      -1.863 -17.258 -35.620  0.00  0.00    -0.272 OA
ATOM      7  C   UNK d   1       0.404 -16.972 -36.133  0.00  0.00     0.221 C 
ATOM      8  C   UNK d   1       1.507 -17.698 -36.776  0.00  0.00     0.251 C 
ATOM      9  O   UNK d   1       2.705 -17.495 -36.377  0.00  0.00    -0.271 OA
ATOM     10  H   UNK d   1      -2.052 -18.837 -37.682  0.00  0.00     0.173 HD
ENDROOT
BRANCH   7  11
ATOM     11  C   UNK d   1       0.373 -15.532 -36.525  0.00  0.00     0.041 C 
ATOM     12  C   UNK d   1      -0.434 -14.940 -37.365  0.00  0.00     0.026 C 
ATOM     13  C   UNK d   1      -0.053 -13.506 -37.402  0.00  0.00     0.134 C 
ATOM     14  N   UNK d   1       1.286 -13.487 -36.853  0.00  0.00    -0.228 NA
ATOM     15  N   UNK d   1       1.285 -14.583 -35.983  0.00  0.00    -0.323 N 
ATOM     16  H   UNK d   1       2.010 -13.590 -37.603  0.00  0.00     0.147 HD
ATOM     17  H   UNK d   1       1.869 -14.637 -35.109  0.00  0.00     0.180 HD
BRANCH  13  18
ATOM     18  C   UNK d   1      -0.971 -12.697 -36.553  0.00  0.00    -0.032 A 
ATOM     19  C   UNK d   1      -0.560 -11.553 -35.910  0.00  0.00     0.048 A 
ATOM     20  C   UNK d   1      -1.403 -10.795 -35.119  0.00  0.00     0.099 A 
ATOM     21  C   UNK d   1      -2.715 -11.177 -34.950  0.00  0.00     0.101 A 
ATOM     22  C   UNK d   1      -3.145 -12.316 -35.585  0.00  0.00     0.040 A 
ATOM     23  C   UNK d   1      -2.296 -13.063 -36.371  0.00  0.00     0.012 A 
BRANCH  20  24
ATOM     24  O   UNK d   1      -0.932  -9.655 -34.497  0.00  0.00    -0.358 OA
ATOM     25  H   UNK d   1      -1.129  -8.744 -34.862  0.00  0.00     0.217 HD
ENDBRANCH  20  24
BRANCH  21  26
ATOM     26  O   UNK d   1      -3.575 -10.435 -34.165  0.00  0.00    -0.353 OA
ATOM     27  C   UNK d   1      -3.931 -10.906 -32.886  0.00  0.00     0.210 C 
ENDBRANCH  21  26
ENDBRANCH  13  18
ENDBRANCH   7  11
BRANCH   1  28
ATOM     28  C   UNK d   1       2.501 -19.134 -38.525  0.00  0.00     0.047 A 
ATOM     29  C   UNK d   1       3.176 -20.276 -38.109  0.00  0.00     0.032 A 
ATOM     30  C   UNK d   1       4.266 -20.757 -38.769  0.00  0.00     0.026 A 
ATOM     31  C   UNK d   1       4.732 -20.098 -39.897  0.00  0.00     0.034 A 
ATOM     32 Cl   UNK d   1       6.131 -20.686 -40.775  0.00  0.00    -0.084 Cl
ATOM     33  C   UNK d   1       4.082 -18.957 -40.339  0.00  0.00     0.026 A 
ATOM     34  C   UNK d   1       2.966 -18.483 -39.645  0.00  0.00     0.032 A 
ENDBRANCH   1  28
TORSDOF 5
ENDMDL
