/Users/jonathanwahrer/Desktop/Msc/3_Semester/Drug_Design_Praktikum/waehrer_HTS_screening/HTS_experiment/out/docking_results/vina_output/6y4q/2359_docked.pdbqt
 OpenBabel03232219073D

 32 35  0  0  1  0  0  0  0  0999 V2000
    1.3130  -13.7090  -37.3180 N   0  0  0  0  0  0  0  0  0  0  0  0
    0.2490  -13.5690  -36.3640 C   0  0  0  0  0  0  0  0  0  0  0  0
   -0.0740  -12.4340  -35.8940 O   0  0  0  0  0  0  0  0  0  0  0  0
   -0.4200  -14.7590  -35.9740 N   0  0  0  0  0  0  0  0  0  0  0  0
   -0.0320  -16.0380  -36.5250 C   0  0  0  0  0  0  0  0  0  0  0  0
   -0.8880  -16.9310  -36.5170 O   0  0  0  0  0  0  0  0  0  0  0  0
    1.3100  -16.2090  -37.0470 C   0  0  2  0  0  3  0  0  0  0  0  0
    1.6570  -14.9860  -37.8320 C   0  0  0  0  0  0  0  0  0  0  0  0
    2.2480  -15.0110  -38.9410 O   0  0  0  0  0  0  0  0  0  0  0  0
   -1.1910  -14.6790  -35.2870 H   0  0  0  0  0  0  0  0  0  0  0  0
    1.6130  -17.4350  -37.7490 C   0  0  2  0  0  3  0  0  0  0  0  0
    2.5850  -17.6910  -38.5940 C   0  0  0  0  0  2  0  0  0  0  0  0
    2.5230  -19.0910  -39.0800 C   0  0  2  0  0  3  0  0  0  0  0  0
    1.5470  -19.6900  -38.2000 N   0  0  0  0  0  0  0  0  0  0  0  0
    0.8320  -18.6420  -37.6240 N   0  0  0  0  0  0  0  0  0  0  0  0
    1.9720  -20.3340  -37.4990 H   0  0  0  0  0  0  0  0  0  0  0  0
   -0.1070  -18.7710  -37.1930 H   0  0  0  0  0  0  0  0  0  0  0  0
    3.7860  -19.8180  -38.9100 C   0  0  0  0  0  0  0  0  0  0  0  0
    4.8760  -19.1270  -38.4020 C   0  0  0  0  0  3  0  0  0  0  0  0
    6.0740  -19.7790  -38.2290 C   0  0  0  0  0  0  0  0  0  0  0  0
    6.2250  -21.1080  -38.5480 C   0  0  0  0  0  3  0  0  0  0  0  0
    5.1550  -21.8080  -39.0530 C   0  0  0  0  0  3  0  0  0  0  0  0
    3.9410  -21.1430  -39.2280 C   0  0  0  0  0  3  0  0  0  0  0  0
    7.1820  -19.0920  -37.7160 O   0  0  0  0  0  0  0  0  0  0  0  0
    7.8230  -18.6520  -38.3520 H   0  0  0  0  0  0  0  0  0  0  0  0
    1.9990  -12.5010  -37.7180 C   0  0  0  0  0  0  0  0  0  0  0  0
    3.1600  -12.0870  -37.0950 C   0  0  0  0  0  3  0  0  0  0  0  0
    3.8370  -10.9360  -37.4520 C   0  0  0  0  0  3  0  0  0  0  0  0
    3.3400  -10.1500  -38.4820 C   0  0  0  0  0  0  0  0  0  0  0  0
    4.2140   -8.7070  -38.9080 Cl  0  0  0  0  0  0  0  0  0  0  0  0
    2.1700  -10.5460  -39.1250 C   0  0  0  0  0  3  0  0  0  0  0  0
    1.5200  -11.7040  -38.7400 C   0  0  0  0  0  3  0  0  0  0  0  0
  1  2  1  0  0  0  0
  2  4  1  0  0  0  0
  2  3  2  0  0  0  0
  4 10  1  0  0  0  0
  5  6  2  0  0  0  0
  5  4  1  0  0  0  0
  7  8  1  6  0  0  0
  7  5  1  0  0  0  0
  8  1  1  0  0  0  0
  9  8  2  0  0  0  0
 11 12  1  6  0  0  0
 11 15  1  0  0  0  0
 11  7  1  0  0  0  0
 13 18  1  1  0  0  0
 13 12  1  0  0  0  0
 13 14  1  0  0  0  0
 14 15  1  0  0  0  0
 14 16  1  0  0  0  0
 15 17  1  0  0  0  0
 18 19  1  0  0  0  0
 19 20  2  0  0  0  0
 20 24  1  0  0  0  0
 21 20  1  0  0  0  0
 22 21  2  0  0  0  0
 23 22  1  0  0  0  0
 23 18  2  0  0  0  0
 25 24  1  0  0  0  0
 26  1  1  0  0  0  0
 26 27  1  0  0  0  0
 28 27  2  0  0  0  0
 29 28  1  0  0  0  0
 30 29  1  0  0  0  0
 31 32  1  0  0  0  0
 31 29  2  0  0  0  0
 32 26  2  0  0  0  0
M  END
>  <Pose>
1

>  <Score>
-1.123

$$$$
