MODEL 1
REMARK VINA RESULT:    -1.123      0.000      0.000
REMARK INTER + INTRA:          -1.531
REMARK INTER:                  -1.353
REMARK INTRA:                  -0.178
REMARK UNBOUND:                -0.178
REMARK  4 active torsions:
REMARK  status: ('A' for Active; 'I' for Inactive)
REMARK    1  A    between atoms: C_5  and  N_8 
REMARK    2  A    between atoms: C_14  and  C_17 
REMARK    3  A    between atoms: C_19  and  C_22 
REMARK    4  A    between atoms: C_24  and  O_28 
ROOT
ATOM      1  N   UNK d   1       1.313 -13.709 -37.318  0.00  0.00    -0.233 N 
ATOM      2  C   UNK d   1       0.249 -13.569 -36.364  0.00  0.00     0.336 C 
ATOM      3  O   UNK d   1      -0.074 -12.434 -35.894  0.00  0.00    -0.246 OA
ATOM      4  N   UNK d   1      -0.420 -14.759 -35.974  0.00  0.00    -0.277 N 
ATOM      5  C   UNK d   1      -0.032 -16.038 -36.525  0.00  0.00     0.244 C 
ATOM      6  O   UNK d   1      -0.888 -16.931 -36.517  0.00  0.00    -0.272 OA
ATOM      7  C   UNK d   1       1.310 -16.209 -37.047  0.00  0.00     0.221 C 
ATOM      8  C   UNK d   1       1.657 -14.986 -37.832  0.00  0.00     0.251 C 
ATOM      9  O   UNK d   1       2.248 -15.011 -38.941  0.00  0.00    -0.271 OA
ATOM     10  H   UNK d   1      -1.191 -14.679 -35.287  0.00  0.00     0.173 HD
ENDROOT
BRANCH   7  11
ATOM     11  C   UNK d   1       1.613 -17.435 -37.749  0.00  0.00     0.041 C 
ATOM     12  C   UNK d   1       2.585 -17.691 -38.594  0.00  0.00     0.026 C 
ATOM     13  C   UNK d   1       2.523 -19.091 -39.080  0.00  0.00     0.134 C 
ATOM     14  N   UNK d   1       1.547 -19.690 -38.200  0.00  0.00    -0.228 NA
ATOM     15  N   UNK d   1       0.832 -18.642 -37.624  0.00  0.00    -0.323 N 
ATOM     16  H   UNK d   1       1.972 -20.334 -37.499  0.00  0.00     0.147 HD
ATOM     17  H   UNK d   1      -0.107 -18.771 -37.193  0.00  0.00     0.180 HD
BRANCH  13  18
ATOM     18  C   UNK d   1       3.786 -19.818 -38.910  0.00  0.00    -0.033 A 
ATOM     19  C   UNK d   1       4.876 -19.127 -38.402  0.00  0.00     0.045 A 
ATOM     20  C   UNK d   1       6.074 -19.779 -38.229  0.00  0.00     0.066 A 
ATOM     21  C   UNK d   1       6.225 -21.108 -38.548  0.00  0.00     0.036 A 
ATOM     22  C   UNK d   1       5.155 -21.808 -39.053  0.00  0.00     0.003 A 
ATOM     23  C   UNK d   1       3.941 -21.143 -39.228  0.00  0.00     0.009 A 
BRANCH  20  24
ATOM     24  O   UNK d   1       7.182 -19.092 -37.716  0.00  0.00    -0.361 OA
ATOM     25  H   UNK d   1       7.823 -18.652 -38.352  0.00  0.00     0.217 HD
ENDBRANCH  20  24
ENDBRANCH  13  18
ENDBRANCH   7  11
BRANCH   1  26
ATOM     26  C   UNK d   1       1.999 -12.501 -37.718  0.00  0.00     0.047 A 
ATOM     27  C   UNK d   1       3.160 -12.087 -37.095  0.00  0.00     0.032 A 
ATOM     28  C   UNK d   1       3.837 -10.936 -37.452  0.00  0.00     0.026 A 
ATOM     29  C   UNK d   1       3.340 -10.150 -38.482  0.00  0.00     0.034 A 
ATOM     30 Cl   UNK d   1       4.214  -8.707 -38.908  0.00  0.00    -0.084 Cl
ATOM     31  C   UNK d   1       2.170 -10.546 -39.125  0.00  0.00     0.026 A 
ATOM     32  C   UNK d   1       1.520 -11.704 -38.740  0.00  0.00     0.032 A 
ENDBRANCH   1  26
TORSDOF 4
ENDMDL
