MODEL 1
REMARK VINA RESULT:    -6.547      0.000      0.000
REMARK INTER + INTRA:          -8.614
REMARK INTER:                  -7.695
REMARK INTRA:                  -0.919
REMARK UNBOUND:                -0.919
REMARK  3 active torsions:
REMARK  status: ('A' for Active; 'I' for Inactive)
REMARK    1  A    between atoms: C_5  and  N_8 
REMARK    2  A    between atoms: C_14  and  C_17 
REMARK    3  A    between atoms: C_19  and  C_22 
ROOT
ATOM      1  N   UNK d   1       0.493 -15.483 -37.379  0.00  0.00    -0.233 N 
ATOM      2  C   UNK d   1      -0.865 -15.409 -37.775  0.00  0.00     0.336 C 
ATOM      3  O   UNK d   1      -1.310 -14.365 -38.314  0.00  0.00    -0.246 OA
ATOM      4  N   UNK d   1      -1.717 -16.545 -37.551  0.00  0.00    -0.277 N 
ATOM      5  C   UNK d   1      -1.215 -17.727 -36.942  0.00  0.00     0.244 C 
ATOM      6  O   UNK d   1      -2.020 -18.559 -36.453  0.00  0.00    -0.272 OA
ATOM      7  C   UNK d   1       0.238 -17.955 -36.895  0.00  0.00     0.221 C 
ATOM      8  C   UNK d   1       0.959 -16.677 -36.774  0.00  0.00     0.251 C 
ATOM      9  O   UNK d   1       2.047 -16.625 -36.103  0.00  0.00    -0.271 OA
ATOM     10  H   UNK d   1      -2.722 -16.534 -37.827  0.00  0.00     0.173 HD
ENDROOT
BRANCH   7  11
ATOM     11  C   UNK d   1       0.703 -18.696 -38.116  0.00  0.00     0.041 C 
ATOM     12  C   UNK d   1       1.017 -19.960 -38.229  0.00  0.00     0.026 C 
ATOM     13  C   UNK d   1       1.420 -20.237 -39.616  0.00  0.00     0.135 C 
ATOM     14  N   UNK d   1       0.962 -19.089 -40.347  0.00  0.00    -0.228 NA
ATOM     15  N   UNK d   1       0.863 -18.075 -39.381  0.00  0.00    -0.323 N 
ATOM     16  H   UNK d   1       0.068 -19.252 -40.819  0.00  0.00     0.147 HD
ATOM     17  H   UNK d   1       0.908 -17.061 -39.630  0.00  0.00     0.180 HD
BRANCH  13  18
ATOM     18  C   UNK d   1       2.904 -20.296 -39.635  0.00  0.00    -0.018 A 
ATOM     19  C   UNK d   1       3.598 -19.929 -40.763  0.00  0.00     0.125 A 
ATOM     20  N   UNK d   1       4.959 -19.981 -40.786  0.00  0.00    -0.273 NA
ATOM     21  C   UNK d   1       5.683 -20.387 -39.731  0.00  0.00     0.116 A 
ATOM     22  C   UNK d   1       5.020 -20.763 -38.585  0.00  0.00     0.020 A 
ATOM     23  C   UNK d   1       3.619 -20.714 -38.544  0.00  0.00     0.012 A 
ENDBRANCH  13  18
ENDBRANCH   7  11
BRANCH   1  24
ATOM     24  C   UNK d   1       1.385 -14.361 -37.581  0.00  0.00     0.047 A 
ATOM     25  C   UNK d   1       1.648 -13.448 -36.582  0.00  0.00     0.032 A 
ATOM     26  C   UNK d   1       2.506 -12.374 -36.792  0.00  0.00     0.026 A 
ATOM     27  C   UNK d   1       3.126 -12.186 -38.009  0.00  0.00     0.034 A 
ATOM     28 Cl   UNK d   1       4.211 -10.833 -38.278  0.00  0.00    -0.084 Cl
ATOM     29  C   UNK d   1       2.859 -13.101 -39.005  0.00  0.00     0.026 A 
ATOM     30  C   UNK d   1       2.005 -14.168 -38.795  0.00  0.00     0.032 A 
ENDBRANCH   1  24
TORSDOF 3
ENDMDL
