/Users/jonathanwahrer/Desktop/Msc/3_Semester/Drug_Design_Praktikum/waehrer_HTS_screening/HTS_experiment/out/docking_results/vina_output/6y4q/2363_docked.pdbqt
 OpenBabel03232219073D

 33 36  0  0  1  0  0  0  0  0999 V2000
    0.0810  -14.3030  -37.4760 N   0  0  0  0  0  0  0  0  0  0  0  0
    0.2350  -15.6220  -36.9760 C   0  0  2  0  0  0  0  0  0  0  0  0
   -1.0080  -16.3640  -36.8250 C   0  0  0  0  0  0  0  0  0  0  0  0
   -2.2310  -15.8070  -37.0520 C   0  0  0  0  0  0  0  0  0  0  0  0
   -3.3940  -16.5780  -36.8650 C   0  0  0  0  0  3  0  0  0  0  0  0
   -3.3600  -17.8880  -36.4580 C   0  0  0  0  0  3  0  0  0  0  0  0
   -2.1090  -18.4380  -36.2330 C   0  0  0  0  0  3  0  0  0  0  0  0
   -0.9840  -17.7000  -36.4110 C   0  0  0  0  0  3  0  0  0  0  0  0
   -2.3810  -14.4520  -37.5050 N   0  0  0  0  0  0  0  0  0  0  0  0
   -1.1810  -13.7330  -37.7030 C   0  0  0  0  0  0  0  0  0  0  0  0
   -1.2280  -12.5240  -38.1020 O   0  0  0  0  0  0  0  0  0  0  0  0
   -3.3270  -14.0620  -37.6640 H   0  0  0  0  0  0  0  0  0  0  0  0
    0.7730  -15.4390  -35.6530 O   0  0  0  0  0  0  0  0  0  0  0  0
    1.2520  -14.5700  -35.6100 H   0  0  0  0  0  0  0  0  0  0  0  0
    1.2700  -16.3910  -37.7130 C   0  0  0  0  0  0  0  0  0  0  0  0
    2.3220  -16.7070  -37.1530 O   0  0  0  0  0  0  0  0  0  0  0  0
    1.0060  -16.7370  -39.0510 N   0  0  0  0  0  0  0  0  0  0  0  0
    0.1070  -16.4700  -39.5400 H   0  0  0  0  0  0  0  0  0  0  0  0
    1.9540  -17.4930  -39.8700 C   0  0  0  0  0  2  0  0  0  0  0  0
    1.6500  -18.9410  -39.9060 C   0  0  0  0  0  2  0  0  0  0  0  0
    2.6500  -19.8290  -39.4550 N   0  0  0  0  0  0  0  0  0  0  0  0
    2.9820  -20.9380  -40.2510 C   0  0  0  0  0  2  0  0  0  0  0  0
    4.2570  -21.5750  -39.6920 C   0  0  0  0  0  2  0  0  0  0  0  0
    4.2880  -21.4560  -38.2910 O   0  0  0  0  0  0  0  0  0  0  0  0
    4.5180  -20.1390  -37.9010 C   0  0  0  0  0  2  0  0  0  0  0  0
    3.7910  -19.2290  -38.8520 C   0  0  0  0  0  2  0  0  0  0  0  0
    1.2740  -13.4990  -37.7740 C   0  0  0  0  0  0  0  0  0  0  0  0
    1.9570  -12.8360  -36.7890 C   0  0  0  0  0  3  0  0  0  0  0  0
    3.0860  -12.0790  -37.0860 C   0  0  0  0  0  3  0  0  0  0  0  0
    3.5210  -11.9970  -38.3890 C   0  0  0  0  0  0  0  0  0  0  0  0
    4.9560  -11.0330  -38.7580 Cl  0  0  0  0  0  0  0  0  0  0  0  0
    2.8520  -12.6540  -39.3990 C   0  0  0  0  0  3  0  0  0  0  0  0
    1.7340  -13.3990  -39.0690 C   0  0  0  0  0  3  0  0  0  0  0  0
  1  2  1  0  0  0  0
  2 15  1  6  0  0  0
  2  3  1  0  0  0  0
  2 13  1  0  0  0  0
  3  8  1  0  0  0  0
  4  5  1  0  0  0  0
  4  3  2  0  0  0  0
  5  6  2  0  0  0  0
  6  7  1  0  0  0  0
  8  7  2  0  0  0  0
  9  4  1  0  0  0  0
 10  9  1  0  0  0  0
 10  1  1  0  0  0  0
 11 10  2  0  0  0  0
 12  9  1  0  0  0  0
 13 14  1  0  0  0  0
 15 16  2  0  0  0  0
 17 15  1  0  0  0  0
 18 17  1  0  0  0  0
 19 17  1  0  0  0  0
 20 19  1  0  0  0  0
 20 21  1  0  0  0  0
 21 26  1  0  0  0  0
 22 23  1  0  0  0  0
 22 21  1  0  0  0  0
 23 24  1  0  0  0  0
 24 25  1  0  0  0  0
 26 25  1  0  0  0  0
 27  1  1  0  0  0  0
 27 28  1  0  0  0  0
 29 28  2  0  0  0  0
 30 29  1  0  0  0  0
 31 30  1  0  0  0  0
 32 33  1  0  0  0  0
 32 30  2  0  0  0  0
 33 27  2  0  0  0  0
M  END
>  <Pose>
1

>  <Score>
-6.459

$$$$
