MODEL 1
REMARK VINA RESULT:    -6.459      0.000      0.000
REMARK INTER + INTRA:          -9.177
REMARK INTER:                  -8.536
REMARK INTRA:                  -0.640
REMARK UNBOUND:                -0.640
REMARK  6 active torsions:
REMARK  status: ('A' for Active; 'I' for Inactive)
REMARK    1  A    between atoms: C_5  and  N_8 
REMARK    2  A    between atoms: C_9  and  O_19 
REMARK    3  A    between atoms: C_9  and  C_20 
REMARK       I    between atoms: C_20  and  N_22 
REMARK    4  A    between atoms: N_22  and  C_23 
REMARK    5  A    between atoms: C_23  and  C_24 
REMARK    6  A    between atoms: C_24  and  N_25 
ROOT
ATOM      1  N   UNK d   1       0.081 -14.303 -37.476  0.00  0.00    -0.254 N 
ATOM      2  C   UNK d   1       0.235 -15.622 -36.976  0.00  0.00     0.256 A 
ATOM      3  C   UNK d   1      -1.008 -16.364 -36.825  0.00  0.00     0.034 A 
ATOM      4  C   UNK d   1      -2.231 -15.807 -37.052  0.00  0.00     0.048 A 
ATOM      5  C   UNK d   1      -3.394 -16.578 -36.865  0.00  0.00     0.030 A 
ATOM      6  C   UNK d   1      -3.360 -17.888 -36.458  0.00  0.00     0.002 A 
ATOM      7  C   UNK d   1      -2.109 -18.438 -36.233  0.00  0.00     0.001 A 
ATOM      8  C   UNK d   1      -0.984 -17.700 -36.411  0.00  0.00     0.015 A 
ATOM      9  N   UNK d   1      -2.381 -14.452 -37.505  0.00  0.00    -0.308 N 
ATOM     10  C   UNK d   1      -1.181 -13.733 -37.703  0.00  0.00     0.330 A 
ATOM     11  O   UNK d   1      -1.228 -12.524 -38.102  0.00  0.00    -0.246 OA
ATOM     12  H   UNK d   1      -3.327 -14.062 -37.664  0.00  0.00     0.170 HD
ENDROOT
BRANCH   2  13
ATOM     13  O   UNK d   1       0.773 -15.439 -35.653  0.00  0.00    -0.359 OA
ATOM     14  H   UNK d   1       1.252 -14.570 -35.610  0.00  0.00     0.213 HD
ENDBRANCH   2  13
BRANCH   2  15
ATOM     15  C   UNK d   1       1.270 -16.391 -37.713  0.00  0.00     0.279 C 
ATOM     16  O   UNK d   1       2.322 -16.707 -37.153  0.00  0.00    -0.268 OA
ATOM     17  N   UNK d   1       1.006 -16.737 -39.051  0.00  0.00    -0.355 N 
ATOM     18  H   UNK d   1       0.107 -16.470 -39.540  0.00  0.00     0.162 HD
BRANCH  17  19
ATOM     19  C   UNK d   1       1.954 -17.493 -39.870  0.00  0.00     0.142 C 
BRANCH  19  20
ATOM     20  C   UNK d   1       1.650 -18.941 -39.906  0.00  0.00     0.136 C 
BRANCH  20  21
ATOM     21  N   UNK d   1       2.650 -19.829 -39.455  0.00  0.00    -0.407 N 
ATOM     22  C   UNK d   1       2.982 -20.938 -40.251  0.00  0.00     0.143 C 
ATOM     23  C   UNK d   1       4.257 -21.575 -39.692  0.00  0.00     0.187 C 
ATOM     24  O   UNK d   1       4.288 -21.456 -38.291  0.00  0.00    -0.388 OA
ATOM     25  C   UNK d   1       4.518 -20.139 -37.901  0.00  0.00     0.187 C 
ATOM     26  C   UNK d   1       3.791 -19.229 -38.852  0.00  0.00     0.143 C 
ENDBRANCH  20  21
ENDBRANCH  19  20
ENDBRANCH  17  19
ENDBRANCH   2  15
BRANCH   1  27
ATOM     27  C   UNK d   1       1.274 -13.499 -37.774  0.00  0.00     0.043 A 
ATOM     28  C   UNK d   1       1.957 -12.836 -36.789  0.00  0.00     0.031 A 
ATOM     29  C   UNK d   1       3.086 -12.079 -37.086  0.00  0.00     0.026 A 
ATOM     30  C   UNK d   1       3.521 -11.997 -38.389  0.00  0.00     0.034 A 
ATOM     31 Cl   UNK d   1       4.956 -11.033 -38.758  0.00  0.00    -0.084 Cl
ATOM     32  C   UNK d   1       2.852 -12.654 -39.399  0.00  0.00     0.026 A 
ATOM     33  C   UNK d   1       1.734 -13.399 -39.069  0.00  0.00     0.031 A 
ENDBRANCH   1  27
TORSDOF 6
ENDMDL
