/Users/jonathanwahrer/Desktop/Msc/3_Semester/Drug_Design_Praktikum/waehrer_HTS_screening/HTS_experiment/out/docking_results/vina_output/6y4q/2365_docked.pdbqt
 OpenBabel03232219083D

 32 36  0  0  1  0  0  0  0  0999 V2000
    1.8710  -14.9370  -38.4620 N   0  0  0  0  0  0  0  0  0  0  0  0
    1.5890  -16.1240  -37.7690 C   0  0  0  0  0  0  0  0  0  0  0  0
    1.4210  -16.0610  -36.5130 O   0  0  0  0  0  0  0  0  0  0  0  0
    2.0110  -14.9720  -39.5010 H   0  0  0  0  0  0  0  0  0  0  0  0
    1.4740  -17.4570  -38.4060 C   0  0  1  0  0  0  0  0  0  0  0  0
    2.7810  -18.2160  -38.2980 C   0  0  0  0  0  2  0  0  0  0  0  0
    2.6730  -19.5630  -38.9540 C   0  0  1  0  0  0  0  0  0  0  0  0
    1.6160  -20.3550  -38.1800 C   0  0  0  0  0  2  0  0  0  0  0  0
    2.2320  -19.4870  -40.3820 C   0  0  0  0  0  2  0  0  0  0  0  0
    0.3070  -19.6370  -38.2430 C   0  0  1  0  0  3  0  0  0  0  0  0
    0.4310  -18.2520  -37.6510 C   0  0  0  0  0  2  0  0  0  0  0  0
   -0.1280  -19.5280  -39.6870 C   0  0  0  0  0  2  0  0  0  0  0  0
    0.9250  -18.7380  -40.4290 C   0  0  1  0  0  3  0  0  0  0  0  0
    1.0450  -17.3530  -39.8530 C   0  0  0  0  0  2  0  0  0  0  0  0
    3.9570  -20.2180  -38.8040 N   0  0  0  0  0  0  0  0  0  0  0  0
    4.2470  -21.5010  -38.6700 N   0  0  0  0  0  0  0  0  0  0  0  0
    5.5260  -21.7030  -38.5610 N   0  0  0  0  0  0  0  0  0  0  0  0
    6.1280  -20.5290  -38.6220 C   0  0  0  0  0  3  0  0  0  0  0  0
    5.1470  -19.5960  -38.7750 N   0  0  0  0  0  0  0  0  0  0  0  0
    1.9640  -13.7280  -37.8090 N   0  0  0  0  0  0  0  0  0  0  0  0
    2.7840  -12.6500  -38.2180 C   0  0  0  0  0  0  0  0  0  0  0  0
    3.5040  -12.7350  -39.2450 O   0  0  0  0  0  0  0  0  0  0  0  0
    1.3870  -13.5800  -36.9340 H   0  0  0  0  0  0  0  0  0  0  0  0
    2.8410  -11.3640  -37.4660 C   0  0  1  0  0  3  0  0  0  0  0  0
    4.1670  -10.6920  -37.5850 C   0  0  0  0  0  1  0  0  0  0  0  0
    1.7150  -10.4680  -37.9300 C   0  0  0  0  0  2  0  0  0  0  0  0
    0.5570  -10.5430  -37.0710 N   0  0  0  0  0  0  0  0  0  0  0  0
   -0.3230   -9.5540  -36.7670 C   0  0  0  0  0  3  0  0  0  0  0  0
   -1.2890  -10.0430  -35.9100 C   0  0  0  0  0  0  0  0  0  0  0  0
   -2.7820   -9.1450  -35.1380 Br  0  0  0  0  0  0  0  0  0  0  0  0
   -0.9460  -11.3820  -35.7110 C   0  0  0  0  0  3  0  0  0  0  0  0
    0.1660  -11.6120  -36.4340 N   0  0  0  0  0  0  0  0  0  0  0  0
  1 20  1  0  0  0  0
  1  2  1  0  0  0  0
  2  3  2  0  0  0  0
  4  1  1  0  0  0  0
  5  6  1  0  0  0  0
  5  2  1  1  0  0  0
  5 11  1  0  0  0  0
  7  9  1  6  0  0  0
  7 15  1  0  0  0  0
  7  6  1  0  0  0  0
  7  8  1  0  0  0  0
 10 12  1  6  0  0  0
 10  8  1  0  0  0  0
 10 11  1  0  0  0  0
 13  9  1  1  0  0  0
 13 14  1  0  0  0  0
 13 12  1  0  0  0  0
 14  5  1  0  0  0  0
 15 19  1  0  0  0  0
 15 16  1  0  0  0  0
 16 17  2  0  0  0  0
 18 17  1  0  0  0  0
 19 18  2  0  0  0  0
 20 23  1  0  0  0  0
 21 20  1  0  0  0  0
 21 24  1  0  0  0  0
 22 21  2  0  0  0  0
 24 25  1  6  0  0  0
 26 24  1  0  0  0  0
 26 27  1  0  0  0  0
 27 28  1  0  0  0  0
 27 32  1  0  0  0  0
 28 29  2  0  0  0  0
 29 31  1  0  0  0  0
 29 30  1  0  0  0  0
 32 31  2  0  0  0  0
M  END
>  <Pose>
1

>  <Score>
-6.130

$$$$
