/Users/jonathanwahrer/Desktop/Msc/3_Semester/Drug_Design_Praktikum/waehrer_HTS_screening/HTS_experiment/out/docking_results/vina_output/6y4q/2373_docked.pdbqt
 OpenBabel03232219083D

 28 31  0  0  1  0  0  0  0  0999 V2000
    0.4700  -14.8380  -36.5230 N   0  0  0  0  0  0  0  0  0  0  0  0
   -0.3180  -13.7870  -36.6670 C   0  0  2  0  0  3  0  0  0  0  0  0
    0.3780  -12.7180  -37.1380 N   0  0  0  0  0  0  0  0  0  0  0  0
    1.6290  -13.0910  -37.2920 C   0  0  0  0  0  0  0  0  0  0  0  0
    1.6850  -14.4450  -36.9010 C   0  0  0  0  0  3  0  0  0  0  0  0
   -0.2200  -11.4480  -37.4420 C   0  0  0  0  0  2  0  0  0  0  0  0
   -0.5390  -10.6890  -36.1560 C   0  0  0  0  0  2  0  0  0  0  0  0
   -0.9680  -11.7720  -35.1600 C   0  0  0  0  0  2  0  0  0  0  0  0
   -2.1810  -12.4610  -35.7200 C   0  0  0  0  0  2  0  0  0  0  0  0
   -1.7730  -13.8160  -36.3200 C   0  0  0  0  0  2  0  0  0  0  0  0
    0.1930  -16.1980  -36.0510 C   0  0  0  0  0  2  0  0  0  0  0  0
    0.2480  -17.1100  -37.2150 C   0  0  0  0  0  0  0  0  0  0  0  0
   -0.7120  -17.0420  -38.0520 O   0  0  0  0  0  0  0  0  0  0  0  0
    1.3150  -18.0580  -37.4490 C   0  0  0  0  0  0  0  0  0  0  0  0
    1.0730  -19.1460  -38.2950 C   0  0  0  0  0  3  0  0  0  0  0  0
    2.0440  -20.0820  -38.5520 C   0  0  0  0  0  3  0  0  0  0  0  0
    3.2940  -19.9950  -37.9920 C   0  0  0  0  0  0  0  0  0  0  0  0
    4.5710  -21.1490  -38.2750 Cl  0  0  0  0  0  0  0  0  0  0  0  0
    3.5230  -18.9150  -37.1550 C   0  0  0  0  0  3  0  0  0  0  0  0
    2.5560  -17.9710  -36.8910 C   0  0  0  0  0  3  0  0  0  0  0  0
    2.7940  -12.3500  -37.7850 C   0  0  0  0  0  0  0  0  0  0  0  0
    3.5630  -11.4930  -37.0650 C   0  0  0  0  0  3  0  0  0  0  0  0
    4.6170  -10.7640  -37.6140 C   0  0  0  0  0  3  0  0  0  0  0  0
    4.9300  -10.8910  -38.9400 C   0  0  0  0  0  0  0  0  0  0  0  0
    4.1730  -11.7530  -39.6950 C   0  0  0  0  0  3  0  0  0  0  0  0
    3.1330  -12.4640  -39.1380 C   0  0  0  0  0  3  0  0  0  0  0  0
    5.9880  -10.1690  -39.5190 O   0  0  0  0  0  0  0  0  0  0  0  0
    6.5430  -10.5040  -40.7620 C   0  0  0  0  0  1  0  0  0  0  0  0
  1 11  1  0  0  0  0
  2  1  1  0  0  0  0
  2 10  1  1  0  0  0
  3  2  1  0  0  0  0
  4  3  1  0  0  0  0
  4  5  2  0  0  0  0
  5  1  1  0  0  0  0
  6  3  1  0  0  0  0
  6  7  1  0  0  0  0
  7  8  1  0  0  0  0
  9  8  1  0  0  0  0
 10  9  1  0  0  0  0
 12 11  1  0  0  0  0
 13 12  2  0  0  0  0
 14 12  1  0  0  0  0
 14 20  1  0  0  0  0
 15 14  2  0  0  0  0
 16 15  1  0  0  0  0
 16 17  2  0  0  0  0
 17 19  1  0  0  0  0
 18 17  1  0  0  0  0
 19 20  2  0  0  0  0
 21  4  1  0  0  0  0
 21 22  1  0  0  0  0
 23 22  2  0  0  0  0
 24 23  1  0  0  0  0
 25 26  1  0  0  0  0
 25 24  2  0  0  0  0
 26 21  2  0  0  0  0
 27 24  1  0  0  0  0
 28 27  1  0  0  0  0
M  END
>  <Pose>
1

>  <Score>
-7.520

$$$$
