MODEL 1
REMARK VINA RESULT:    -7.520      0.000      0.000
REMARK INTER + INTRA:         -10.719
REMARK INTER:                  -9.718
REMARK INTRA:                  -1.001
REMARK UNBOUND:                -1.001
REMARK  5 active torsions:
REMARK  status: ('A' for Active; 'I' for Inactive)
REMARK    1  A    between atoms: C_5  and  C_8 
REMARK    2  A    between atoms: C_8  and  C_10 
REMARK    3  A    between atoms: C_10  and  N_11 
REMARK    4  A    between atoms: C_14  and  C_16 
REMARK    5  A    between atoms: C_19  and  O_22 
ROOT
ATOM      1  N   UNK d   1       0.470 -14.838 -36.523  0.00  0.00    -0.337 N 
ATOM      2  C   UNK d   1      -0.318 -13.787 -36.667  0.00  0.00     0.086 A 
ATOM      3  N   UNK d   1       0.378 -12.718 -37.138  0.00  0.00    -0.335 N 
ATOM      4  C   UNK d   1       1.629 -13.091 -37.292  0.00  0.00     0.061 A 
ATOM      5  C   UNK d   1       1.685 -14.445 -36.901  0.00  0.00     0.123 A 
ATOM      6  C   UNK d   1      -0.220 -11.448 -37.442  0.00  0.00     0.130 C 
ATOM      7  C   UNK d   1      -0.539 -10.689 -36.156  0.00  0.00     0.020 C 
ATOM      8  C   UNK d   1      -0.968 -11.772 -35.160  0.00  0.00     0.002 C 
ATOM      9  C   UNK d   1      -2.181 -12.461 -35.720  0.00  0.00     0.007 C 
ATOM     10  C   UNK d   1      -1.773 -13.816 -36.320  0.00  0.00     0.077 C 
ENDROOT
BRANCH   1  11
ATOM     11  C   UNK d   1       0.193 -16.198 -36.051  0.00  0.00     0.213 C 
BRANCH  11  12
ATOM     12  C   UNK d   1       0.248 -17.110 -37.215  0.00  0.00     0.177 C 
ATOM     13  O   UNK d   1      -0.712 -17.042 -38.052  0.00  0.00    -0.291 OA
BRANCH  12  14
ATOM     14  C   UNK d   1       1.315 -18.058 -37.449  0.00  0.00     0.011 A 
ATOM     15  C   UNK d   1       1.073 -19.146 -38.295  0.00  0.00     0.017 A 
ATOM     16  C   UNK d   1       2.044 -20.082 -38.552  0.00  0.00     0.025 A 
ATOM     17  C   UNK d   1       3.294 -19.995 -37.992  0.00  0.00     0.034 A 
ATOM     18 Cl   UNK d   1       4.571 -21.149 -38.275  0.00  0.00    -0.084 Cl
ATOM     19  C   UNK d   1       3.523 -18.915 -37.155  0.00  0.00     0.025 A 
ATOM     20  C   UNK d   1       2.556 -17.971 -36.891  0.00  0.00     0.017 A 
ENDBRANCH  12  14
ENDBRANCH  11  12
ENDBRANCH   1  11
BRANCH   4  21
ATOM     21  C   UNK d   1       2.794 -12.350 -37.785  0.00  0.00    -0.008 A 
ATOM     22  C   UNK d   1       3.563 -11.493 -37.065  0.00  0.00     0.016 A 
ATOM     23  C   UNK d   1       4.617 -10.764 -37.614  0.00  0.00     0.037 A 
ATOM     24  C   UNK d   1       4.930 -10.891 -38.940  0.00  0.00     0.068 A 
ATOM     25  C   UNK d   1       4.173 -11.753 -39.695  0.00  0.00     0.037 A 
ATOM     26  C   UNK d   1       3.133 -12.464 -39.138  0.00  0.00     0.016 A 
BRANCH  24  27
ATOM     27  O   UNK d   1       5.988 -10.169 -39.519  0.00  0.00    -0.356 OA
ATOM     28  C   UNK d   1       6.543 -10.504 -40.762  0.00  0.00     0.210 C 
ENDBRANCH  24  27
ENDBRANCH   4  21
TORSDOF 5
ENDMDL
