MODEL 1
REMARK VINA RESULT:    -6.750      0.000      0.000
REMARK INTER + INTRA:         -10.126
REMARK INTER:                  -9.118
REMARK INTRA:                  -1.008
REMARK UNBOUND:                -1.008
REMARK  6 active torsions:
REMARK  status: ('A' for Active; 'I' for Inactive)
REMARK    1  A    between atoms: C_3  and  N_15 
REMARK    2  A    between atoms: N_6  and  C_9 
REMARK       I    between atoms: N_18  and  C_21 
REMARK    3  A    between atoms: C_21  and  C_23 
REMARK    4  A    between atoms: C_23  and  C_24 
REMARK    5  A    between atoms: C_24  and  C_25 
REMARK    6  A    between atoms: C_25  and  N_26 
ROOT
ATOM      1  N   UNK d   1      -1.601 -16.352 -37.143  0.00  0.00    -0.375 N 
ATOM      2  C   UNK d   1      -2.748 -16.432 -38.043  0.00  0.00     0.143 C 
ATOM      3  C   UNK d   1      -2.894 -17.807 -38.654  0.00  0.00     0.145 C 
ATOM      4  N   UNK d   1      -2.131 -18.733 -37.852  0.00  0.00    -0.349 N 
ATOM      5  C   UNK d   1      -2.270 -18.586 -36.415  0.00  0.00     0.145 C 
ATOM      6  C   UNK d   1      -1.530 -17.306 -36.028  0.00  0.00     0.143 C 
ATOM      7  C   UNK d   1      -1.289 -19.734 -38.380  0.00  0.00     0.219 C 
ATOM      8  O   UNK d   1      -0.672 -20.485 -37.594  0.00  0.00    -0.273 OA
ENDROOT
BRANCH   1   9
ATOM      9  C   UNK d   1      -0.585 -15.406 -37.376  0.00  0.00     0.077 A 
ATOM     10  C   UNK d   1      -0.711 -14.062 -37.098  0.00  0.00     0.131 A 
ATOM     11 Cl   UNK d   1      -2.240 -13.491 -36.480  0.00  0.00    -0.076 Cl
ATOM     12  C   UNK d   1       0.351 -13.182 -37.322  0.00  0.00     0.292 A 
ATOM     13  N   UNK d   1       1.532 -13.581 -37.811  0.00  0.00    -0.197 N 
ATOM     14  O   UNK d   1       0.162 -11.971 -37.045  0.00  0.00    -0.264 OA
ATOM     15  N   UNK d   1       1.644 -14.866 -38.074  0.00  0.00    -0.174 NA
ATOM     16  C   UNK d   1       0.669 -15.773 -37.885  0.00  0.00     0.170 A 
BRANCH  13  17
ATOM     17  C   UNK d   1       2.618 -12.689 -38.042  0.00  0.00     0.062 A 
ATOM     18  C   UNK d   1       3.233 -11.995 -37.011  0.00  0.00     0.032 A 
ATOM     19  C   UNK d   1       4.286 -11.127 -37.217  0.00  0.00     0.002 A 
ATOM     20  C   UNK d   1       4.740 -10.948 -38.508  0.00  0.00     0.000 A 
ATOM     21  C   UNK d   1       4.149 -11.624 -39.559  0.00  0.00     0.002 A 
ATOM     22  C   UNK d   1       3.082 -12.498 -39.318  0.00  0.00     0.032 A 
ENDBRANCH  13  17
ENDBRANCH   1   9
BRANCH   7  23
ATOM     23  C   UNK d   1      -1.092 -19.950 -39.834  0.00  0.00     0.104 C 
BRANCH  23  24
ATOM     24  C   UNK d   1       0.176 -20.729 -40.094  0.00  0.00     0.029 C 
BRANCH  24  25
ATOM     25  C   UNK d   1       1.353 -19.839 -40.358  0.00  0.00     0.137 C 
BRANCH  25  26
ATOM     26  N   UNK d   1       2.498 -20.114 -39.518  0.00  0.00    -0.269 N 
ATOM     27  C   UNK d   1       3.577 -20.975 -39.832  0.00  0.00     0.327 A 
ATOM     28  O   UNK d   1       3.720 -21.652 -40.905  0.00  0.00    -0.247 OA
ATOM     29  N   UNK d   1       4.527 -21.010 -38.790  0.00  0.00    -0.329 N 
ATOM     30  C   UNK d   1       4.062 -20.148 -37.725  0.00  0.00     0.230 A 
ATOM     31  C   UNK d   1       5.759 -21.771 -38.772  0.00  0.00     0.155 C 
ATOM     32  C   UNK d   1       2.785 -19.587 -38.218  0.00  0.00     0.245 A 
ATOM     33  O   UNK d   1       2.060 -18.776 -37.604  0.00  0.00    -0.271 OA
ENDBRANCH  25  26
ENDBRANCH  24  25
ENDBRANCH  23  24
ENDBRANCH   7  23
TORSDOF 6
ENDMDL
