MODEL 1
REMARK VINA RESULT:    -6.207      0.000      0.000
REMARK INTER + INTRA:          -7.952
REMARK INTER:                  -7.296
REMARK INTRA:                  -0.656
REMARK UNBOUND:                -0.656
REMARK  3 active torsions:
REMARK  status: ('A' for Active; 'I' for Inactive)
REMARK    1  A    between atoms: C_3  and  N_15 
REMARK    2  A    between atoms: N_6  and  C_9 
REMARK       I    between atoms: N_18  and  C_21 
REMARK    3  A    between atoms: C_21  and  C_23 
ROOT
ATOM      1 Cl   UNK d   1       2.845 -18.147 -39.978  0.00  0.00    -0.076 Cl
ATOM      2  C   UNK d   1       2.466 -17.617 -38.342  0.00  0.00     0.131 A 
ATOM      3  C   UNK d   1       3.045 -18.300 -37.299  0.00  0.00     0.077 A 
ATOM      4  C   UNK d   1       2.726 -17.859 -36.025  0.00  0.00     0.170 A 
ATOM      5  N   UNK d   1       1.893 -16.817 -35.861  0.00  0.00    -0.174 NA
ATOM      6  N   UNK d   1       1.330 -16.151 -36.856  0.00  0.00    -0.197 N 
ATOM      7  C   UNK d   1       1.618 -16.554 -38.106  0.00  0.00     0.292 A 
ATOM      8  O   UNK d   1       1.117 -15.965 -39.106  0.00  0.00    -0.264 OA
ENDROOT
BRANCH   3   9
ATOM      9  N   UNK d   1       3.909 -19.385 -37.562  0.00  0.00    -0.375 N 
ATOM     10  C   UNK d   1       5.359 -19.239 -37.516  0.00  0.00     0.143 C 
ATOM     11  C   UNK d   1       5.820 -19.415 -38.976  0.00  0.00     0.145 C 
ATOM     12  N   UNK d   1       5.299 -20.630 -39.519  0.00  0.00    -0.347 N 
ATOM     13  C   UNK d   1       4.540 -21.505 -38.601  0.00  0.00     0.145 C 
ATOM     14  C   UNK d   1       5.476 -21.027 -40.870  0.00  0.00     0.248 C 
ATOM     15  C   UNK d   1       3.451 -20.722 -37.896  0.00  0.00     0.143 C 
ATOM     16  O   UNK d   1       4.995 -22.115 -41.308  0.00  0.00    -0.270 OA
BRANCH  14  17
ATOM     17  C   UNK d   1       6.221 -20.217 -41.850  0.00  0.00     0.213 C 
ATOM     18  O   UNK d   1       6.896 -21.007 -42.729  0.00  0.00    -0.376 OA
ATOM     19  C   UNK d   1       6.957 -20.349 -43.951  0.00  0.00     0.168 C 
ATOM     20  C   UNK d   1       5.541 -19.801 -44.059  0.00  0.00     0.029 C 
ATOM     21  C   UNK d   1       5.316 -19.304 -42.646  0.00  0.00     0.043 C 
ENDBRANCH  14  17
ENDBRANCH   3   9
BRANCH   6  22
ATOM     22  C   UNK d   1       0.447 -15.044 -36.615  0.00  0.00     0.062 A 
ATOM     23  C   UNK d   1       0.954 -13.826 -36.211  0.00  0.00     0.032 A 
ATOM     24  C   UNK d   1       0.106 -12.740 -35.974  0.00  0.00     0.002 A 
ATOM     25  C   UNK d   1      -1.249 -12.871 -36.140  0.00  0.00     0.000 A 
ATOM     26  C   UNK d   1      -1.767 -14.076 -36.540  0.00  0.00     0.002 A 
ATOM     27  C   UNK d   1      -0.920 -15.133 -36.770  0.00  0.00     0.032 A 
ENDBRANCH   6  22
TORSDOF 3
ENDMDL
