MODEL 1
REMARK VINA RESULT:    -6.361      0.000      0.000
REMARK INTER + INTRA:          -9.320
REMARK INTER:                  -8.220
REMARK INTRA:                  -1.100
REMARK UNBOUND:                -1.100
REMARK  5 active torsions:
REMARK  status: ('A' for Active; 'I' for Inactive)
REMARK    1  A    between atoms: C_3  and  N_15 
REMARK    2  A    between atoms: N_6  and  C_9 
REMARK       I    between atoms: N_18  and  C_21 
REMARK    3  A    between atoms: C_21  and  C_23 
REMARK    4  A    between atoms: C_23  and  O_24 
REMARK    5  A    between atoms: O_24  and  C_25 
ROOT
ATOM      1  N   UNK d   1       0.436 -15.531 -36.685  0.00  0.00    -0.375 N 
ATOM      2  C   UNK d   1      -0.943 -15.911 -36.553  0.00  0.00     0.143 C 
ATOM      3  C   UNK d   1      -1.867 -14.837 -37.081  0.00  0.00     0.145 C 
ATOM      4  N   UNK d   1      -1.340 -13.514 -36.858  0.00  0.00    -0.347 N 
ATOM      5  C   UNK d   1      -0.231 -13.354 -35.949  0.00  0.00     0.145 C 
ATOM      6  C   UNK d   1       0.915 -14.179 -36.476  0.00  0.00     0.143 C 
ATOM      7  C   UNK d   1      -1.908 -12.398 -37.523  0.00  0.00     0.244 C 
ATOM      8  O   UNK d   1      -2.887 -12.532 -38.326  0.00  0.00    -0.271 OA
ENDROOT
BRANCH   1   9
ATOM      9  C   UNK d   1       1.387 -16.535 -37.042  0.00  0.00     0.077 A 
ATOM     10  C   UNK d   1       1.630 -16.892 -38.353  0.00  0.00     0.131 A 
ATOM     11 Cl   UNK d   1       0.748 -16.084 -39.629  0.00  0.00    -0.076 Cl
ATOM     12  C   UNK d   1       2.568 -17.877 -38.619  0.00  0.00     0.292 A 
ATOM     13  N   UNK d   1       3.262 -18.514 -37.659  0.00  0.00    -0.197 N 
ATOM     14  O   UNK d   1       2.792 -18.206 -39.803  0.00  0.00    -0.264 OA
ATOM     15  N   UNK d   1       3.017 -18.160 -36.407  0.00  0.00    -0.174 NA
ATOM     16  C   UNK d   1       2.120 -17.211 -36.082  0.00  0.00     0.170 A 
BRANCH  13  17
ATOM     17  C   UNK d   1       4.218 -19.524 -37.995  0.00  0.00     0.062 A 
ATOM     18  C   UNK d   1       5.571 -19.255 -37.967  0.00  0.00     0.032 A 
ATOM     19  C   UNK d   1       6.499 -20.224 -38.290  0.00  0.00     0.002 A 
ATOM     20  C   UNK d   1       6.122 -21.500 -38.655  0.00  0.00     0.000 A 
ATOM     21  C   UNK d   1       4.771 -21.775 -38.684  0.00  0.00     0.002 A 
ATOM     22  C   UNK d   1       3.850 -20.805 -38.361  0.00  0.00     0.032 A 
ENDBRANCH  13  17
ENDBRANCH   1   9
BRANCH   7  23
ATOM     23  C   UNK d   1      -1.403 -11.013 -37.327  0.00  0.00     0.280 C 
BRANCH  23  24
ATOM     24  O   UNK d   1      -0.565 -10.608 -38.375  0.00  0.00    -0.324 OA
BRANCH  24  25
ATOM     25  C   UNK d   1       0.765 -10.982 -38.396  0.00  0.00     0.194 A 
ATOM     26  N   UNK d   1       1.411 -11.804 -39.230  0.00  0.00    -0.103 NA
ATOM     27  O   UNK d   1       2.659 -11.886 -38.903  0.00  0.00    -0.216 OA
ATOM     28  C   UNK d   1       2.930 -11.141 -37.851  0.00  0.00     0.079 A 
ATOM     29  C   UNK d   1       1.734 -10.548 -37.502  0.00  0.00     0.094 A 
ATOM     30  C   UNK d   1       4.271 -11.033 -37.249  0.00  0.00     0.079 C 
ENDBRANCH  24  25
ENDBRANCH  23  24
ENDBRANCH   7  23
TORSDOF 5
ENDMDL
