/Users/jonathanwahrer/Desktop/Msc/3_Semester/Drug_Design_Praktikum/waehrer_HTS_screening/HTS_experiment/out/docking_results/vina_output/6y4q/2381_docked.pdbqt
 OpenBabel03232219093D

 30 33  0  0  0  0  0  0  0  0999 V2000
    0.4360  -15.5310  -36.6850 N   0  0  0  0  0  0  0  0  0  0  0  0
   -0.9430  -15.9110  -36.5530 C   0  0  0  0  0  2  0  0  0  0  0  0
   -1.8670  -14.8370  -37.0810 C   0  0  0  0  0  2  0  0  0  0  0  0
   -1.3400  -13.5140  -36.8580 N   0  0  0  0  0  0  0  0  0  0  0  0
   -0.2310  -13.3540  -35.9490 C   0  0  0  0  0  2  0  0  0  0  0  0
    0.9150  -14.1790  -36.4760 C   0  0  0  0  0  2  0  0  0  0  0  0
   -1.9080  -12.3980  -37.5230 C   0  0  0  0  0  0  0  0  0  0  0  0
   -2.8870  -12.5320  -38.3260 O   0  0  0  0  0  0  0  0  0  0  0  0
    1.3870  -16.5350  -37.0420 C   0  0  0  0  0  0  0  0  0  0  0  0
    1.6300  -16.8920  -38.3530 C   0  0  0  0  0  0  0  0  0  0  0  0
    0.7480  -16.0840  -39.6290 Cl  0  0  0  0  0  0  0  0  0  0  0  0
    2.5680  -17.8770  -38.6190 C   0  0  0  0  0  0  0  0  0  0  0  0
    3.2620  -18.5140  -37.6590 N   0  0  0  0  0  0  0  0  0  0  0  0
    2.7920  -18.2060  -39.8030 O   0  0  0  0  0  0  0  0  0  0  0  0
    3.0170  -18.1600  -36.4070 N   0  0  0  0  0  0  0  0  0  0  0  0
    2.1200  -17.2110  -36.0820 C   0  0  0  0  0  3  0  0  0  0  0  0
    4.2180  -19.5240  -37.9950 C   0  0  0  0  0  0  0  0  0  0  0  0
    5.5710  -19.2550  -37.9670 C   0  0  0  0  0  3  0  0  0  0  0  0
    6.4990  -20.2240  -38.2900 C   0  0  0  0  0  3  0  0  0  0  0  0
    6.1220  -21.5000  -38.6550 C   0  0  0  0  0  3  0  0  0  0  0  0
    4.7710  -21.7750  -38.6840 C   0  0  0  0  0  3  0  0  0  0  0  0
    3.8500  -20.8050  -38.3610 C   0  0  0  0  0  3  0  0  0  0  0  0
   -1.4030  -11.0130  -37.3270 C   0  0  0  0  0  2  0  0  0  0  0  0
   -0.5650  -10.6080  -38.3750 O   0  0  0  0  0  0  0  0  0  0  0  0
    0.7650  -10.9820  -38.3960 C   0  0  0  0  0  0  0  0  0  0  0  0
    1.4110  -11.8040  -39.2300 N   0  0  0  0  0  0  0  0  0  0  0  0
    2.6590  -11.8860  -38.9030 O   0  0  0  0  0  0  0  0  0  0  0  0
    2.9300  -11.1410  -37.8510 C   0  0  0  0  0  0  0  0  0  0  0  0
    1.7340  -10.5480  -37.5020 C   0  0  0  0  0  3  0  0  0  0  0  0
    4.2710  -11.0330  -37.2490 C   0  0  0  0  0  1  0  0  0  0  0  0
  1  2  1  0  0  0  0
  1  6  1  0  0  0  0
  3  4  1  0  0  0  0
  3  2  1  0  0  0  0
  4  5  1  0  0  0  0
  6  5  1  0  0  0  0
  7 23  1  0  0  0  0
  7  4  1  0  0  0  0
  8  7  2  0  0  0  0
  9  1  1  0  0  0  0
  9 16  1  0  0  0  0
 10  9  2  0  0  0  0
 11 10  1  0  0  0  0
 12 10  1  0  0  0  0
 12 13  1  0  0  0  0
 13 15  1  0  0  0  0
 14 12  2  0  0  0  0
 15 16  2  0  0  0  0
 17 18  1  0  0  0  0
 17 13  1  0  0  0  0
 19 18  2  0  0  0  0
 20 19  1  0  0  0  0
 21 20  2  0  0  0  0
 21 22  1  0  0  0  0
 22 17  2  0  0  0  0
 24 23  1  0  0  0  0
 25 24  1  0  0  0  0
 25 29  1  0  0  0  0
 26 27  1  0  0  0  0
 26 25  2  0  0  0  0
 27 28  1  0  0  0  0
 28 29  2  0  0  0  0
 28 30  1  0  0  0  0
M  END
>  <Pose>
1

>  <Score>
-6.361

$$$$
