MODEL 1
REMARK VINA RESULT:    -6.718      0.000      0.000
REMARK INTER + INTRA:          -9.242
REMARK INTER:                  -8.289
REMARK INTRA:                  -0.953
REMARK UNBOUND:                -0.953
REMARK  4 active torsions:
REMARK  status: ('A' for Active; 'I' for Inactive)
REMARK       I    between atoms: N_11  and  C_13 
REMARK    1  A    between atoms: C_13  and  C_15 
REMARK    2  A    between atoms: C_15  and  C_16 
REMARK    3  A    between atoms: C_16  and  C_17 
REMARK    4  A    between atoms: C_17  and  N_18 
ROOT
ATOM      1 Cl   UNK d   1       1.501 -13.167 -36.612  0.00  0.00    -0.084 Cl
ATOM      2  C   UNK d   1       0.913 -14.806 -36.870  0.00  0.00     0.034 A 
ATOM      3  C   UNK d   1       1.729 -15.665 -37.603  0.00  0.00     0.035 A 
ATOM      4  C   UNK d   1       1.284 -16.951 -37.814  0.00  0.00    -0.005 A 
ATOM      5  C   UNK d   1       0.059 -17.361 -37.304  0.00  0.00     0.078 A 
ATOM      6  C   UNK d   1      -0.749 -16.498 -36.574  0.00  0.00     0.039 A 
ATOM      7  C   UNK d   1      -0.301 -15.206 -36.363  0.00  0.00     0.026 A 
ATOM      8  O   UNK d   1      -0.458 -18.634 -37.473  0.00  0.00    -0.338 OA
ATOM      9  C   UNK d   1      -0.254 -19.557 -38.508  0.00  0.00     0.088 C 
ATOM     10  C   UNK d   1       1.146 -20.006 -38.718  0.00  0.00     0.164 C 
ATOM     11  N   UNK d   1       2.177 -19.134 -38.255  0.00  0.00    -0.345 N 
ATOM     12  C   UNK d   1       2.284 -17.712 -38.609  0.00  0.00     0.167 C 
ATOM     13  C   UNK d   1       3.185 -19.655 -37.399  0.00  0.00     0.220 C 
ATOM     14  O   UNK d   1       3.106 -20.870 -37.106  0.00  0.00    -0.273 OA
ATOM     15  C   UNK d   1      -1.129 -20.791 -38.221  0.00  0.00     0.066 C 
ATOM     16  C   UNK d   1      -2.515 -20.274 -37.943  0.00  0.00     0.170 C 
ATOM     17  O   UNK d   1      -2.629 -18.912 -38.159  0.00  0.00    -0.391 OA
ATOM     18  C   UNK d   1      -2.268 -18.542 -39.442  0.00  0.00     0.170 C 
ATOM     19  C   UNK d   1      -0.866 -18.985 -39.796  0.00  0.00     0.066 C 
ENDROOT
BRANCH  13  20
ATOM     20  C   UNK d   1       4.270 -18.838 -36.880  0.00  0.00     0.104 C 
BRANCH  20  21
ATOM     21  C   UNK d   1       5.651 -19.180 -37.265  0.00  0.00     0.029 C 
BRANCH  21  22
ATOM     22  C   UNK d   1       6.035 -19.189 -38.686  0.00  0.00     0.137 C 
BRANCH  22  23
ATOM     23  N   UNK d   1       5.491 -20.150 -39.571  0.00  0.00    -0.269 N 
ATOM     24  C   UNK d   1       5.680 -21.551 -39.484  0.00  0.00     0.325 C 
ATOM     25  O   UNK d   1       6.343 -22.207 -38.626  0.00  0.00    -0.247 OA
ATOM     26  N   UNK d   1       4.973 -22.134 -40.564  0.00  0.00    -0.334 N 
ATOM     27  C   UNK d   1       4.042 -21.146 -41.103  0.00  0.00     0.227 C 
ATOM     28  H   UNK d   1       5.069 -23.098 -40.942  0.00  0.00     0.164 HD
ATOM     29  C   UNK d   1       4.677 -19.875 -40.693  0.00  0.00     0.245 C 
ATOM     30  O   UNK d   1       4.502 -18.743 -41.272  0.00  0.00    -0.271 OA
ENDBRANCH  22  23
ENDBRANCH  21  22
ENDBRANCH  20  21
ENDBRANCH  13  20
TORSDOF 4
ENDMDL
