MODEL 1
REMARK VINA RESULT:    -6.428      0.000      0.000
REMARK INTER + INTRA:         -10.002
REMARK INTER:                  -8.682
REMARK INTRA:                  -1.319
REMARK UNBOUND:                -1.319
REMARK  6 active torsions:
REMARK  status: ('A' for Active; 'I' for Inactive)
REMARK    1  A    between atoms: C_5  and  C_8 
REMARK    2  A    between atoms: N_9  and  C_28 
REMARK    3  A    between atoms: C_15  and  C_17 
REMARK    4  A    between atoms: C_25  and  O_26 
REMARK    5  A    between atoms: C_28  and  C_29 
REMARK    6  A    between atoms: C_29  and  N_30 
ROOT
ATOM      1  C   UNK d   1       1.572 -18.778 -38.956  0.00  0.00     0.161 C 
ATOM      2  N   UNK d   1       2.746 -19.226 -38.268  0.00  0.00    -0.331 N 
ATOM      3  C   UNK d   1       2.929 -18.496 -37.065  0.00  0.00     0.295 C 
ATOM      4  O   UNK d   1       3.713 -18.690 -36.104  0.00  0.00    -0.264 OA
ATOM      5  C   UNK d   1       1.988 -17.353 -37.070  0.00  0.00     0.251 C 
ATOM      6  O   UNK d   1       1.854 -16.481 -36.175  0.00  0.00    -0.282 OA
ATOM      7  C   UNK d   1       1.266 -17.466 -38.324  0.00  0.00     0.064 C 
ATOM      8  C   UNK d   1       0.445 -16.511 -38.778  0.00  0.00     0.153 C 
ATOM      9  O   UNK d   1      -0.184 -16.820 -39.991  0.00  0.00    -0.188 OA
ENDROOT
BRANCH   1  10
ATOM     10  C   UNK d   1       0.469 -19.724 -38.979  0.00  0.00    -0.030 A 
ATOM     11  C   UNK d   1       0.178 -20.401 -40.148  0.00  0.00     0.011 A 
ATOM     12  C   UNK d   1      -0.831 -21.310 -40.271  0.00  0.00     0.019 A 
ATOM     13  C   UNK d   1      -1.620 -21.590 -39.193  0.00  0.00     0.011 A 
ATOM     14 Br   UNK d   1      -3.020 -22.873 -39.416  0.00  0.00    -0.051 Br
ATOM     15  C   UNK d   1      -1.381 -20.950 -38.000  0.00  0.00     0.019 A 
ATOM     16  C   UNK d   1      -0.342 -20.026 -37.906  0.00  0.00     0.011 A 
ENDBRANCH   1  10
BRANCH   8  17
ATOM     17  C   UNK d   1       0.218 -15.248 -38.085  0.00  0.00     0.114 A 
ATOM     18  O   UNK d   1       0.884 -14.145 -38.101  0.00  0.00    -0.304 OA
ATOM     19  C   UNK d   1       0.395 -13.205 -37.349  0.00  0.00     0.119 A 
ATOM     20  C   UNK d   1      -0.744 -13.706 -36.737  0.00  0.00     0.003 A 
ATOM     21  C   UNK d   1       0.773 -11.902 -37.074  0.00  0.00     0.102 A 
ATOM     22  C   UNK d   1      -0.834 -15.012 -37.223  0.00  0.00     0.054 A 
ATOM     23  C   UNK d   1      -1.464 -12.910 -35.878  0.00  0.00     0.014 A 
ATOM     24  C   UNK d   1      -1.070 -11.618 -35.617  0.00  0.00     0.004 A 
ATOM     25  C   UNK d   1       0.069 -11.107 -36.226  0.00  0.00     0.040 A 
BRANCH  21  26
ATOM     26  O   UNK d   1       1.908 -11.425 -37.695  0.00  0.00    -0.353 OA
ATOM     27  C   UNK d   1       3.237 -11.747 -37.307  0.00  0.00     0.210 C 
ENDBRANCH  21  26
ENDBRANCH   8  17
BRANCH   2  28
ATOM     28  C   UNK d   1       3.638 -20.266 -38.704  0.00  0.00     0.155 C 
BRANCH  28  29
ATOM     29  C   UNK d   1       4.800 -19.705 -39.503  0.00  0.00     0.254 C 
BRANCH  29  30
ATOM     30  N   UNK d   1       6.075 -20.073 -38.990  0.00  0.00    -0.077 N 
ATOM     31  C   UNK d   1       6.541 -19.314 -37.870  0.00  0.00     0.269 C 
ATOM     32  C   UNK d   1       6.129 -21.500 -38.702  0.00  0.00     0.269 C 
ATOM     33  H   UNK d   1       6.783 -19.915 -39.767  0.00  0.00     0.279 HD
ENDBRANCH  29  30
ENDBRANCH  28  29
ENDBRANCH   2  28
TORSDOF 6
ENDMDL
