/Users/jonathanwahrer/Desktop/Msc/3_Semester/Drug_Design_Praktikum/waehrer_HTS_screening/HTS_experiment/out/docking_results/vina_output/6y4q/2402_docked.pdbqt
 OpenBabel03232219103D

 33 36  0  0  1  0  0  0  0  0999 V2000
    1.5720  -18.7780  -38.9560 C   0  0  2  0  0  3  0  0  0  0  0  0
    2.7460  -19.2260  -38.2680 N   0  0  0  0  0  0  0  0  0  0  0  0
    2.9290  -18.4960  -37.0650 C   0  0  0  0  0  0  0  0  0  0  0  0
    3.7130  -18.6900  -36.1040 O   0  0  0  0  0  0  0  0  0  0  0  0
    1.9880  -17.3530  -37.0700 C   0  0  0  0  0  0  0  0  0  0  0  0
    1.8540  -16.4810  -36.1750 O   0  0  0  0  0  0  0  0  0  0  0  0
    1.2660  -17.4660  -38.3240 C   0  0  0  0  0  0  0  0  0  0  0  0
    0.4450  -16.5110  -38.7780 C   0  0  0  0  0  0  0  0  0  0  0  0
   -0.1840  -16.8200  -39.9910 O   0  0  0  0  0  1  0  0  0  0  0  0
    0.4690  -19.7240  -38.9790 C   0  0  0  0  0  0  0  0  0  0  0  0
    0.1780  -20.4010  -40.1480 C   0  0  0  0  0  3  0  0  0  0  0  0
   -0.8310  -21.3100  -40.2710 C   0  0  0  0  0  3  0  0  0  0  0  0
   -1.6200  -21.5900  -39.1930 C   0  0  0  0  0  0  0  0  0  0  0  0
   -3.0200  -22.8730  -39.4160 Br  0  0  0  0  0  0  0  0  0  0  0  0
   -1.3810  -20.9500  -38.0000 C   0  0  0  0  0  3  0  0  0  0  0  0
   -0.3420  -20.0260  -37.9060 C   0  0  0  0  0  3  0  0  0  0  0  0
    0.2180  -15.2480  -38.0850 C   0  0  0  0  0  0  0  0  0  0  0  0
    0.8840  -14.1450  -38.1010 O   0  0  0  0  0  0  0  0  0  0  0  0
    0.3950  -13.2050  -37.3490 C   0  0  0  0  0  0  0  0  0  0  0  0
   -0.7440  -13.7060  -36.7370 C   0  0  0  0  0  0  0  0  0  0  0  0
    0.7730  -11.9020  -37.0740 C   0  0  0  0  0  0  0  0  0  0  0  0
   -0.8340  -15.0120  -37.2230 C   0  0  0  0  0  3  0  0  0  0  0  0
   -1.4640  -12.9100  -35.8780 C   0  0  0  0  0  3  0  0  0  0  0  0
   -1.0700  -11.6180  -35.6170 C   0  0  0  0  0  3  0  0  0  0  0  0
    0.0690  -11.1070  -36.2260 C   0  0  0  0  0  3  0  0  0  0  0  0
    1.9080  -11.4250  -37.6950 O   0  0  0  0  0  0  0  0  0  0  0  0
    3.2370  -11.7470  -37.3070 C   0  0  0  0  0  1  0  0  0  0  0  0
    3.6380  -20.2660  -38.7040 C   0  0  0  0  0  2  0  0  0  0  0  0
    4.8000  -19.7050  -39.5030 C   0  0  0  0  0  2  0  0  0  0  0  0
    6.0750  -20.0730  -38.9900 N   0  0  0  0  0  4  0  0  0  0  0  0
    6.5410  -19.3140  -37.8700 C   0  0  0  0  0  1  0  0  0  0  0  0
    6.1290  -21.5000  -38.7020 C   0  0  0  0  0  1  0  0  0  0  0  0
    6.7830  -19.9150  -39.7670 H   0  0  0  0  0  0  0  0  0  0  0  0
  1 10  1  1  0  0  0
  1  7  1  0  0  0  0
  1  2  1  0  0  0  0
  2  3  1  0  0  0  0
  3  4  2  0  0  0  0
  5  3  1  0  0  0  0
  5  6  2  0  0  0  0
  7  5  1  0  0  0  0
  8  7  2  0  0  0  0
  8 17  1  0  0  0  0
  9  8  1  0  0  0  0
 10 16  1  0  0  0  0
 11 10  2  0  0  0  0
 12 11  1  0  0  0  0
 12 13  2  0  0  0  0
 13 15  1  0  0  0  0
 14 13  1  0  0  0  0
 15 16  2  0  0  0  0
 17 22  2  0  0  0  0
 18 17  1  0  0  0  0
 18 19  1  0  0  0  0
 19 21  2  0  0  0  0
 19 20  1  0  0  0  0
 20 23  2  0  0  0  0
 21 25  1  0  0  0  0
 22 20  1  0  0  0  0
 23 24  1  0  0  0  0
 25 24  2  0  0  0  0
 26 27  1  0  0  0  0
 26 21  1  0  0  0  0
 28  2  1  0  0  0  0
 29 30  1  0  0  0  0
 29 28  1  0  0  0  0
 30 32  1  0  0  0  0
 30 31  1  0  0  0  0
 33 30  1  0  0  0  0
M  END
>  <Pose>
1

>  <Score>
-6.428

$$$$
