MODEL 1
REMARK VINA RESULT:    -6.740      0.000      0.000
REMARK INTER + INTRA:          -8.086
REMARK INTER:                  -7.528
REMARK INTRA:                  -0.559
REMARK UNBOUND:                -0.559
REMARK  2 active torsions:
REMARK  status: ('A' for Active; 'I' for Inactive)
REMARK    1  A    between atoms: C_7  and  C_11 
REMARK    2  A    between atoms: C_11  and  N_12 
ROOT
ATOM      1  N   UNK d   1       2.094 -18.455 -37.589  0.00  0.00    -0.328 N 
ATOM      2  C   UNK d   1       2.415 -19.361 -38.524  0.00  0.00     0.151 A 
ATOM      3  C   UNK d   1       3.663 -19.918 -38.266  0.00  0.00     0.167 A 
ATOM      4  N   UNK d   1       4.090 -19.313 -37.133  0.00  0.00    -0.223 NA
ATOM      5  C   UNK d   1       3.161 -18.443 -36.728  0.00  0.00     0.213 A 
ATOM      6  N   UNK d   1       4.237 -20.855 -39.048  0.00  0.00    -0.286 N 
ATOM      7  C   UNK d   1       3.532 -21.244 -40.128  0.00  0.00     0.332 A 
ATOM      8  O   UNK d   1       4.054 -22.120 -40.871  0.00  0.00    -0.246 OA
ATOM      9  N   UNK d   1       2.325 -20.737 -40.423  0.00  0.00    -0.269 N 
ATOM     10  C   UNK d   1       1.749 -19.801 -39.641  0.00  0.00     0.282 A 
ATOM     11  O   UNK d   1       0.629 -19.317 -39.900  0.00  0.00    -0.265 OA
ATOM     12  C   UNK d   1       1.569 -21.159 -41.588  0.00  0.00     0.164 C 
ATOM     13  C   UNK d   1       5.542 -21.398 -38.723  0.00  0.00     0.163 C 
ENDROOT
BRANCH   1  14
ATOM     14  C   UNK d   1       0.899 -17.648 -37.436  0.00  0.00     0.189 C 
BRANCH  14  15
ATOM     15  C   UNK d   1       1.201 -16.178 -37.438  0.00  0.00     0.060 A 
ATOM     16  N   UNK d   1       1.769 -15.634 -38.529  0.00  0.00    -0.233 NA
ATOM     17  C   UNK d   1       2.055 -14.300 -38.584  0.00  0.00     0.137 A 
ATOM     18  N   UNK d   1       1.778 -13.494 -37.548  0.00  0.00    -0.272 N 
ATOM     19  C   UNK d   1       2.640 -13.791 -39.732  0.00  0.00     0.052 A 
ATOM     20  C   UNK d   1       2.060 -12.176 -37.601  0.00  0.00     0.121 A 
ATOM     21  C   UNK d   1       1.201 -13.986 -36.413  0.00  0.00     0.255 A 
ATOM     22  C   UNK d   1       2.639 -11.664 -38.731  0.00  0.00     0.027 A 
ATOM     23 Br   UNK d   1       3.026  -9.799 -38.776  0.00  0.00    -0.050 Br
ATOM     24  C   UNK d   1       2.941 -12.454 -39.816  0.00  0.00     0.024 A 
ATOM     25  C   UNK d   1       0.925 -15.335 -36.390  0.00  0.00     0.103 A 
ATOM     26  O   UNK d   1       0.961 -13.206 -35.479  0.00  0.00    -0.268 OA
ENDBRANCH  14  15
ENDBRANCH   1  14
TORSDOF 2
ENDMDL
