MODEL 1
REMARK VINA RESULT:    -7.535      0.000      0.000
REMARK INTER + INTRA:         -10.325
REMARK INTER:                  -9.298
REMARK INTRA:                  -1.028
REMARK UNBOUND:                -1.028
REMARK  4 active torsions:
REMARK  status: ('A' for Active; 'I' for Inactive)
REMARK    1  A    between atoms: S_1  and  N_4 
REMARK    2  A    between atoms: S_1  and  C_26 
REMARK       I    between atoms: N_7  and  C_10 
REMARK    3  A    between atoms: C_10  and  C_12 
REMARK    4  A    between atoms: C_12  and  C_13 
ROOT
ATOM      1  N   UNK d   1       4.012 -20.234 -38.266  0.00  0.00    -0.304 N 
ATOM      2  C   UNK d   1       2.858 -20.446 -39.015  0.00  0.00     0.155 C 
ATOM      3  C   UNK d   1       1.652 -19.901 -38.238  0.00  0.00     0.146 C 
ATOM      4  N   UNK d   1       2.013 -18.631 -37.606  0.00  0.00    -0.349 N 
ATOM      5  C   UNK d   1       3.144 -18.668 -36.700  0.00  0.00     0.146 C 
ATOM      6  C   UNK d   1       3.804 -20.041 -36.891  0.00  0.00     0.155 C 
ATOM      7  C   UNK d   1       1.284 -17.446 -37.904  0.00  0.00     0.222 C 
ATOM      8  O   UNK d   1       0.338 -17.540 -38.721  0.00  0.00    -0.273 OA
ENDROOT
BRANCH   7   9
ATOM      9  C   UNK d   1       1.636 -16.173 -37.276  0.00  0.00     0.138 C 
BRANCH   9  10
ATOM     10  C   UNK d   1       0.870 -14.977 -37.823  0.00  0.00     0.186 C 
ATOM     11  N   UNK d   1       1.212 -14.647 -39.181  0.00  0.00    -0.343 N 
ATOM     12  C   UNK d   1       1.904 -13.546 -39.754  0.00  0.00     0.254 C 
ATOM     13  H   UNK d   1       0.908 -15.334 -39.940  0.00  0.00     0.163 HD
ATOM     14  O   UNK d   1       1.745 -13.265 -40.971  0.00  0.00    -0.268 OA
ATOM     15  C   UNK d   1       2.841 -12.629 -39.069  0.00  0.00     0.058 A 
ATOM     16  C   UNK d   1       2.878 -12.337 -37.701  0.00  0.00     0.050 A 
ATOM     17  C   UNK d   1       3.754 -12.036 -39.902  0.00  0.00     0.019 A 
ATOM     18  C   UNK d   1       3.818 -11.468 -37.224  0.00  0.00     0.030 A 
ATOM     19  N   UNK d   1       2.008 -12.868 -36.712  0.00  0.00    -0.324 N 
ATOM     20  C   UNK d   1       4.760 -10.850 -38.049  0.00  0.00     0.002 A 
ATOM     21  C   UNK d   1       4.698 -11.163 -39.407  0.00  0.00     0.001 A 
ATOM     22  C   UNK d   1       0.980 -13.850 -36.873  0.00  0.00     0.245 C 
ATOM     23  H   UNK d   1       2.146 -12.496 -35.773  0.00  0.00     0.169 HD
ATOM     24  O   UNK d   1       0.020 -13.690 -36.038  0.00  0.00    -0.271 OA
ENDBRANCH   9  10
ENDBRANCH   7   9
BRANCH   1  25
ATOM     25  S   UNK d   1       5.528 -20.505 -38.878  0.00  0.00     0.260 S 
ATOM     26  O   UNK d   1       6.520 -19.629 -38.135  0.00  0.00    -0.200 OA
ATOM     27  O   UNK d   1       6.025 -21.924 -38.693  0.00  0.00    -0.200 OA
BRANCH  25  28
ATOM     28  C   UNK d   1       5.694 -20.101 -40.590  0.00  0.00     0.079 A 
ATOM     29  C   UNK d   1       5.477 -18.823 -41.053  0.00  0.00     0.027 A 
ATOM     30  C   UNK d   1       5.614 -18.558 -42.398  0.00  0.00     0.025 A 
ATOM     31  C   UNK d   1       5.964 -19.518 -43.328  0.00  0.00     0.034 A 
ATOM     32  C   UNK d   1       6.182 -20.807 -42.858  0.00  0.00     0.025 A 
ATOM     33 Cl   UNK d   1       6.140 -19.192 -45.021  0.00  0.00    -0.084 Cl
ATOM     34  C   UNK d   1       6.044 -21.068 -41.514  0.00  0.00     0.027 A 
ENDBRANCH  25  28
ENDBRANCH   1  25
TORSDOF 4
ENDMDL
