/Users/jonathanwahrer/Desktop/Msc/3_Semester/Drug_Design_Praktikum/waehrer_HTS_screening/HTS_experiment/out/docking_results/vina_output/6y4q/2416_docked.pdbqt
 OpenBabel03232219103D

 34 37  0  0  1  0  0  0  0  0999 V2000
    4.0120  -20.2340  -38.2660 N   0  0  0  0  0  0  0  0  0  0  0  0
    2.8580  -20.4460  -39.0150 C   0  0  0  0  0  2  0  0  0  0  0  0
    1.6520  -19.9010  -38.2380 C   0  0  0  0  0  2  0  0  0  0  0  0
    2.0130  -18.6310  -37.6060 N   0  0  0  0  0  0  0  0  0  0  0  0
    3.1440  -18.6680  -36.7000 C   0  0  0  0  0  2  0  0  0  0  0  0
    3.8040  -20.0410  -36.8910 C   0  0  0  0  0  2  0  0  0  0  0  0
    1.2840  -17.4460  -37.9040 C   0  0  0  0  0  0  0  0  0  0  0  0
    0.3380  -17.5400  -38.7210 O   0  0  0  0  0  0  0  0  0  0  0  0
    1.6360  -16.1730  -37.2760 C   0  0  0  0  0  2  0  0  0  0  0  0
    0.8700  -14.9770  -37.8230 C   0  0  2  0  0  3  0  0  0  0  0  0
    1.2120  -14.6470  -39.1810 N   0  0  0  0  0  0  0  0  0  0  0  0
    1.9040  -13.5460  -39.7540 C   0  0  0  0  0  0  0  0  0  0  0  0
    0.9080  -15.3340  -39.9400 H   0  0  0  0  0  0  0  0  0  0  0  0
    1.7450  -13.2650  -40.9710 O   0  0  0  0  0  0  0  0  0  0  0  0
    2.8410  -12.6290  -39.0690 C   0  0  0  0  0  0  0  0  0  0  0  0
    2.8780  -12.3370  -37.7010 C   0  0  0  0  0  0  0  0  0  0  0  0
    3.7540  -12.0360  -39.9020 C   0  0  0  0  0  3  0  0  0  0  0  0
    3.8180  -11.4680  -37.2240 C   0  0  0  0  0  3  0  0  0  0  0  0
    2.0080  -12.8680  -36.7120 N   0  0  0  0  0  0  0  0  0  0  0  0
    4.7600  -10.8500  -38.0490 C   0  0  0  0  0  3  0  0  0  0  0  0
    4.6980  -11.1630  -39.4070 C   0  0  0  0  0  3  0  0  0  0  0  0
    0.9800  -13.8500  -36.8730 C   0  0  0  0  0  0  0  0  0  0  0  0
    2.1460  -12.4960  -35.7730 H   0  0  0  0  0  0  0  0  0  0  0  0
    0.0200  -13.6900  -36.0380 O   0  0  0  0  0  0  0  0  0  0  0  0
    5.5280  -20.5050  -38.8780 S   0  0  0  0  0  0  0  0  0  0  0  0
    6.5200  -19.6290  -38.1350 O   0  0  0  0  0  0  0  0  0  0  0  0
    6.0250  -21.9240  -38.6930 O   0  0  0  0  0  0  0  0  0  0  0  0
    5.6940  -20.1010  -40.5900 C   0  0  0  0  0  0  0  0  0  0  0  0
    5.4770  -18.8230  -41.0530 C   0  0  0  0  0  3  0  0  0  0  0  0
    5.6140  -18.5580  -42.3980 C   0  0  0  0  0  3  0  0  0  0  0  0
    5.9640  -19.5180  -43.3280 C   0  0  0  0  0  0  0  0  0  0  0  0
    6.1820  -20.8070  -42.8580 C   0  0  0  0  0  3  0  0  0  0  0  0
    6.1400  -19.1920  -45.0210 Cl  0  0  0  0  0  0  0  0  0  0  0  0
    6.0440  -21.0680  -41.5140 C   0  0  0  0  0  3  0  0  0  0  0  0
  1  6  1  0  0  0  0
  2  1  1  0  0  0  0
  2  3  1  0  0  0  0
  3  4  1  0  0  0  0
  4  5  1  0  0  0  0
  6  5  1  0  0  0  0
  7  4  1  0  0  0  0
  7  9  1  0  0  0  0
  8  7  2  0  0  0  0
 10  9  1  1  0  0  0
 10 22  1  0  0  0  0
 11 10  1  0  0  0  0
 12 11  1  0  0  0  0
 12 15  1  0  0  0  0
 13 11  1  0  0  0  0
 14 12  2  0  0  0  0
 15 16  1  0  0  0  0
 16 18  2  0  0  0  0
 16 19  1  0  0  0  0
 17 21  1  0  0  0  0
 17 15  2  0  0  0  0
 19 23  1  0  0  0  0
 20 18  1  0  0  0  0
 21 20  2  0  0  0  0
 22 19  1  0  0  0  0
 22 24  2  0  0  0  0
 25 27  2  0  0  0  0
 25  1  1  0  0  0  0
 25 26  2  0  0  0  0
 28 25  1  0  0  0  0
 29 28  1  0  0  0  0
 30 29  2  0  0  0  0
 31 32  2  0  0  0  0
 31 30  1  0  0  0  0
 32 34  1  0  0  0  0
 33 31  1  0  0  0  0
 34 28  2  0  0  0  0
M  END
>  <Pose>
1

>  <Score>
-7.535

$$$$
