MODEL 1
REMARK VINA RESULT:    -6.082      0.000      0.000
REMARK INTER + INTRA:          -8.713
REMARK INTER:                  -8.038
REMARK INTRA:                  -0.675
REMARK UNBOUND:                -0.675
REMARK  6 active torsions:
REMARK  status: ('A' for Active; 'I' for Inactive)
REMARK    1  A    between atoms: C_7  and  C_8 
REMARK    2  A    between atoms: C_8  and  N_9 
REMARK    3  A    between atoms: C_11  and  C_16 
REMARK    4  A    between atoms: C_12  and  C_14 
REMARK    5  A    between atoms: C_14  and  O_15 
REMARK    6  A    between atoms: C_16  and  N_17 
ROOT
ATOM      1  N   UNK d   1       5.374 -21.401 -40.026  0.00  0.00     0.095 N 
ATOM      2  C   UNK d   1       4.443 -21.451 -38.876  0.00  0.00     0.279 C 
ATOM      3  C   UNK d   1       3.890 -20.100 -38.851  0.00  0.00     0.050 C 
ATOM      4  C   UNK d   1       5.166 -19.273 -38.877  0.00  0.00     0.045 C 
ATOM      5  C   UNK d   1       5.861 -20.088 -40.049  0.00  0.00     0.280 C 
ENDROOT
BRANCH   1   6
ATOM      6  C   UNK d   1       4.614 -21.894 -41.185  0.00  0.00     0.334 C 
BRANCH   6   7
ATOM      7  C   UNK d   1       5.339 -22.670 -42.160  0.00  0.00     0.097 A 
ATOM      8  C   UNK d   1       4.977 -23.793 -42.870  0.00  0.00     0.042 A 
ATOM      9  C   UNK d   1       3.756 -24.402 -43.032  0.00  0.00     0.048 A 
ATOM     10  C   UNK d   1       6.036 -24.296 -43.590  0.00  0.00     0.066 A 
ATOM     11 Cl   UNK d   1       2.427 -23.845 -42.020  0.00  0.00    -0.083 Cl
ATOM     12  C   UNK d   1       3.577 -25.459 -43.883  0.00  0.00     0.025 A 
ATOM     13  C   UNK d   1       4.662 -25.950 -44.603  0.00  0.00     0.004 A 
ATOM     14  C   UNK d   1       5.913 -25.346 -44.447  0.00  0.00     0.032 A 
ATOM     15  N   UNK d   1       7.072 -23.477 -43.302  0.00  0.00    -0.273 N 
ATOM     16  N   UNK d   1       6.675 -22.536 -42.487  0.00  0.00    -0.174 NA
ATOM     17  C   UNK d   1       8.455 -23.707 -43.754  0.00  0.00     0.180 C 
ENDBRANCH   6   7
ENDBRANCH   1   6
BRANCH   3  18
ATOM     18  C   UNK d   1       3.063 -19.749 -37.640  0.00  0.00     0.279 C 
BRANCH  18  19
ATOM     19  N   UNK d   1       2.435 -18.486 -37.872  0.00  0.00     0.093 N 
ATOM     20  C   UNK d   1       1.077 -18.610 -38.357  0.00  0.00     0.298 C 
ATOM     21  C   UNK d   1       0.055 -17.932 -37.474  0.00  0.00     0.198 C 
ATOM     22  O   UNK d   1       0.331 -16.610 -37.209  0.00  0.00    -0.388 OA
ATOM     23  C   UNK d   1       1.694 -16.360 -37.076  0.00  0.00     0.198 C 
ATOM     24  C   UNK d   1       2.399 -17.630 -36.709  0.00  0.00     0.298 C 
ENDBRANCH  18  19
ENDBRANCH   3  18
BRANCH   4  25
ATOM     25  C   UNK d   1       6.033 -19.562 -37.685  0.00  0.00     0.170 C 
BRANCH  25  26
ATOM     26  O   UNK d   1       7.235 -18.815 -37.792  0.00  0.00    -0.400 OA
ATOM     27  H   UNK d   1       7.302 -18.282 -36.909  0.00  0.00     0.209 HD
ENDBRANCH  25  26
ENDBRANCH   4  25
TORSDOF 6
ENDMDL
