/Users/jonathanwahrer/Desktop/Msc/3_Semester/Drug_Design_Praktikum/waehrer_HTS_screening/HTS_experiment/out/docking_results/vina_output/6y4q/2419_docked.pdbqt
 OpenBabel03232219113D

 32 36  0  0  1  0  0  0  0  0999 V2000
    0.6550  -14.9180  -37.2310 C   0  0  0  0  0  0  0  0  0  0  0  0
   -0.7270  -14.7180  -37.3760 C   0  0  0  0  0  3  0  0  0  0  0  0
   -1.3180  -15.8390  -36.9800 N   0  0  0  0  0  0  0  0  0  0  0  0
   -2.5780  -16.3570  -36.8540 C   0  0  0  0  0  0  0  0  0  0  0  0
   -2.3990  -17.6280  -36.3680 C   0  0  0  0  0  0  0  0  0  0  0  0
   -1.0960  -17.8180  -36.2270 N   0  0  0  0  0  0  0  0  0  0  0  0
   -0.4050  -16.7040  -36.6060 C   0  0  1  0  0  3  0  0  0  0  0  0
    0.8360  -16.1540  -36.7520 N   0  0  0  0  0  0  0  0  0  0  0  0
   -3.4860  -18.4690  -36.1130 C   0  0  0  0  0  3  0  0  0  0  0  0
   -4.7670  -18.0200  -36.3500 C   0  0  0  0  0  3  0  0  0  0  0  0
   -4.9190  -16.7410  -36.8360 C   0  0  0  0  0  3  0  0  0  0  0  0
   -3.8440  -15.8990  -37.0940 C   0  0  0  0  0  3  0  0  0  0  0  0
   -0.6910  -18.7090  -35.8840 H   0  0  0  0  0  0  0  0  0  0  0  0
    2.0190  -16.8910  -36.4300 C   0  0  0  0  0  3  0  0  0  0  0  0
    2.4600  -17.9210  -37.3900 C   0  0  0  0  0  3  0  0  0  0  0  0
    3.5620  -18.8390  -37.0000 C   0  0  0  0  0  2  0  0  0  0  0  0
    3.2080  -20.2270  -37.2020 N   0  0  0  0  0  4  0  0  0  0  0  0
    3.1550  -20.8080  -36.3690 H   0  0  0  0  0  0  0  0  0  0  0  0
    2.1850  -20.2060  -37.5610 H   0  0  0  0  0  0  0  0  0  0  0  0
    3.9500  -20.8530  -38.2560 C   0  0  0  0  0  3  0  0  0  0  0  0
    3.3500  -20.7120  -39.6270 C   0  0  0  0  0  2  0  0  0  0  0  0
    3.9840  -21.8170  -40.4850 C   0  0  0  0  0  2  0  0  0  0  0  0
    5.4530  -21.5780  -40.5570 C   0  0  0  0  0  2  0  0  0  0  0  0
    6.1110  -21.4200  -39.2060 C   0  0  0  0  0  2  0  0  0  0  0  0
    5.3850  -20.3570  -38.3740 C   0  0  0  0  0  2  0  0  0  0  0  0
    1.6330  -13.9110  -37.5820 C   0  0  0  0  0  0  0  0  0  0  0  0
    2.0930  -13.8600  -38.8820 C   0  0  0  0  0  3  0  0  0  0  0  0
    3.0070  -12.9320  -39.2920 C   0  0  0  0  0  3  0  0  0  0  0  0
    3.5140  -12.0080  -38.4310 C   0  0  0  0  0  0  0  0  0  0  0  0
    4.8050  -10.6970  -39.0020 Br  0  0  0  0  0  0  0  0  0  0  0  0
    3.0850  -12.0240  -37.1340 C   0  0  0  0  0  3  0  0  0  0  0  0
    2.1360  -12.9920  -36.7240 C   0  0  0  0  0  3  0  0  0  0  0  0
  1  8  1  0  0  0  0
  2  1  2  0  0  0  0
  2  3  1  0  0  0  0
  3  4  1  0  0  0  0
  4  5  1  0  0  0  0
  5  6  1  0  0  0  0
  5  9  2  0  0  0  0
  6 13  1  0  0  0  0
  7  3  1  6  0  0  0
  7  6  1  0  0  0  0
  8  7  1  0  0  0  0
  8 14  1  0  0  0  0
 10  9  1  0  0  0  0
 11 10  2  0  0  0  0
 12  4  2  0  0  0  0
 12 11  1  0  0  0  0
 15 16  1  0  0  0  0
 15 14  2  0  0  0  0
 17 16  1  0  0  0  0
 17 18  1  0  0  0  0
 19 17  1  0  0  0  0
 20 17  1  0  0  0  0
 21 20  1  0  0  0  0
 22 21  1  0  0  0  0
 23 22  1  0  0  0  0
 23 24  1  0  0  0  0
 24 25  1  0  0  0  0
 25 20  1  0  0  0  0
 26  1  1  0  0  0  0
 26 32  1  0  0  0  0
 27 26  2  0  0  0  0
 28 27  1  0  0  0  0
 28 29  2  0  0  0  0
 29 31  1  0  0  0  0
 30 29  1  0  0  0  0
 31 32  2  0  0  0  0
M  END
>  <Pose>
1

>  <Score>
-7.308

$$$$
