MODEL 1
REMARK VINA RESULT:    -6.248      0.000      0.000
REMARK INTER + INTRA:          -8.894
REMARK INTER:                  -8.074
REMARK INTRA:                  -0.820
REMARK UNBOUND:                -0.820
REMARK  5 active torsions:
REMARK  status: ('A' for Active; 'I' for Inactive)
REMARK    1  A    between atoms: C_7  and  N_11 
REMARK    2  A    between atoms: C_13  and  C_17 
REMARK       I    between atoms: C_17  and  N_19 
REMARK    3  A    between atoms: N_19  and  C_20 
REMARK    4  A    between atoms: C_20  and  C_21 
REMARK    5  A    between atoms: C_21  and  N_22 
ROOT
ATOM      1  N   UNK d   1       0.253 -16.315 -37.621  0.00  0.00    -0.299 N 
ATOM      2  C   UNK d   1       0.069 -16.778 -38.995  0.00  0.00     0.148 C 
ATOM      3  C   UNK d   1       0.386 -18.254 -38.901  0.00  0.00     0.105 C 
ATOM      4  C   UNK d   1      -0.319 -18.651 -37.609  0.00  0.00     0.119 C 
ATOM      5  C   UNK d   1      -0.285 -17.371 -36.819  0.00  0.00     0.226 C 
ATOM      6  O   UNK d   1      -0.671 -17.236 -35.620  0.00  0.00    -0.273 OA
ENDROOT
BRANCH   3   7
ATOM      7  C   UNK d   1       1.843 -18.500 -38.788  0.00  0.00     0.223 C 
ATOM      8  O   UNK d   1       2.612 -17.869 -39.555  0.00  0.00    -0.273 OA
ATOM      9  N   UNK d   1       2.392 -19.413 -37.859  0.00  0.00    -0.359 N 
ATOM     10  H   UNK d   1       1.717 -19.925 -37.235  0.00  0.00     0.162 HD
BRANCH   9  11
ATOM     11  C   UNK d   1       3.806 -19.657 -37.744  0.00  0.00     0.152 C 
BRANCH  11  12
ATOM     12  C   UNK d   1       4.120 -21.055 -38.234  0.00  0.00     0.292 C 
BRANCH  12  13
ATOM     13  N   UNK d   1       5.104 -21.073 -39.289  0.00  0.00     0.094 N 
ATOM     14  C   UNK d   1       4.497 -21.730 -40.441  0.00  0.00     0.298 C 
ATOM     15  C   UNK d   1       3.675 -20.729 -41.249  0.00  0.00     0.198 C 
ATOM     16  O   UNK d   1       4.455 -19.778 -41.864  0.00  0.00    -0.388 OA
ATOM     17  C   UNK d   1       5.657 -19.672 -41.205  0.00  0.00     0.198 C 
ATOM     18  C   UNK d   1       5.494 -19.743 -39.700  0.00  0.00     0.298 C 
ENDBRANCH  12  13
ENDBRANCH  11  12
ENDBRANCH   9  11
ENDBRANCH   3   7
BRANCH   1  19
ATOM     19  C   UNK d   1       0.832 -15.091 -37.198  0.00  0.00     0.165 A 
ATOM     20  N   UNK d   1       0.733 -14.441 -36.031  0.00  0.00    -0.155 NA
ATOM     21  N   UNK d   1       1.439 -13.321 -36.063  0.00  0.00    -0.275 N 
ATOM     22  C   UNK d   1       2.037 -13.196 -37.282  0.00  0.00     0.065 A 
ATOM     23  H   UNK d   1       1.581 -12.582 -35.331  0.00  0.00     0.189 HD
ATOM     24  C   UNK d   1       2.855 -12.275 -37.866  0.00  0.00     0.051 A 
ATOM     25  C   UNK d   1       1.657 -14.307 -37.994  0.00  0.00     0.040 A 
ATOM     26  C   UNK d   1       3.311 -12.431 -39.156  0.00  0.00     0.013 A 
ATOM     27 Br   UNK d   1       4.453 -11.131 -39.950  0.00  0.00    -0.051 Br
ATOM     28  C   UNK d   1       2.929 -13.557 -39.886  0.00  0.00     0.020 A 
ATOM     29  C   UNK d   1       2.103 -14.488 -39.298  0.00  0.00     0.019 A 
ENDBRANCH   1  19
TORSDOF 5
ENDMDL
