/Users/jonathanwahrer/Desktop/Msc/3_Semester/Drug_Design_Praktikum/waehrer_HTS_screening/HTS_experiment/out/docking_results/vina_output/6y4q/2432_docked.pdbqt
 OpenBabel03232219113D

 26 29  0  0  0  0  0  0  0  0999 V2000
   -0.6350  -16.7960  -36.3410 C   0  0  0  0  0  0  0  0  0  0  0  0
   -0.5560  -17.3050  -35.1260 O   0  0  0  0  0  0  0  0  0  0  0  0
   -1.1170  -17.6270  -37.3400 N   0  0  0  0  0  0  0  0  0  0  0  0
   -1.4590  -19.0230  -36.9730 C   0  0  0  0  0  2  0  0  0  0  0  0
   -0.5590  -19.9010  -37.8010 C   0  0  0  0  0  2  0  0  0  0  0  0
    0.2260  -19.2070  -38.7710 N   0  0  0  0  0  0  0  0  0  0  0  0
   -0.2010  -17.9960  -39.4570 C   0  0  0  0  0  2  0  0  0  0  0  0
   -1.3560  -17.3490  -38.7070 C   0  0  0  0  0  2  0  0  0  0  0  0
   -0.1880  -15.4280  -36.3900 C   0  0  0  0  0  0  0  0  0  0  0  0
   -0.8620  -14.2810  -36.2900 N   0  0  0  0  0  0  0  0  0  0  0  0
   -0.0370  -13.2000  -36.3720 C   0  0  0  0  0  0  0  0  0  0  0  0
   -1.8820  -14.1190  -36.1750 H   0  0  0  0  0  0  0  0  0  0  0  0
   -0.4590  -11.5030  -36.2920 Cl  0  0  0  0  0  0  0  0  0  0  0  0
    1.2440  -13.6520  -36.5350 C   0  0  0  0  0  0  0  0  0  0  0  0
    1.1440  -15.0230  -36.5450 C   0  0  0  0  0  3  0  0  0  0  0  0
    2.6870  -12.6720  -36.6930 Cl  0  0  0  0  0  0  0  0  0  0  0  0
    1.5160  -19.6950  -39.1170 C   0  0  0  0  0  0  0  0  0  0  0  0
    1.6950  -20.4920  -40.1870 N   0  0  0  0  0  0  0  0  0  0  0  0
    2.9150  -20.9680  -40.5290 C   0  0  0  0  0  3  0  0  0  0  0  0
    3.9980  -20.6510  -39.7980 N   0  0  0  0  0  0  0  0  0  0  0  0
    3.9040  -19.8620  -38.7160 C   0  0  0  0  0  0  0  0  0  0  0  0
    4.8120  -19.4040  -37.8350 N   0  0  0  0  0  0  0  0  0  0  0  0
    2.6350  -19.3780  -38.3770 C   0  0  0  0  0  0  0  0  0  0  0  0
    4.1640  -18.6580  -36.9630 N   0  0  0  0  0  0  0  0  0  0  0  0
    6.2520  -19.6630  -37.8160 C   0  0  0  0  0  1  0  0  0  0  0  0
    2.8430  -18.6180  -37.2560 C   0  0  0  0  0  3  0  0  0  0  0  0
  1  2  2  0  0  0  0
  3  4  1  0  0  0  0
  3  1  1  0  0  0  0
  5  4  1  0  0  0  0
  6  5  1  0  0  0  0
  7  6  1  0  0  0  0
  7  8  1  0  0  0  0
  8  3  1  0  0  0  0
  9  1  1  0  0  0  0
  9 10  1  0  0  0  0
 10 12  1  0  0  0  0
 11 13  1  0  0  0  0
 11 10  1  0  0  0  0
 14 11  2  0  0  0  0
 15 14  1  0  0  0  0
 15  9  2  0  0  0  0
 16 14  1  0  0  0  0
 17  6  1  0  0  0  0
 17 23  1  0  0  0  0
 18 17  2  0  0  0  0
 19 18  1  0  0  0  0
 19 20  2  0  0  0  0
 20 21  1  0  0  0  0
 21 23  2  0  0  0  0
 21 22  1  0  0  0  0
 22 25  1  0  0  0  0
 22 24  1  0  0  0  0
 23 26  1  0  0  0  0
 26 24  2  0  0  0  0
M  END
>  <Pose>
1

>  <Score>
-6.335

$$$$
