MODEL 1
REMARK VINA RESULT:    -6.335      0.000      0.000
REMARK INTER + INTRA:          -7.881
REMARK INTER:                  -7.076
REMARK INTRA:                  -0.805
REMARK UNBOUND:                -0.805
REMARK  2 active torsions:
REMARK  status: ('A' for Active; 'I' for Inactive)
REMARK    1  A    between atoms: C_4  and  C_8 
REMARK       I    between atoms: C_8  and  N_10 
REMARK    2  A    between atoms: N_13  and  C_16 
ROOT
ATOM      1  C   UNK d   1      -0.635 -16.796 -36.341  0.00  0.00     0.204 C 
ATOM      2  O   UNK d   1      -0.556 -17.305 -35.126  0.00  0.00    -0.170 OA
ATOM      3  N   UNK d   1      -1.117 -17.627 -37.340  0.00  0.00    -0.355 N 
ATOM      4  C   UNK d   1      -1.459 -19.023 -36.973  0.00  0.00     0.145 C 
ATOM      5  C   UNK d   1      -0.559 -19.901 -37.801  0.00  0.00     0.144 C 
ATOM      6  N   UNK d   1       0.226 -19.207 -38.771  0.00  0.00    -0.362 N 
ATOM      7  C   UNK d   1      -0.201 -17.996 -39.457  0.00  0.00     0.144 C 
ATOM      8  C   UNK d   1      -1.356 -17.349 -38.707  0.00  0.00     0.145 C 
ENDROOT
BRANCH   1   9
ATOM      9  C   UNK d   1      -0.188 -15.428 -36.390  0.00  0.00     0.089 A 
ATOM     10  N   UNK d   1      -0.862 -14.281 -36.290  0.00  0.00    -0.342 N 
ATOM     11  C   UNK d   1      -0.037 -13.200 -36.372  0.00  0.00     0.126 A 
ATOM     12  H   UNK d   1      -1.882 -14.119 -36.175  0.00  0.00     0.167 HD
ATOM     13 Cl   UNK d   1      -0.459 -11.503 -36.292  0.00  0.00    -0.063 Cl
ATOM     14  C   UNK d   1       1.244 -13.652 -36.535  0.00  0.00     0.074 A 
ATOM     15  C   UNK d   1       1.144 -15.023 -36.545  0.00  0.00     0.061 A 
ATOM     16 Cl   UNK d   1       2.687 -12.672 -36.693  0.00  0.00    -0.081 Cl
ENDBRANCH   1   9
BRANCH   6  17
ATOM     17  C   UNK d   1       1.516 -19.695 -39.117  0.00  0.00     0.142 A 
ATOM     18  N   UNK d   1       1.695 -20.492 -40.187  0.00  0.00    -0.224 NA
ATOM     19  C   UNK d   1       2.915 -20.968 -40.529  0.00  0.00     0.237 A 
ATOM     20  N   UNK d   1       3.998 -20.651 -39.798  0.00  0.00    -0.222 NA
ATOM     21  C   UNK d   1       3.904 -19.862 -38.716  0.00  0.00     0.162 A 
ATOM     22  N   UNK d   1       4.812 -19.404 -37.835  0.00  0.00    -0.256 N 
ATOM     23  C   UNK d   1       2.635 -19.378 -38.377  0.00  0.00     0.076 A 
ATOM     24  N   UNK d   1       4.164 -18.658 -36.963  0.00  0.00    -0.182 NA
ATOM     25  C   UNK d   1       6.252 -19.663 -37.816  0.00  0.00     0.182 C 
ATOM     26  C   UNK d   1       2.843 -18.618 -37.256  0.00  0.00     0.158 A 
ENDBRANCH   6  17
TORSDOF 2
ENDMDL
