MODEL 1
REMARK VINA RESULT:    -7.012      0.000      0.000
REMARK INTER + INTRA:         -10.052
REMARK INTER:                  -9.062
REMARK INTRA:                  -0.991
REMARK UNBOUND:                -0.991
REMARK  5 active torsions:
REMARK  status: ('A' for Active; 'I' for Inactive)
REMARK    1  A    between atoms: C_5  and  C_8 
REMARK    2  A    between atoms: N_15  and  C_16 
REMARK    3  A    between atoms: C_16  and  C_17 
REMARK    4  A    between atoms: C_17  and  C_18 
REMARK    5  A    between atoms: C_18  and  N_19 
ROOT
ATOM      1  C   UNK d   1       0.521 -14.998 -37.135  0.00  0.00     0.078 A 
ATOM      2  C   UNK d   1      -0.858 -14.772 -37.295  0.00  0.00     0.146 A 
ATOM      3  N   UNK d   1      -1.522 -15.867 -36.931  0.00  0.00    -0.153 N 
ATOM      4  C   UNK d   1      -2.774 -16.381 -36.820  0.00  0.00     0.083 A 
ATOM      5  C   UNK d   1      -2.636 -17.644 -36.355  0.00  0.00     0.077 A 
ATOM      6  N   UNK d   1      -1.323 -17.865 -36.196  0.00  0.00    -0.189 N 
ATOM      7  C   UNK d   1      -0.616 -16.769 -36.549  0.00  0.00     0.692 A 
ATOM      8  N   UNK d   1       0.649 -16.248 -36.669  0.00  0.00    -0.180 N 
ATOM      9  C   UNK d   1      -3.747 -18.438 -36.133  0.00  0.00     0.032 A 
ATOM     10  C   UNK d   1      -5.022 -17.957 -36.384  0.00  0.00     0.002 A 
ATOM     11  C   UNK d   1      -5.163 -16.661 -36.861  0.00  0.00     0.002 A 
ATOM     12  C   UNK d   1      -4.036 -15.899 -37.070  0.00  0.00     0.033 A 
ATOM     13  H   UNK d   1      -0.893 -18.764 -35.855  0.00  0.00     0.184 HD
ENDROOT
BRANCH   8  14
ATOM     14  C   UNK d   1       1.838 -16.972 -36.361  0.00  0.00     0.149 C 
BRANCH  14  15
ATOM     15  C   UNK d   1       2.496 -17.667 -37.525  0.00  0.00     0.048 C 
BRANCH  15  16
ATOM     16  C   UNK d   1       3.220 -18.906 -37.237  0.00  0.00     0.236 C 
BRANCH  16  17
ATOM     17  N   UNK d   1       3.198 -19.979 -38.187  0.00  0.00    -0.071 N 
ATOM     18  C   UNK d   1       2.946 -19.518 -39.540  0.00  0.00     0.235 C 
ATOM     19  C   UNK d   1       4.125 -19.126 -40.325  0.00  0.00     0.028 C 
ATOM     20  C   UNK d   1       5.451 -19.488 -39.767  0.00  0.00     0.003 C 
ATOM     21  C   UNK d   1       5.390 -20.774 -39.023  0.00  0.00     0.028 C 
ATOM     22  C   UNK d   1       4.261 -20.913 -38.071  0.00  0.00     0.235 C 
ATOM     23  H   UNK d   1       2.319 -20.500 -37.970  0.00  0.00     0.279 HD
ENDBRANCH  16  17
ENDBRANCH  15  16
ENDBRANCH  14  15
ENDBRANCH   8  14
BRANCH   1  24
ATOM     24  C   UNK d   1       1.515 -13.975 -37.478  0.00  0.00    -0.007 A 
ATOM     25  C   UNK d   1       1.988 -13.926 -38.789  0.00  0.00     0.015 A 
ATOM     26  C   UNK d   1       2.914 -13.003 -39.235  0.00  0.00     0.020 A 
ATOM     27  C   UNK d   1       3.420 -12.069 -38.380  0.00  0.00     0.011 A 
ATOM     28 Br   UNK d   1       4.693 -10.781 -38.945  0.00  0.00    -0.051 Br
ATOM     29  C   UNK d   1       2.976 -12.090 -37.086  0.00  0.00     0.020 A 
ATOM     30  C   UNK d   1       2.028 -13.039 -36.634  0.00  0.00     0.015 A 
ENDBRANCH   1  24
TORSDOF 5
ENDMDL
