/Users/jonathanwahrer/Desktop/Msc/3_Semester/Drug_Design_Praktikum/waehrer_HTS_screening/HTS_experiment/out/docking_results/vina_output/6y4q/2439_docked.pdbqt
 OpenBabel03232219123D

 30 34  0  0  1  0  0  0  0  0999 V2000
    0.5210  -14.9980  -37.1350 C   0  0  0  0  0  0  0  0  0  0  0  0
   -0.8580  -14.7720  -37.2950 C   0  0  0  0  0  3  0  0  0  0  0  0
   -1.5220  -15.8670  -36.9310 N   0  0  0  0  0  0  0  0  0  0  0  0
   -2.7740  -16.3810  -36.8200 C   0  0  0  0  0  0  0  0  0  0  0  0
   -2.6360  -17.6440  -36.3550 C   0  0  0  0  0  0  0  0  0  0  0  0
   -1.3230  -17.8650  -36.1960 N   0  0  0  0  0  0  0  0  0  0  0  0
   -0.6160  -16.7690  -36.5490 C   0  0  1  0  0  3  0  0  0  0  0  0
    0.6490  -16.2480  -36.6690 N   0  0  0  0  0  0  0  0  0  0  0  0
   -3.7470  -18.4380  -36.1330 C   0  0  0  0  0  3  0  0  0  0  0  0
   -5.0220  -17.9570  -36.3840 C   0  0  0  0  0  3  0  0  0  0  0  0
   -5.1630  -16.6610  -36.8610 C   0  0  0  0  0  3  0  0  0  0  0  0
   -4.0360  -15.8990  -37.0700 C   0  0  0  0  0  3  0  0  0  0  0  0
   -0.8930  -18.7640  -35.8550 H   0  0  0  0  0  0  0  0  0  0  0  0
    1.8380  -16.9720  -36.3610 C   0  0  0  0  0  2  0  0  0  0  0  0
    2.4960  -17.6670  -37.5250 C   0  0  0  0  0  2  0  0  0  0  0  0
    3.2200  -18.9060  -37.2370 C   0  0  0  0  0  2  0  0  0  0  0  0
    3.1980  -19.9790  -38.1870 N   0  0  0  0  0  4  0  0  0  0  0  0
    2.9460  -19.5180  -39.5400 C   0  0  0  0  0  3  0  0  0  0  0  0
    4.1250  -19.1260  -40.3250 C   0  0  0  0  0  3  0  0  0  0  0  0
    5.4510  -19.4880  -39.7670 C   0  0  0  0  0  2  0  0  0  0  0  0
    5.3900  -20.7740  -39.0230 C   0  0  0  0  0  3  0  0  0  0  0  0
    4.2610  -20.9130  -38.0710 C   0  0  0  0  0  3  0  0  0  0  0  0
    2.3190  -20.5000  -37.9700 H   0  0  0  0  0  0  0  0  0  0  0  0
    1.5150  -13.9750  -37.4780 C   0  0  0  0  0  0  0  0  0  0  0  0
    1.9880  -13.9260  -38.7890 C   0  0  0  0  0  3  0  0  0  0  0  0
    2.9140  -13.0030  -39.2350 C   0  0  0  0  0  3  0  0  0  0  0  0
    3.4200  -12.0690  -38.3800 C   0  0  0  0  0  0  0  0  0  0  0  0
    4.6930  -10.7810  -38.9450 Br  0  0  0  0  0  0  0  0  0  0  0  0
    2.9760  -12.0900  -37.0860 C   0  0  0  0  0  3  0  0  0  0  0  0
    2.0280  -13.0390  -36.6340 C   0  0  0  0  0  3  0  0  0  0  0  0
  1  8  1  0  0  0  0
  2  1  2  0  0  0  0
  2  3  1  0  0  0  0
  3  4  1  0  0  0  0
  4  5  1  0  0  0  0
  5  6  1  0  0  0  0
  5  9  2  0  0  0  0
  6 13  1  0  0  0  0
  7  3  1  6  0  0  0
  7  6  1  0  0  0  0
  8  7  1  0  0  0  0
  8 14  1  0  0  0  0
 10  9  1  0  0  0  0
 11 10  2  0  0  0  0
 12 11  1  0  0  0  0
 12  4  2  0  0  0  0
 15 16  1  0  0  0  0
 15 14  1  0  0  0  0
 17 22  1  0  0  0  0
 17 23  1  0  0  0  0
 17 16  1  0  0  0  0
 18 17  1  0  0  0  0
 19 20  1  0  0  0  0
 19 18  2  0  0  0  0
 20 21  1  0  0  0  0
 21 22  2  0  0  0  0
 24  1  1  0  0  0  0
 24 30  1  0  0  0  0
 25 24  2  0  0  0  0
 26 25  1  0  0  0  0
 26 27  2  0  0  0  0
 27 29  1  0  0  0  0
 28 27  1  0  0  0  0
 29 30  2  0  0  0  0
M  END
>  <Pose>
1

>  <Score>
-7.012

$$$$
