MODEL 1
REMARK VINA RESULT:    -6.316      0.000      0.000
REMARK INTER + INTRA:          -9.508
REMARK INTER:                  -8.531
REMARK INTRA:                  -0.977
REMARK UNBOUND:                -0.977
REMARK  6 active torsions:
REMARK  status: ('A' for Active; 'I' for Inactive)
REMARK    1  A    between atoms: C_10  and  C_22 
REMARK    2  A    between atoms: N_15  and  C_18 
REMARK    3  A    between atoms: C_18  and  C_19 
REMARK    4  A    between atoms: C_19  and  C_20 
REMARK    5  A    between atoms: C_22  and  C_23 
REMARK    6  A    between atoms: C_23  and  C_24 
REMARK       I    between atoms: C_24  and  N_26 
ROOT
ATOM      1 Cl   UNK d   1      -2.064 -12.844 -35.826  0.00  0.00    -0.082 Cl
ATOM      2  C   UNK d   1      -0.448 -13.319 -36.339  0.00  0.00     0.061 A 
ATOM      3  C   UNK d   1      -0.214 -14.689 -36.530  0.00  0.00     0.066 A 
ATOM      4  C   UNK d   1       1.043 -15.054 -36.929  0.00  0.00     0.008 A 
ATOM      5  C   UNK d   1       2.056 -14.095 -37.138  0.00  0.00     0.012 A 
ATOM      6  C   UNK d   1       1.815 -12.758 -36.948  0.00  0.00     0.002 A 
ATOM      7  C   UNK d   1       0.548 -12.396 -36.547  0.00  0.00     0.026 A 
ATOM      8  C   UNK d   1       1.061 -16.516 -37.078  0.00  0.00     0.151 A 
ATOM      9  N   UNK d   1       2.109 -17.169 -36.379  0.00  0.00    -0.395 N 
ATOM     10  C   UNK d   1       2.492 -18.353 -37.013  0.00  0.00     0.092 C 
ATOM     11  C   UNK d   1       1.944 -18.241 -38.418  0.00  0.00     0.117 C 
ATOM     12  C   UNK d   1       1.287 -16.904 -38.538  0.00  0.00     0.135 C 
ATOM     13  C   UNK d   1       0.009 -17.096 -39.272  0.00  0.00     0.234 C 
ATOM     14  O   UNK d   1      -0.739 -16.157 -39.633  0.00  0.00    -0.272 OA
ATOM     15  N   UNK d   1      -0.179 -18.498 -39.469  0.00  0.00    -0.288 N 
ATOM     16  C   UNK d   1       0.814 -19.162 -38.673  0.00  0.00     0.233 C 
ATOM     17  O   UNK d   1       0.721 -20.332 -38.270  0.00  0.00    -0.272 OA
ATOM     18  C   UNK d   1      -0.280 -16.963 -36.692  0.00  0.00     0.256 A 
ATOM     19  O   UNK d   1      -0.740 -18.146 -36.631  0.00  0.00    -0.270 OA
ATOM     20  N   UNK d   1      -1.056 -15.824 -36.374  0.00  0.00    -0.323 N 
ATOM     21  H   UNK d   1       2.032 -17.175 -35.348  0.00  0.00     0.155 HD
ATOM     22  H   UNK d   1      -2.059 -15.775 -36.076  0.00  0.00     0.169 HD
ENDROOT
BRANCH  10  23
ATOM     23  C   UNK d   1       3.910 -18.772 -36.969  0.00  0.00     0.035 C 
BRANCH  23  24
ATOM     24  C   UNK d   1       4.495 -19.394 -38.173  0.00  0.00     0.104 C 
BRANCH  24  25
ATOM     25  C   UNK d   1       5.921 -19.735 -38.136  0.00  0.00     0.215 C 
ATOM     26  O   UNK d   1       6.314 -20.856 -38.507  0.00  0.00    -0.274 OA
ATOM     27  N   UNK d   1       6.922 -18.825 -37.686  0.00  0.00    -0.370 N 
ATOM     28  H   UNK d   1       7.183 -17.963 -38.197  0.00  0.00     0.159 HD
ATOM     29  H   UNK d   1       7.417 -19.032 -36.802  0.00  0.00     0.159 HD
ENDBRANCH  24  25
ENDBRANCH  23  24
ENDBRANCH  10  23
BRANCH  15  30
ATOM     30  C   UNK d   1      -1.148 -19.151 -40.293  0.00  0.00     0.135 C 
BRANCH  30  31
ATOM     31  C   UNK d   1      -2.458 -19.444 -39.654  0.00  0.00     0.020 C 
BRANCH  31  32
ATOM     32  C   UNK d   1      -3.499 -18.386 -39.755  0.00  0.00    -0.003 C 
ATOM     33  C   UNK d   1      -3.744 -17.702 -38.414  0.00  0.00     0.005 C 
ENDBRANCH  31  32
ENDBRANCH  30  31
ENDBRANCH  15  30
TORSDOF 6
ENDMDL
